@<TRIPOS>MOLECULE
tmp/3mm9C00.pdb
 205 192 0 0 0
SMALL
GASTEIGER

@<TRIPOS>ATOM
      1  N         86.6950   21.0190   15.2190 N.3    78  ILE78      -0.1245
      2  CA        86.5510   19.6970   15.8080 C.3    78  ILE78       0.1561
      3  C         87.4280   18.7240   15.0180 C.2    78  ILE78       0.2260
      4  O         87.2350   18.5330   13.8150 O.2    78  ILE78      -0.2867
      5  CB        85.0730   19.2180   15.7990 C.3    78  ILE78       0.0252
      6  CG1       84.1480   20.2300   16.5090 C.3    78  ILE78       0.0019
      7  CG2       84.9570   17.8030   16.3840 C.3    78  ILE78       0.0019
      8  CD1       84.1300   20.1660   18.0610 C.3    78  ILE78       0.0001
      9  N         89.1680   14.9010   14.1760 N.3    80  ARG80      -0.1245
     10  CA        88.6390   13.5520   13.9840 C.3    80  ARG80       0.1563
     11  C         89.5970   12.6600   13.1940 C.2    80  ARG80       0.2260
     12  O         90.1090   13.0570   12.1430 O.2    80  ARG80      -0.2867
     13  CB        87.2710   13.5950   13.2930 C.3    80  ARG80       0.0307
     14  CG        86.3690   12.4110   13.6180 C.3    80  ARG80       0.0489
     15  CD        86.1600   12.2640   15.1260 C.3    80  ARG80       0.2205
     16  NE        85.1800   13.2090   15.6680 N.pl3  80  ARG80      -0.0865
     17  CZ        85.2140   13.7110   16.9010 C.cat  80  ARG80       0.5346
     18  NH1       86.1930   13.3810   17.7370 N.pl3  80  ARG80       0.1354
     19  NH2       84.2690   14.5550   17.2960 N.pl3  80  ARG80       0.1354
     20  N         86.3990   18.8700   11.0290 N.3    96  THR96      -0.1218
     21  CA        85.3710   19.8250   10.6320 C.3    96  THR96       0.1862
     22  C         85.7060   21.2250   11.1150 C.2    96  THR96       0.2287
     23  O         86.2550   21.4110   12.2070 O.2    96  THR96      -0.2866
     24  CB        83.9630   19.4360   11.1240 C.3    96  THR96       0.1770
     25  OG1       83.9100   19.5030   12.5540 O.3    96  THR96      -0.2211
     26  CG2       83.6000   18.0390   10.6690 C.3    96  THR96       0.0375
     27  N         83.6880   24.6330   11.9360 N.3    98  ARG98      -0.1245
     28  CA        82.4060   25.2790   12.1460 C.3    98  ARG98       0.1563
     29  C         82.5100   26.7300   11.6690 C.2    98  ARG98       0.2260
     30  O         83.3860   27.4800   12.1100 O.2    98  ARG98      -0.2867
     31  CB        81.9720   25.1680   13.6260 C.3    98  ARG98       0.0307
     32  CG        81.9270   23.7180   14.1500 C.3    98  ARG98       0.0489
     33  CD        81.6600   23.6160   15.6450 C.3    98  ARG98       0.2205
     34  NE        81.4140   22.2300   16.0370 N.pl3  98  ARG98      -0.0865
     35  CZ        81.0290   21.8350   17.2510 C.cat  98  ARG98       0.5346
     36  NH1       80.8220   22.7140   18.2240 N.pl3  98  ARG98       0.1354
     37  NH2       80.8320   20.5460   17.4950 N.pl3  98  ARG98       0.1354
     38  N         77.5090   20.8690    5.7260 N.3   128  ASN128     -0.1240
     39  CA        76.2220   20.7090    6.3690 C.3   128  ASN128      0.1653
     40  C         75.5220   22.0670    6.4340 C.2   128  ASN128      0.2266
     41  O         76.1210   23.0690    6.8480 O.2   128  ASN128     -0.2867
     42  CB        76.3790   20.0810    7.7600 C.3   128  ASN128      0.1155
     43  CG        76.6360   18.5590    7.7180 C.2   128  ASN128      0.2627
     44  OD1       76.4180   17.8610    8.7120 O.2   128  ASN128     -0.2716
     45  ND2       77.0990   18.0510    6.5850 N.am  128  ASN128     -0.0877
     46  N         71.8760   23.3900    7.8230 N.3   130  HIS130     -0.1226
     47  CA        72.9070   23.9460    8.7050 C.3   130  HIS130      0.1752
     48  C         73.0860   23.0640    9.9420 C.2   130  HIS130      0.2597
     49  O         72.3720   22.0720   10.1230 O.2   130  HIS130     -0.2718
     50  CB        72.5210   25.3610    9.1490 C.3   130  HIS130      0.0759
     51  CG        72.8340   26.4220    8.1420 C.ar  130  HIS130      0.0818
     52  ND1       71.9180   26.8540    7.2080 N.ar  130  HIS130     -0.2268
     53  CD2       73.9560   27.1490    7.9330 C.ar  130  HIS130      0.1154
     54  CE1       72.4660   27.7920    6.4570 C.ar  130  HIS130      0.1986
     55  NE2       73.7060   27.9840    6.8700 N.ar  130  HIS130     -0.2212
     56  N         74.0390   23.4270   10.7960 N.am  131  GLY131     -0.1942
     57  CA        74.1910   22.7560   12.0770 C.3   131  GLY131      0.2014
     58  C         73.0710   23.1240   13.0420 C.2   131  GLY131      0.2640
     59  O         72.4380   24.1770   12.9030 O.2   131  GLY131     -0.2714
     60  N         72.8150   22.2510   14.0140 N.am  132  SER132     -0.1935
     61  CA        71.7790   22.5040   15.0200 C.3   132  SER132      0.2055
     62  C         72.0060   23.8150   15.7960 C.2   132  SER132      0.2644
     63  O         71.0840   24.6290   15.9120 O.2   132  SER132     -0.2714
     64  CB        71.6230   21.3040   15.9570 C.3   132  SER132      0.2130
     65  OG        70.7140   20.3530   15.4210 O.3   132  SER132     -0.2179
     66  N         73.2310   24.0290   16.2880 N.am  133  THR133     -0.1936
     67  CA        73.6200   25.3100   16.9140 C.3   133  THR133      0.2028
     68  C         73.4770   26.4910   15.9410 C.2   133  THR133      0.2643
     69  O         73.2070   27.6220   16.3600 O.2   133  THR133     -0.2714
     70  CB        75.0940   25.3100   17.4390 C.3   133  THR133      0.1808
     71  OG1       75.4510   24.0160   17.9380 O.3   133  THR133     -0.2208
     72  CG2       75.2830   26.3430   18.5480 C.3   133  THR133      0.0379
     73  N         73.6740   26.2290   14.6500 N.am  134  GLY134     -0.1939
     74  CA        73.4900   27.2590   13.6380 C.3   134  GLY134      0.2014
     75  C         74.5880   27.3260   12.6010 C.2   134  GLY134      0.2638
     76  O         74.3180   27.6590   11.4390 O.2   134  GLY134     -0.2714
     77  N         75.8260   27.0250   13.0020 N.am  135  ASP135     -0.1971
     78  CA        76.9820   27.1790   12.0900 C.3   135  ASP135      0.1709
     79  C         76.8500   26.3720   10.8050 C.2   135  ASP135      0.2293
     80  O         76.1780   25.3340   10.7860 O.2   135  ASP135     -0.2864
     81  CB        78.2950   26.7670   12.7680 C.3   135  ASP135      0.1436
     82  CG        78.6100   27.5890   14.0020 C.2   135  ASP135      0.3671
     83  OD1       78.6700   27.0020   15.1000 O.co2 135  ASP135     -0.2456
     84  OD2       78.8120   28.8150   13.8660 O.co2 135  ASP135     -0.2456
     85  N         78.6680   23.8450    8.5200 N.3   137  ILE137     -0.1245
     86  CA        79.6780   22.8210    8.7470 C.3   137  ILE137      0.1561
     87  C         80.4420   22.5020    7.4660 C.2   137  ILE137      0.2260
     88  O         79.8910   21.9580    6.5110 O.2   137  ILE137     -0.2867
     89  CB        79.0840   21.5220    9.3560 C.3   137  ILE137      0.0252
     90  CG1       78.1230   21.8350   10.5210 C.3   137  ILE137      0.0019
     91  CG2       80.1990   20.5530    9.7640 C.3   137  ILE137      0.0019
     92  CD1       78.7510   21.8880   11.9390 C.3   137  ILE137      0.0001
     93  N         79.1390   29.5760   22.4550 N.3   170  ARG170     -0.1245
     94  CA        78.8410   28.9940   21.1600 C.3   170  ARG170      0.1563
     95  C         78.3060   30.0620   20.2070 C.2   170  ARG170      0.2260
     96  O         77.9600   31.1760   20.6230 O.2   170  ARG170     -0.2867
     97  CB        77.8730   27.8170   21.2780 C.3   170  ARG170      0.0307
     98  CG        78.4430   26.6180   22.0230 C.3   170  ARG170      0.0489
     99  CD        79.8360   26.1640   21.5380 C.3   170  ARG170      0.2205
    100  NE        80.3040   25.0830   22.4070 N.pl3 170  ARG170     -0.0865
    101  CZ        80.1600   23.7870   22.1440 C.cat 170  ARG170      0.5346
    102  NH1       79.6130   23.3860   21.0010 N.pl3 170  ARG170      0.1354
    103  NH2       80.5950   22.8890   23.0130 N.pl3 170  ARG170      0.1354
    104  N         82.5040   25.3270   30.9290 N.3   210  TYR210     -0.1227
    105  CA        81.8400   24.5140   29.9140 C.3   210  TYR210      0.1736
    106  C         81.3270   25.4700   28.8260 C.2   210  TYR210      0.2595
    107  O         81.8000   26.6120   28.7300 O.2   210  TYR210     -0.2718
    108  CB        80.7160   23.6770   30.5480 C.3   210  TYR210      0.0548
    109  CG        80.3580   22.3590   29.8660 C.ar  210  TYR210     -0.0200
    110  CD1       81.1450   21.8130   28.8530 C.ar  210  TYR210     -0.0009
    111  CD2       79.2450   21.6430   30.2830 C.ar  210  TYR210     -0.0009
    112  CE1       80.7910   20.6030   28.2510 C.ar  210  TYR210      0.0417
    113  CE2       78.8880   20.4480   29.7090 C.ar  210  TYR210      0.0417
    114  CZ        79.6560   19.9330   28.6920 C.ar  210  TYR210      0.1957
    115  OH        79.2750   18.7340   28.1370 O.3   210  TYR210     -0.2866
    116  N         80.3840   25.0100   28.0050 N.am  211  LYS211     -0.1980
    117  CA        79.8950   25.8000   26.8660 C.3   211  LYS211      0.1596
    118  C         78.7030   26.6370   27.3090 C.2   211  LYS211      0.2287
    119  O         77.9700   26.2430   28.2080 O.2   211  LYS211     -0.2864
    120  CB        79.4860   24.8820   25.7040 C.3   211  LYS211      0.0298
    121  CG        78.1160   24.2140   25.9090 C.3   211  LYS211      0.0038
    122  CD        77.8100   23.1690   24.8680 C.3   211  LYS211      0.0206
    123  CE        78.1330   21.7860   25.3780 C.3   211  LYS211      0.1093
    124  NZ        78.0700   20.7880   24.2760 N.3   211  LYS211     -0.1314
    125  N         75.4280   28.7350   25.4670 N.3   213  LYS213     -0.1245
    126  CA        74.6970   28.9870   24.2270 C.3   213  LYS213      0.1561
    127  C         73.6570   30.0950   24.4010 C.2   213  LYS213      0.2260
    128  O         73.1280   30.2910   25.4930 O.2   213  LYS213     -0.2867
    129  CB        74.0370   27.6940   23.7190 C.3   213  LYS213      0.0271
    130  CG        75.0310   26.5750   23.4360 C.3   213  LYS213      0.0035
    131  CD        74.3790   25.2390   23.0750 C.3   213  LYS213      0.0206
    132  CE        75.3800   24.3730   22.2680 C.3   213  LYS213      0.1093
    133  NZ        74.8950   22.9900   21.9180 N.3   213  LYS213     -0.1314
    134  N         70.1830   31.7000   22.2170 N.3   215  LYS215     -0.1245
    135  CA        69.2540   31.7880   21.0730 C.3   215  LYS215      0.1561
    136  C         68.1560   32.8400   21.2780 C.2   215  LYS215      0.2260
    137  O         67.5840   32.9730   22.3800 O.2   215  LYS215     -0.2867
    138  CB        68.6380   30.4260   20.7510 C.3   215  LYS215      0.0271
    139  CG        69.5960   29.4510   20.0950 C.3   215  LYS215      0.0035
    140  CD        68.9100   28.1270   19.8000 C.3   215  LYS215      0.0206
    141  CE        69.8980   27.1050   19.2540 C.3   215  LYS215      0.1093
    142  NZ        70.9870   26.7720   20.2320 N.3   215  LYS215     -0.1314
    143  N         65.0100   25.0230   24.8070 N.3   228  ALA228     -0.1231
    144  CA        65.4930   23.6640   24.9140 C.3   228  ALA228      0.1694
    145  C         66.9460   23.5480   24.5080 C.2   228  ALA228      0.2591
    146  O         67.6410   22.6330   24.9570 O.2   228  ALA228     -0.2718
    147  CB        64.6370   22.7470   24.0990 C.3   228  ALA228      0.0304
    148  N         67.4150   24.4750   23.6630 N.am  229  ARG229     -0.1980
    149  CA        68.7390   24.3390   23.0400 C.3   229  ARG229      0.1597
    150  C         69.7280   25.5000   23.2580 C.2   229  ARG229      0.2287
    151  O         70.7660   25.5830   22.5810 O.2   229  ARG229     -0.2864
    152  CB        68.5860   24.0280   21.5530 C.3   229  ARG229      0.0334
    153  CG        67.9050   22.6850   21.2700 C.3   229  ARG229      0.0492
    154  CD        67.2030   22.7090   19.9140 C.3   229  ARG229      0.2205
    155  NE        68.1160   23.0540   18.8350 N.pl3 229  ARG229     -0.0865
    156  CZ        67.7510   23.2940   17.5690 C.cat 229  ARG229      0.5346
    157  NH1       66.4760   23.2150   17.1930 N.pl3 229  ARG229      0.1354
    158  NH2       68.6700   23.6160   16.6770 N.pl3 229  ARG229      0.1354
    159  N         69.2810   22.7840   28.3630 N.3   314  LYS314     -0.1231
    160  CA        70.3690   21.8360   28.0530 C.3   314  LYS314      0.1693
    161  C         69.9030   20.3930   27.8610 C.2   314  LYS314      0.2591
    162  O         68.9040   19.9700   28.4700 O.2   314  LYS314     -0.2718
    163  CB        71.4530   21.8740   29.1350 C.3   314  LYS314      0.0285
    164  CG        70.9290   21.6060   30.5660 C.3   314  LYS314      0.0035
    165  CD        72.0480   21.5740   31.5790 C.3   314  LYS314      0.0206
    166  CE        72.9340   20.3450   31.4010 C.3   314  LYS314      0.1093
    167  NZ        72.1750   19.0990   31.6900 N.3   314  LYS314     -0.1314
    168  N         70.6330   19.6560   27.0130 N.am  315  ALA315     -0.1980
    169  CA        70.5900   18.1810   26.9510 C.3   315  ALA315      0.1597
    170  C         70.9650   17.5130   28.3050 C.2   315  ALA315      0.2287
    171  O         71.6790   18.1190   29.1160 O.2   315  ALA315     -0.2864
    172  CB        71.5070   17.6810   25.8490 C.3   315  ALA315      0.0319
    173  N         72.9630   15.3160   30.0130 N.3   317  PHE317     -0.1241
    174  CA        74.2270   15.1990   30.7550 C.3   317  PHE317      0.1605
    175  C         74.5270   16.4900   31.5240 C.2   317  PHE317      0.2264
    176  O         74.4160   17.5600   30.9450 O.2   317  PHE317     -0.2867
    177  CB        75.3940   14.8120   29.8340 C.3   317  PHE317      0.0534
    178  CG        75.3440   13.3860   29.3590 C.ar  317  PHE317     -0.0203
    179  CD1       75.1120   12.3460   30.2530 C.ar  317  PHE317     -0.0042
    180  CD2       75.5520   13.0750   28.0200 C.ar  317  PHE317     -0.0042
    181  CE1       75.0700   11.0260   29.8200 C.ar  317  PHE317     -0.0003
    182  CE2       75.5150   11.7510   27.5760 C.ar  317  PHE317     -0.0003
    183  CZ        75.2730   10.7290   28.4770 C.ar  317  PHE317     -0.0000
    184  N         83.0300   21.0870   33.4490 N.3   358  ARG358     -0.1245
    185  CA        81.8690   20.5870   32.6860 C.3   358  ARG358      0.1563
    186  C         80.5120   20.7360   33.3950 C.2   358  ARG358      0.2260
    187  O         79.5950   19.9310   33.2070 O.2   358  ARG358     -0.2867
    188  CB        82.1270   19.1770   32.1390 C.3   358  ARG358      0.0307
    189  CG        83.2110   19.1970   31.0510 C.3   358  ARG358      0.0489
    190  CD        83.6900   17.8160   30.6560 C.3   358  ARG358      0.2205
    191  NE        82.6170   16.9530   30.1650 N.pl3 358  ARG358     -0.0865
    192  CZ        82.1990   16.9200   28.9030 C.cat 358  ARG358      0.5346
    193  NH1       82.7460   17.7090   27.9970 N.pl3 358  ARG358      0.1354
    194  NH2       81.2220   16.0990   28.5490 N.pl3 358  ARG358      0.1354
    195  N         77.2840   22.9450   33.4130 N.3   360  ARG360     -0.1245
    196  CA        76.5010   23.9290   32.6830 C.3   360  ARG360      0.1563
    197  C         75.8940   24.9040   33.6800 C.2   360  ARG360      0.2260
    198  O         75.7370   24.5690   34.8670 O.2   360  ARG360     -0.2867
    199  CB        75.4060   23.2480   31.8580 C.3   360  ARG360      0.0307
    200  CG        75.9280   22.4150   30.6800 C.3   360  ARG360      0.0489
    201  CD        76.4830   23.2710   29.5350 C.3   360  ARG360      0.2205
    202  NE        75.4570   23.9050   28.7090 N.pl3 360  ARG360     -0.0865
    203  CZ        74.7710   23.2880   27.7460 C.cat 360  ARG360      0.5346
    204  NH1       74.9930   22.0040   27.4860 N.pl3 360  ARG360      0.1354
    205  NH2       73.8570   23.9520   27.0400 N.pl3 360  ARG360      0.1354
@<TRIPOS>BOND
     1    38    39    1
     2    39    40    1
     3    39    42    1
     4    40    41    2
     5    54    55   ar
     6    54    52   ar
     7    88    87    2
     8    45    43   am
     9    55    53   ar
    10    52    51   ar
    11    87    86    1
    12    43    42    1
    13    43    44    2
    14    46    47    1
    15    53    51   ar
    16    51    50    1
    17    85    86    1
    18    47    50    1
    19    47    48    1
    20    86    89    1
    21    89    91    1
    22    89    90    1
    23    48    49    2
    24    48    56   am
    25    90    92    1
    26    21    20    1
    27    21    22    1
    28    21    24    1
    29    26    24    1
    30    80    79    2
    31    56    57    1
    32    79    78    1
    33    22    23    2
    34    24    25    1
    35    76    75    2
    36    29    30    2
    37    29    28    1
    38    27    28    1
    39    57    58    1
    40    78    81    1
    41    78    77    1
    42    12    11    2
    43    28    31    1
    44    75    77   am
    45    75    74    1
    46    81    82    1
    47    59    58    2
    48    58    60   am
    49    11    10    1
    50    13    14    1
    51    13    10    1
    52    14    15    1
    53    31    32    1
    54    74    73    1
    55     4     3    2
    56    84    82   ar
    57    10     9    1
    58    82    83   ar
    59    60    61    1
    60    32    33    1
    61    73    68   am
    62     3     2    1
    63    61    62    1
    64    61    64    1
    65    15    16    1
    66     1     2    1
    67    65    64    1
    68    33    34    1
    69    16    17    2
    70    62    63    2
    71    62    66   am
    72     5     2    1
    73     5     7    1
    74     5     6    1
    75    68    69    2
    76    68    67    1
    77    34    35    2
    78    66    67    1
    79     6     8    1
    80   158   156    1
    81    17    19    1
    82    17    18    1
    83    67    70    1
    84   157   156    1
    85    35    37    1
    86    35    36    1
    87    70    71    1
    88    70    72    1
    89   156   155    2
    90   155   154    1
    91   141   140    1
    92   141   142    1
    93   140   139    1
    94   154   153    1
    95   139   138    1
    96    95    96    2
    97    95    94    1
    98   138   135    1
    99   102   101    1
   100   135   136    1
   101   135   134    1
   102    94    97    1
   103    94    93    1
   104   153   152    1
   105    97    98    1
   106   136   137    2
   107    99    98    1
   108    99   100    1
   109   152   149    1
   110   133   132    1
   111   101   100    2
   112   101   103    1
   113   132   131    1
   114   151   150    2
   115   149   150    1
   116   149   148    1
   117   131   130    1
   118   130   129    1
   119   148   145   am
   120   129   126    1
   121   147   144    1
   122   126   127    1
   123   126   125    1
   124   124   123    1
   125   127   128    2
   126   145   144    1
   127   145   146    2
   128   143   144    1
   129   122   123    1
   130   122   121    1
   131   120   121    1
   132   120   117    1
   133   172   169    1
   134   117   118    1
   135   117   116    1
   136   169   168    1
   137   169   170    1
   138   168   161   am
   139   205   203    1
   140   118   119    2
   141   204   203    1
   142   182   180   ar
   143   182   183   ar
   144   203   202    2
   145   161   160    1
   146   161   162    2
   147   193   192    1
   148   116   106   am
   149   180   178   ar
   150   160   159    1
   151   160   163    1
   152   115   114    1
   153   112   114   ar
   154   112   110   ar
   155   170   171    2
   156   183   181   ar
   157   194   192    1
   158   114   113   ar
   159   202   201    1
   160   107   106    2
   161   106   105    1
   162   110   109   ar
   163   192   191    2
   164   163   164    1
   165   178   177    1
   166   178   179   ar
   167   201   200    1
   168   113   111   ar
   169   181   179   ar
   170   177   174    1
   171   109   111   ar
   172   109   108    1
   173   105   108    1
   174   105   104    1
   175   173   174    1
   176   191   190    1
   177   164   165    1
   178   190   189    1
   179   200   199    1
   180   174   175    1
   181   176   175    2
   182   189   188    1
   183   166   165    1
   184   166   167    1
   185   199   196    1
   186   188   185    1
   187   196   195    1
   188   196   197    1
   189   185   186    1
   190   185   184    1
   191   187   186    2
   192   197   198    2
