@<TRIPOS>MOLECULE
tmp/3mmaA00.pdb
 213 199 0 0 0
SMALL
GASTEIGER

@<TRIPOS>ATOM
      1  N         56.2000    5.5800   75.0470 N.3    78  ILE78      -0.1245
      2  CA        57.2350    6.5090   74.6740 C.3    78  ILE78       0.1561
      3  C         57.5870    7.2990   75.8920 C.2    78  ILE78       0.2260
      4  O         56.7590    8.0370   76.4120 O.2    78  ILE78      -0.2867
      5  CB        56.7970    7.4450   73.5330 C.3    78  ILE78       0.0252
      6  CG1       56.4620    6.6150   72.2930 C.3    78  ILE78       0.0019
      7  CG2       57.8970    8.4620   73.2190 C.3    78  ILE78       0.0019
      8  CD1       56.2200    7.4540   71.0540 C.3    78  ILE78       0.0001
      9  N         59.1470   10.1020   78.1810 N.3    80  ARG80      -0.1245
     10  CA        59.2750   11.5500   78.0860 C.3    80  ARG80       0.1563
     11  C         59.6620   12.0950   79.4560 C.2    80  ARG80       0.2260
     12  O         59.0360   11.7630   80.4710 O.2    80  ARG80      -0.2867
     13  CB        57.9650   12.1690   77.5650 C.3    80  ARG80       0.0307
     14  CG        58.0070   13.6540   77.1600 C.3    80  ARG80       0.0489
     15  CD        58.9490   14.0020   75.9860 C.3    80  ARG80       0.2205
     16  NE        58.6450   13.3020   74.7380 N.pl3  80  ARG80      -0.0865
     17  CZ        59.5370   12.5970   74.0390 C.cat  80  ARG80       0.5346
     18  NH1       60.7960   12.4950   74.4440 N.pl3  80  ARG80       0.1354
     19  NH2       59.1750   11.9930   72.9190 N.pl3  80  ARG80       0.1354
     20  N         53.9450    8.6310   77.6640 N.3    96  THR96      -0.1218
     21  CA        52.7030    8.3220   77.0020 C.3    96  THR96       0.1862
     22  C         52.6320    6.8250   76.7140 C.2    96  THR96       0.2287
     23  O         53.6320    6.1940   76.3210 O.2    96  THR96      -0.2866
     24  CB        52.5430    9.0430   75.6430 C.3    96  THR96       0.1770
     25  OG1       53.7530    8.9050   74.8820 O.3    96  THR96      -0.2211
     26  CG2       52.2330   10.4800   75.8220 C.3    96  THR96       0.0375
     27  N         50.4280    4.4020   74.2510 N.3    98  ARG98      -0.1245
     28  CA        49.5250    4.3670   73.1190 C.3    98  ARG98       0.1563
     29  C         48.6620    3.1360   73.2210 C.2    98  ARG98       0.2260
     30  O         49.1490    2.0080   73.1310 O.2    98  ARG98      -0.2867
     31  CB        50.3060    4.3670   71.8260 C.3    98  ARG98       0.0307
     32  CG        51.1080    5.6400   71.6260 C.3    98  ARG98       0.0489
     33  CD        51.8010    5.6030   70.2590 C.3    98  ARG98       0.2205
     34  NE        52.5390    6.8340   70.0250 N.pl3  98  ARG98      -0.0865
     35  CZ        53.4010    7.0200   69.0310 C.cat  98  ARG98       0.5346
     36  NH1       53.6230    6.0430   68.1420 N.pl3  98  ARG98       0.1354
     37  NH2       54.0190    8.2000   68.9090 N.pl3  98  ARG98       0.1354
     38  N         44.4880   11.8170   74.9240 N.3   128  ASN128     -0.1240
     39  CA        44.0550   12.3070   73.6180 C.3   128  ASN128      0.1653
     40  C         43.1230   11.3190   72.9770 C.2   128  ASN128      0.2266
     41  O         43.4170   10.1270   72.9390 O.2   128  ASN128     -0.2867
     42  CB        45.2240   12.5480   72.6610 C.3   128  ASN128      0.1155
     43  CG        46.2290   13.5570   73.1910 C.2   128  ASN128      0.2627
     44  OD1       45.8930   14.7030   73.4970 O.2   128  ASN128     -0.2716
     45  ND2       47.4650   13.1220   73.3190 N.am  128  ASN128     -0.0877
     46  N         41.8500   11.3800   69.2370 N.3   130  HIS130     -0.1226
     47  CA        42.8890   10.3680   69.4170 C.3   130  HIS130      0.1752
     48  C         44.2580   10.8540   68.9120 C.2   130  HIS130      0.2597
     49  O         44.3600   11.9320   68.3000 O.2   130  HIS130     -0.2718
     50  CB        42.4920    9.1030   68.6690 C.3   130  HIS130      0.0759
     51  CG        41.2720    8.4430   69.2320 C.ar  130  HIS130      0.0818
     52  ND1       41.3210    7.2550   69.9330 N.ar  130  HIS130     -0.2268
     53  CD2       39.9720    8.8220   69.2270 C.ar  130  HIS130      0.1154
     54  CE1       40.1050    6.9210   70.3170 C.ar  130  HIS130      0.1986
     55  NE2       39.2700    7.8590   69.9100 N.ar  130  HIS130     -0.2212
     56  N         45.2910   10.0480   69.1520 N.am  131  GLY131     -0.1942
     57  CA        46.5680   10.2070   68.4690 C.3   131  GLY131      0.2014
     58  C         46.3800   10.2200   66.9670 C.2   131  GLY131      0.2640
     59  O         45.4250    9.6610   66.4330 O.2   131  GLY131     -0.2714
     60  N         47.3130   10.8430   66.2720 N.am  132  SER132     -0.1935
     61  CA        47.1200   11.1200   64.8590 C.3   132  SER132      0.2055
     62  C         46.9760    9.8070   64.0900 C.2   132  SER132      0.2644
     63  O         46.1400    9.7140   63.1890 O.2   132  SER132     -0.2714
     64  CB        48.2660   11.9820   64.3170 C.3   132  SER132      0.2130
     65  OG        48.1120   12.2060   62.9100 O.3   132  SER132     -0.2179
     66  N         47.7770    8.8040   64.4590 N.am  133  THR133     -0.1936
     67  CA        47.7020    7.4480   63.8780 C.3   133  THR133      0.2028
     68  C         46.3660    6.7310   64.1620 C.2   133  THR133      0.2643
     69  O         45.9130    5.9220   63.3450 O.2   133  THR133     -0.2714
     70  CB        48.8710    6.5590   64.3990 C.3   133  THR133      0.1808
     71  OG1       50.0640    7.3580   64.5460 O.3   133  THR133     -0.2208
     72  CG2       49.1250    5.3400   63.4590 C.3   133  THR133      0.0379
     73  N         45.7560    7.0280   65.3150 N.am  134  GLY134     -0.1939
     74  CA        44.4430    6.4900   65.6890 C.3   134  GLY134      0.2014
     75  C         44.3470    6.0650   67.1540 C.2   134  GLY134      0.2638
     76  O         43.2500    6.0020   67.7230 O.2   134  GLY134     -0.2714
     77  N         45.4960    5.7880   67.7690 N.am  135  ASP135     -0.1971
     78  CA        45.5300    5.2160   69.1010 C.3   135  ASP135      0.1709
     79  C         44.9360    6.1860   70.1330 C.2   135  ASP135      0.2293
     80  O         45.0150    7.4160   69.9560 O.2   135  ASP135     -0.2864
     81  CB        46.9740    4.9140   69.5260 C.3   135  ASP135      0.1436
     82  CG        47.6730    3.9160   68.6240 C.2   135  ASP135      0.3671
     83  OD1       47.3290    2.7190   68.6260 O.co2 135  ASP135     -0.2456
     84  OD2       48.6410    4.3050   67.9640 O.co2 135  ASP135     -0.2456
     85  N         45.5770    8.0150   73.4500 N.3   137  ILE137     -0.1245
     86  CA        46.8250    8.4070   74.1040 C.3   137  ILE137      0.1561
     87  C         46.5970    8.5620   75.6120 C.2   137  ILE137      0.2260
     88  O         45.7760    9.3630   76.0250 O.2   137  ILE137     -0.2867
     89  CB        47.4210    9.6910   73.4890 C.3   137  ILE137      0.0252
     90  CG1       47.5000    9.5970   71.9390 C.3   137  ILE137      0.0019
     91  CG2       48.7980    9.9820   74.0570 C.3   137  ILE137      0.0019
     92  CD1       48.5650    8.6370   71.4090 C.3   137  ILE137      0.0001
     93  N         48.2160   10.1640   78.4700 N.3   139  LEU139     -0.1245
     94  CA        49.2000   11.2270   78.4410 C.3   139  LEU139      0.1561
     95  C         49.7480   11.4930   79.8310 C.2   139  LEU139      0.2260
     96  O         49.1930   12.3140   80.5800 O.2   139  LEU139     -0.2867
     97  CB        48.5670   12.5060   77.8540 C.3   139  LEU139      0.0270
     98  CG        49.4300   13.7310   77.5330 C.3   139  LEU139      0.0019
     99  CD1       50.3820   13.5450   76.3470 C.3   139  LEU139      0.0001
    100  CD2       48.5450   14.9270   77.2550 C.3   139  LEU139      0.0001
    101  N         52.8870   -0.0120   62.9630 N.3   170  ARG170     -0.1245
    102  CA        52.1140    0.8360   63.8390 C.3   170  ARG170      0.1563
    103  C         50.6460    0.4000   63.8740 C.2   170  ARG170      0.2260
    104  O         50.2470   -0.4760   63.1220 O.2   170  ARG170     -0.2867
    105  CB        52.2700    2.2980   63.4120 C.3   170  ARG170      0.0307
    106  CG        53.7160    2.7470   63.4550 C.3   170  ARG170      0.0489
    107  CD        54.2740    2.6780   64.8800 C.3   170  ARG170      0.2205
    108  NE        55.6140    3.2480   64.9010 N.pl3 170  ARG170     -0.0865
    109  CZ        55.8300    4.5590   64.9110 C.cat 170  ARG170      0.5346
    110  NH1       54.7950    5.3730   64.9350 N.pl3 170  ARG170      0.1354
    111  NH2       57.0610    5.0530   64.8940 N.pl3 170  ARG170      0.1354
    112  N         62.7160    0.7480   60.2000 N.3   210  TYR210     -0.1227
    113  CA        62.0050    1.9670   60.5920 C.3   210  TYR210      0.1736
    114  C         60.5390    1.6000   60.8840 C.2   210  TYR210      0.2595
    115  O         60.2260    0.4240   61.0680 O.2   210  TYR210     -0.2718
    116  CB        62.1100    3.0190   59.4770 C.3   210  TYR210      0.0548
    117  CG        62.0400    4.4580   59.9430 C.ar  210  TYR210     -0.0200
    118  CD1       62.0100    4.7880   61.3020 C.ar  210  TYR210     -0.0009
    119  CD2       62.0740    5.4940   59.0170 C.ar  210  TYR210     -0.0009
    120  CE1       61.9550    6.1270   61.7140 C.ar  210  TYR210      0.0417
    121  CE2       62.0230    6.8210   59.4100 C.ar  210  TYR210      0.0417
    122  CZ        61.9670    7.1280   60.7530 C.ar  210  TYR210      0.1957
    123  OH        61.9240    8.4500   61.1070 O.3   210  TYR210     -0.2866
    124  N         59.6640    2.6040   60.9530 N.am  211  LYS211     -0.1980
    125  CA        58.2310    2.4080   61.1790 C.3   211  LYS211      0.1596
    126  C         57.5250    2.0740   59.8580 C.2   211  LYS211      0.2287
    127  O         57.9950    2.4510   58.7840 O.2   211  LYS211     -0.2864
    128  CB        57.6150    3.6780   61.7630 C.3   211  LYS211      0.0298
    129  CG        57.4700    4.8020   60.7180 C.3   211  LYS211      0.0038
    130  CD        56.9840    6.1280   61.2810 C.3   211  LYS211      0.0206
    131  CE        58.1350    6.9110   61.8870 C.3   211  LYS211      0.1093
    132  NZ        57.7200    8.3020   62.2170 N.3   211  LYS211     -0.1314
    133  N         53.4000    1.9860   58.3040 N.3   213  LYS213     -0.1245
    134  CA        52.0190    2.3700   58.5600 C.3   213  LYS213      0.1561
    135  C         51.0480    1.8780   57.5180 C.2   213  LYS213      0.2260
    136  O         51.3050    2.0070   56.3090 O.2   213  LYS213     -0.2867
    137  CB        51.8930    3.8970   58.7310 C.3   213  LYS213      0.0271
    138  CG        52.2340    4.3490   60.1570 C.3   213  LYS213      0.0035
    139  CD        52.5460    5.8150   60.2600 C.3   213  LYS213      0.0206
    140  CE        53.2010    6.1290   61.6310 C.3   213  LYS213      0.1093
    141  NZ        53.4500    7.5980   61.8000 N.3   213  LYS213     -0.1314
    142  N         46.8380    2.0600   56.5040 N.3   215  LYS215     -0.1245
    143  CA        45.5570    2.7170   56.7120 C.3   215  LYS215      0.1561
    144  C         44.5780    2.2800   55.6570 C.2   215  LYS215      0.2260
    145  O         44.9530    2.0520   54.5010 O.2   215  LYS215     -0.2867
    146  CB        45.6930    4.2530   56.7420 C.3   215  LYS215      0.0271
    147  CG        46.1090    4.8110   58.1040 C.3   215  LYS215      0.0035
    148  CD        46.2050    6.3270   58.0910 C.3   215  LYS215      0.0206
    149  CE        46.6340    6.9150   59.4510 C.3   215  LYS215      0.1093
    150  NZ        48.0920    6.6690   59.7370 N.3   215  LYS215     -0.1314
    151  N         48.6050    9.9870   52.5000 N.3   228  ALA228     -0.1231
    152  CA        49.6050   10.9310   53.0290 C.3   228  ALA228      0.1694
    153  C         50.2700   10.4150   54.2750 C.2   228  ALA228      0.2591
    154  O         51.3560   10.8590   54.6530 O.2   228  ALA228     -0.2718
    155  CB        48.9650   12.2880   53.3370 C.3   228  ALA228      0.0304
    156  N         49.5950    9.4920   54.9380 N.am  229  ARG229     -0.1980
    157  CA        49.8830    9.2060   56.3350 C.3   229  ARG229      0.1597
    158  C         50.1350    7.7640   56.6660 C.2   229  ARG229      0.2287
    159  O         50.2780    7.4060   57.8420 O.2   229  ARG229     -0.2864
    160  CB        48.7160    9.6720   57.1730 C.3   229  ARG229      0.0334
    161  CG        49.0490   10.8820   57.9120 C.3   229  ARG229      0.0492
    162  CD        47.8150   11.4890   58.4220 C.3   229  ARG229      0.2205
    163  NE        46.9750   10.6100   59.2330 N.pl3 229  ARG229     -0.0865
    164  CZ        45.8720   11.0500   59.8300 C.cat 229  ARG229      0.5346
    165  NH1       45.5020   12.3320   59.7020 N.pl3 229  ARG229      0.1354
    166  NH2       45.1400   10.2350   60.5510 N.pl3 229  ARG229      0.1354
    167  N         54.4140    9.2450   53.3630 N.3   314  LYS314     -0.1231
    168  CA        55.2230    9.6040   54.5590 C.3   314  LYS314      0.1693
    169  C         55.4170   11.0960   54.7600 C.2   314  LYS314      0.2591
    170  O         55.2880   11.8800   53.8230 O.2   314  LYS314     -0.2718
    171  CB        56.5980    8.9070   54.5330 C.3   314  LYS314      0.0285
    172  CG        57.4320    9.1320   53.2530 C.3   314  LYS314      0.0035
    173  CD        58.8090    8.4340   53.2980 C.3   314  LYS314      0.0206
    174  CE        59.8530    9.1720   54.1450 C.3   314  LYS314      0.1093
    175  NZ        60.0090   10.6450   53.8010 N.3   314  LYS314     -0.1314
    176  N         55.7420   11.4840   55.9990 N.am  315  ALA315     -0.1980
    177  CA        56.2140   12.8350   56.3120 C.3   315  ALA315      0.1597
    178  C         57.5960   13.0380   55.6500 C.2   315  ALA315      0.2287
    179  O         58.1690   12.0760   55.1380 O.2   315  ALA315     -0.2864
    180  CB        56.2810   13.0300   57.8130 C.3   315  ALA315      0.0319
    181  N         60.8260   13.5340   56.2660 N.3   317  PHE317     -0.1241
    182  CA        62.1800   13.1510   56.5940 C.3   317  PHE317      0.1605
    183  C         62.8080   11.9690   55.8940 C.2   317  PHE317      0.2264
    184  O         62.1830   10.9720   55.5360 O.2   317  PHE317     -0.2867
    185  CB        62.5050   13.2350   58.0810 C.3   317  PHE317      0.0534
    186  CG        62.6560   14.6340   58.5510 C.ar  317  PHE317     -0.0203
    187  CD1       63.4670   15.5220   57.8490 C.ar  317  PHE317     -0.0042
    188  CD2       61.9630   15.0880   59.6530 C.ar  317  PHE317     -0.0042
    189  CE1       63.6000   16.8320   58.2580 C.ar  317  PHE317     -0.0003
    190  CE2       62.0880   16.4040   60.0680 C.ar  317  PHE317     -0.0003
    191  CZ        62.9110   17.2730   59.3730 C.ar  317  PHE317     -0.0000
    192  N         66.7070    3.3440   59.5190 N.3   358  ARG358     -0.1245
    193  CA        65.7670    4.4590   59.3920 C.3   358  ARG358      0.1563
    194  C         65.3720    4.8210   57.9450 C.2   358  ARG358      0.2260
    195  O         64.9970    5.9540   57.6890 O.2   358  ARG358     -0.2867
    196  CB        66.2700    5.6990   60.1600 C.3   358  ARG358      0.0307
    197  CG        65.8920    5.6690   61.6500 C.3   358  ARG358      0.0489
    198  CD        66.5090    6.7870   62.4600 C.3   358  ARG358      0.2205
    199  NE        65.9920    8.1230   62.1570 N.pl3 358  ARG358     -0.0865
    200  CZ        64.8860    8.6660   62.6770 C.cat 358  ARG358      0.5346
    201  NH1       64.1270    7.9990   63.5350 N.pl3 358  ARG358      0.1354
    202  NH2       64.5420    9.9040   62.3390 N.pl3 358  ARG358      0.1354
    203  N         62.6160    4.5380   55.1780 N.3   360  ARG360     -0.1245
    204  CA        61.2080    4.1940   54.9690 C.3   360  ARG360      0.1563
    205  C         61.0130    3.3910   53.6750 C.2   360  ARG360      0.2260
    206  O         61.8640    3.4590   52.7600 O.2   360  ARG360     -0.2867
    207  CB        60.3430    5.4610   54.9450 C.3   360  ARG360      0.0307
    208  CG        60.2480    6.1960   56.2750 C.3   360  ARG360      0.0489
    209  CD        59.4180    5.4430   57.3140 C.3   360  ARG360      0.2205
    210  NE        57.9780    5.4940   57.0940 N.pl3 360  ARG360     -0.0865
    211  CZ        57.1790    6.4990   57.4480 C.cat 360  ARG360      0.5346
    212  NH1       57.6540    7.6040   58.0220 N.pl3 360  ARG360      0.1354
    213  NH2       55.8820    6.4050   57.2080 N.pl3 360  ARG360      0.1354
@<TRIPOS>BOND
     1   151   152    1
     2   206   205    2
     3   152   155    1
     4   152   153    1
     5   172   173    1
     6   172   171    1
     7   173   174    1
     8   167   168    1
     9   205   204    1
    10   175   174    1
    11   170   169    2
    12   153   154    2
    13   153   156   am
    14   145   144    2
    15   171   168    1
    16   168   169    1
    17   169   176   am
    18   156   157    1
    19   207   204    1
    20   207   208    1
    21   204   203    1
    22   179   178    2
    23   184   183    2
    24   178   177    1
    25   144   143    1
    26   183   182    1
    27   176   177    1
    28   181   182    1
    29   208   209    1
    30   136   135    2
    31   177   180    1
    32   157   158    1
    33   157   160    1
    34   142   143    1
    35   182   185    1
    36   158   159    2
    37   143   146    1
    38   146   147    1
    39   210   209    1
    40   210   211    2
    41   160   161    1
    42   213   211    1
    43   211   212    1
    44   135   134    1
    45   195   194    2
    46   187   189   ar
    47   187   186   ar
    48   161   162    1
    49   194   193    1
    50   185   186    1
    51   148   147    1
    52   148   149    1
    53   189   191   ar
    54   133   134    1
    55   162   163    1
    56   186   188   ar
    57   134   137    1
    58   137   138    1
    59   127   126    2
    60   119   121   ar
    61   119   117   ar
    62   163   164    2
    63   191   190   ar
    64   193   192    1
    65   193   196    1
    66   121   122   ar
    67   149   150    1
    68   116   117    1
    69   116   113    1
    70   188   190   ar
    71   165   164    1
    72   164   166    1
    73   126   125    1
    74   117   118   ar
    75   138   139    1
    76   196   197    1
    77   112   113    1
    78   139   140    1
    79   113   114    1
    80   129   130    1
    81   129   128    1
    82   122   123    1
    83   122   120   ar
    84   114   124   am
    85   114   115    2
    86   124   125    1
    87   125   128    1
    88   130   131    1
    89   118   120   ar
    90   140   141    1
    91   197   198    1
    92   131   132    1
    93   199   198    1
    94   199   200    2
    95   202   200    1
    96   200   201    1
    97    65    64    1
    98   101   102    1
    99   104   103    2
   100    63    62    2
   101    69    68    2
   102   105   106    1
   103   105   102    1
   104   106   107    1
   105    72    70    1
   106   102   103    1
   107    67    68    1
   108    67    70    1
   109    67    66    1
   110    62    66   am
   111    62    61    1
   112    68    73   am
   113    64    61    1
   114    70    71    1
   115    61    60    1
   116   107   108    1
   117   111   109    1
   118   108   109    2
   119   109   110    1
   120    73    74    1
   121    74    75    1
   122    60    58   am
   123    59    58    2
   124    58    57    1
   125    75    76    2
   126    75    77   am
   127    77    78    1
   128    84    82   ar
   129    36    35    1
   130    49    48    2
   131    57    56    1
   132    82    83   ar
   133    82    81    1
   134    50    51    1
   135    50    47    1
   136    37    35    1
   137    48    56   am
   138    48    47    1
   139    35    34    2
   140    78    81    1
   141    78    79    1
   142    53    51   ar
   143    53    55   ar
   144    51    52   ar
   145    46    47    1
   146    55    54   ar
   147    52    54   ar
   148    80    79    2
   149    34    33    1
   150    33    32    1
   151     8     6    1
   152    92    90    1
   153    32    31    1
   154    31    28    1
   155    90    89    1
   156     6     5    1
   157    42    43    1
   158    42    39    1
   159    19    17    1
   160    41    40    2
   161    40    39    1
   162    28    29    1
   163    28    27    1
   164    30    29    2
   165    43    45   am
   166    43    44    2
   167     7     5    1
   168    85    86    1
   169    89    91    1
   170    89    86    1
   171     5     2    1
   172    39    38    1
   173    17    18    1
   174    17    16    2
   175    86    87    1
   176     2     1    1
   177     2     3    1
   178    16    15    1
   179    25    24    1
   180    87    88    2
   181    24    26    1
   182    24    21    1
   183     3     4    2
   184    15    14    1
   185    23    22    2
   186    99    98    1
   187    22    21    1
   188    21    20    1
   189    14    13    1
   190   100    98    1
   191    98    97    1
   192    13    10    1
   193    97    94    1
   194    10     9    1
   195    10    11    1
   196    94    93    1
   197    94    95    1
   198    11    12    2
   199    95    96    2
