@<TRIPOS>MOLECULE
tmp/3mmaA01.pdb
 129 126 0 0 0
SMALL
GASTEIGER

@<TRIPOS>ATOM
      1  N         37.7370    2.0630   63.4540 N.3   104  GLY104     -0.1210
      2  CA        36.8430    3.1870   63.2150 C.3   104  GLY104      0.1956
      3  C         36.4770    4.0190   64.4160 C.2   104  GLY104      0.2611
      4  O         35.5730    4.8410   64.3330 O.2   104  GLY104     -0.2717
      5  N         37.1840    3.8280   65.5410 N.am  105  TRP105     -0.1976
      6  CA        36.9250    4.6090   66.7670 C.3   105  TRP105      0.1640
      7  C         35.5200    4.4480   67.3340 C.2   105  TRP105      0.2290
      8  O         34.9630    5.3840   67.8960 O.2   105  TRP105     -0.2864
      9  CB        37.2510    6.0940   66.5680 C.3   105  TRP105      0.0576
     10  CG        38.6270    6.3020   66.0930 C.ar  105  TRP105      0.0006
     11  CD1       39.8040    6.1970   66.8370 C.ar  105  TRP105      0.0946
     12  CD2       39.0190    6.6630   64.7710 C.ar  105  TRP105      0.0152
     13  NE1       40.8930    6.4500   66.0190 N.ar  105  TRP105     -0.2442
     14  CE2       40.4390    6.7440   64.7550 C.ar  105  TRP105      0.0810
     15  CE3       38.3120    6.8930   63.5810 C.ar  105  TRP105      0.0012
     16  CZ2       41.1570    7.0580   63.5910 C.ar  105  TRP105      0.0191
     17  CZ3       39.0280    7.2040   62.4300 C.ar  105  TRP105      0.0001
     18  CH2       40.4380    7.2770   62.4390 C.ar  105  TRP105      0.0015
     19  N         38.6350    4.1170   58.1460 N.3   175  CYS175     -0.1221
     20  CA        37.4990    5.0420   58.1570 C.3   175  CYS175      0.1808
     21  C         36.2910    4.2340   58.6020 C.2   175  CYS175      0.2601
     22  O         36.3070    2.9990   58.5250 O.2   175  CYS175     -0.2717
     23  CB        37.2170    5.5870   56.7430 C.3   175  CYS175      0.0970
     24  SG        36.5140    4.2830   55.7660 S.3   175  CYS175     -0.0800
     25  N         35.2190    4.9130   58.9900 N.am  176  MET176     -0.1979
     26  CA        33.9610    4.2370   59.3960 C.3   176  MET176      0.1605
     27  C         33.4770    3.1300   58.4760 C.2   176  MET176      0.2287
     28  O         32.8850    2.1520   58.9380 O.2   176  MET176     -0.2864
     29  CB        32.8300    5.2600   59.6100 C.3   176  MET176      0.0413
     30  CG        32.2800    5.9300   58.3290 C.3   176  MET176      0.0598
     31  SD        31.3480    7.4100   58.7570 S.3   176  MET176     -0.1393
     32  CE        30.4770    7.7960   57.2130 C.3   176  MET176      0.0692
     33  N         28.7330    2.8480   58.7380 N.3   180  LEU180     -0.1231
     34  CA        27.8460    3.9960   58.5270 C.3   180  LEU180      0.1693
     35  C         27.6930    4.4610   57.0560 C.2   180  LEU180      0.2592
     36  O         26.7730    5.2040   56.7420 O.2   180  LEU180     -0.2718
     37  CB        28.2680    5.1650   59.4210 C.3   180  LEU180      0.0284
     38  CG        28.0100    4.9120   60.9140 C.3   180  LEU180      0.0019
     39  CD1       28.6970    5.9390   61.7600 C.3   180  LEU180      0.0001
     40  CD2       26.5030    4.8540   61.2240 C.3   180  LEU180      0.0001
     41  N         28.5690    3.9990   56.1660 N.am  181  CYS181     -0.1956
     42  CA        28.7570    4.6690   54.8740 C.3   181  CYS181      0.1843
     43  C         28.2630    3.8510   53.6800 C.2   181  CYS181      0.2625
     44  O         28.6470    2.6920   53.5070 O.2   181  CYS181     -0.2714
     45  CB        30.2280    5.0070   54.6870 C.3   181  CYS181      0.0997
     46  SG        30.5540    6.2210   53.3800 S.3   181  CYS181     -0.0797
     47  N         27.4250    4.4630   52.8430 N.am  182  GLU182     -0.1963
     48  CA        26.8910    3.7720   51.6650 C.3   182  GLU182      0.1733
     49  C         27.8940    3.7360   50.5030 C.2   182  GLU182      0.2616
     50  O         27.6290    3.1320   49.4510 O.2   182  GLU182     -0.2715
     51  CB        25.5600    4.3880   51.2350 C.3   182  GLU182      0.0429
     52  CG        25.6660    5.7390   50.5190 C.3   182  GLU182      0.1163
     53  CD        25.6140    6.9270   51.4440 C.2   182  GLU182      0.3649
     54  OE1       26.1090    6.8330   52.6070 O.co2 182  GLU182     -0.2457
     55  OE2       25.0860    7.9720   50.9930 O.co2 182  GLU182     -0.2457
     56  N         29.0450    4.3780   50.7030 N.am  183  PHE183     -0.1974
     57  CA        30.1110    4.4400   49.6770 C.3   183  PHE183      0.1639
     58  C         31.1630    3.3280   49.7970 C.2   183  PHE183      0.2290
     59  O         31.9510    3.1220   48.8800 O.2   183  PHE183     -0.2864
     60  CB        30.8430    5.7920   49.7110 C.3   183  PHE183      0.0560
     61  CG        29.9680    6.9940   49.4140 C.ar  183  PHE183     -0.0200
     62  CD1       28.7240    6.8580   48.8210 C.ar  183  PHE183     -0.0042
     63  CD2       30.4210    8.2790   49.7320 C.ar  183  PHE183     -0.0042
     64  CE1       27.9410    7.9700   48.5590 C.ar  183  PHE183     -0.0003
     65  CE2       29.6430    9.3960   49.4680 C.ar  183  PHE183     -0.0003
     66  CZ        28.3980    9.2440   48.8810 C.ar  183  PHE183     -0.0000
     67  N         37.4960    8.6410   48.4200 N.3   221  ASN221     -0.1225
     68  CA        37.4090    9.8770   49.2070 C.3   221  ASN221      0.1785
     69  C         38.4930    9.9480   50.2820 C.2   221  ASN221      0.2597
     70  O         38.8440   11.0330   50.7320 O.2   221  ASN221     -0.2718
     71  CB        36.0090   10.1110   49.7950 C.3   221  ASN221      0.1169
     72  CG        34.9940   10.6550   48.7420 C.2   221  ASN221      0.2627
     73  OD1       35.3530   11.4590   47.8780 O.2   221  ASN221     -0.2716
     74  ND2       33.7330   10.2480   48.8560 N.am  221  ASN221     -0.0877
     75  N         39.0200    8.7860   50.6610 N.am  222  ASP222     -0.1960
     76  CA        40.1440    8.6550   51.5840 C.3   222  ASP222      0.1840
     77  C         39.9970    9.4540   52.8820 C.2   222  ASP222      0.2622
     78  O         40.8410   10.2940   53.2270 O.2   222  ASP222     -0.2715
     79  CB        41.4710    8.9640   50.8740 C.3   222  ASP222      0.1450
     80  CG        42.6690    8.4040   51.6150 C.2   222  ASP222      0.3671
     81  OD1       43.8190    8.6930   51.2380 O.co2 222  ASP222     -0.2456
     82  OD2       42.4530    7.6550   52.5770 O.co2 222  ASP222     -0.2456
     83  N         38.9330    9.1440   53.6120 N.am  223  CYS223     -0.1954
     84  CA        38.5560    9.8360   54.8460 C.3   223  CYS223      0.1843
     85  C         39.4560    9.5090   56.0720 C.2   223  CYS223      0.2625
     86  O         39.1880    9.9720   57.1760 O.2   223  CYS223     -0.2714
     87  CB        37.0400    9.6190   55.1120 C.3   223  CYS223      0.0997
     88  SG        35.8390   10.1840   53.6750 S.3   223  CYS223     -0.0797
     89  N         40.5050    8.6980   55.8860 N.am  224  VAL224     -0.1963
     90  CA        41.5350    8.5080   56.9240 C.3   224  VAL224      0.1727
     91  C         42.8940    9.0450   56.5080 C.2   224  VAL224      0.2616
     92  O         43.9090    8.7750   57.1770 O.2   224  VAL224     -0.2715
     93  CB        41.7510    7.0230   57.3930 C.3   224  VAL224      0.0290
     94  CG1       40.8510    6.7160   58.5380 C.3   224  VAL224      0.0023
     95  CG2       41.6500    6.0210   56.2450 C.3   224  VAL224      0.0023
     96  N         42.9150    9.7720   55.3930 N.am  225  ALA225     -0.1977
     97  CA        44.1290   10.4200   54.8900 C.3   225  ALA225      0.1597
     98  C         45.2340    9.4020   54.6910 C.2   225  ALA225      0.2287
     99  O         46.4080    9.6740   54.9910 O.2   225  ALA225     -0.2864
    100  CB        44.5720   11.5370   55.8430 C.3   225  ALA225      0.0319
    101  N         49.5950    9.4920   54.9380 N.3   229  ARG229     -0.1245
    102  CA        49.8830    9.2060   56.3350 C.3   229  ARG229      0.1563
    103  C         50.1350    7.7640   56.6660 C.2   229  ARG229      0.2260
    104  O         50.2780    7.4060   57.8420 O.2   229  ARG229     -0.2867
    105  CB        48.7160    9.6720   57.1730 C.3   229  ARG229      0.0307
    106  CG        49.0490   10.8820   57.9120 C.3   229  ARG229      0.0489
    107  CD        47.8150   11.4890   58.4220 C.3   229  ARG229      0.2205
    108  NE        46.9750   10.6100   59.2330 N.pl3 229  ARG229     -0.0865
    109  CZ        45.8720   11.0500   59.8300 C.cat 229  ARG229      0.5346
    110  NH1       45.5020   12.3320   59.7020 N.pl3 229  ARG229      0.1354
    111  NH2       45.1400   10.2350   60.5510 N.pl3 229  ARG229      0.1354
    112  N         33.2310   12.3430   42.9610 N.3   290  HIS290     -0.1241
    113  CA        32.4310   13.5730   42.9020 C.3   290  HIS290      0.1621
    114  C         30.9720   13.3700   42.4830 C.2   290  HIS290      0.2264
    115  O         30.0690   13.9380   43.1140 O.2   290  HIS290     -0.2867
    116  CB        33.0750   14.6320   41.9910 C.3   290  HIS290      0.0745
    117  CG        32.2970   15.9160   41.9150 C.ar  290  HIS290      0.0817
    118  ND1       32.2180   16.8040   42.9660 N.ar  290  HIS290     -0.2268
    119  CD2       31.5550   16.4530   40.9150 C.ar  290  HIS290      0.1154
    120  CE1       31.4750   17.8380   42.6160 C.ar  290  HIS290      0.1986
    121  NE2       31.0550   17.6470   41.3780 N.ar  290  HIS290     -0.2212
    122  N         29.3160   11.5230   45.1680 N.3   293  ASN293     -0.1240
    123  CA        29.2170   12.5160   46.2670 C.3   293  ASN293      0.1653
    124  C         28.0890   13.5280   46.0640 C.2   293  ASN293      0.2266
    125  O         27.3780   13.8610   47.0030 O.2   293  ASN293     -0.2867
    126  CB        30.5420   13.2610   46.5140 C.3   293  ASN293      0.1155
    127  CG        31.7080   12.3280   46.7970 C.2   293  ASN293      0.2627
    128  OD1       31.5250   11.1630   47.1380 O.2   293  ASN293     -0.2716
    129  ND2       32.9190   12.8310   46.6000 N.am  293  ASN293     -0.0877
@<TRIPOS>BOND
     1   119   121   ar
     2   119   117   ar
     3   121   120   ar
     4   117   116    1
     5   117   118   ar
     6   116   113    1
     7   114   113    1
     8   114   115    2
     9   120   118   ar
    10   113   112    1
    11   122   123    1
    12   124   123    1
    13   124   125    2
    14   123   126    1
    15   126   127    1
    16   129   127   am
    17   127   128    2
    18    73    72    2
    19    67    68    1
    20    64    62   ar
    21    64    66   ar
    22    72    74   am
    23    72    71    1
    24    62    61   ar
    25    59    58    2
    26    66    65   ar
    27    68    71    1
    28    68    69    1
    29    61    60    1
    30    61    63   ar
    31    50    49    2
    32    65    63   ar
    33    57    60    1
    34    57    58    1
    35    57    56    1
    36    69    75   am
    37    69    70    2
    38    49    56   am
    39    49    48    1
    40    52    51    1
    41    52    53    1
    42    75    76    1
    43    79    76    1
    44    79    80    1
    45    55    53   ar
    46    51    48    1
    47    81    80   ar
    48    53    54   ar
    49    76    77    1
    50    80    82   ar
    51    48    47    1
    52    47    43   am
    53    77    78    2
    54    77    83   am
    55    46    45    1
    56    44    43    2
    57    83    84    1
    58    88    87    1
    59    43    42    1
    60    45    42    1
    61    98    97    1
    62    98    99    2
    63    84    87    1
    64    84    85    1
    65    42    41    1
    66    97    96    1
    67    97   100    1
    68   101   102    1
    69    96    91   am
    70    24    23    1
    71    89    85   am
    72    89    90    1
    73    85    86    2
    74    41    35   am
    75    95    93    1
    76   102   103    1
    77   102   105    1
    78    91    90    1
    79    91    92    2
    80   103   104    2
    81    36    35    2
    82    23    20    1
    83    90    93    1
    84    35    34    1
    85   105   106    1
    86    32    31    1
    87    93    94    1
    88   106   107    1
    89    19    20    1
    90    20    21    1
    91    30    31    1
    92    30    29    1
    93   107   108    1
    94    27    28    2
    95    27    26    1
    96    22    21    2
    97    34    33    1
    98    34    37    1
    99    21    25   am
   100    25    26    1
   101   108   109    2
   102    26    29    1
   103    37    38    1
   104   110   109    1
   105   109   111    1
   106    38    40    1
   107    38    39    1
   108    17    18   ar
   109    17    15   ar
   110    18    16   ar
   111     2     1    1
   112     2     3    1
   113    15    12   ar
   114    16    14   ar
   115     4     3    2
   116     3     5   am
   117    14    12   ar
   118    14    13   ar
   119    12    10   ar
   120     5     6    1
   121    13    11   ar
   122    10     9    1
   123    10    11   ar
   124     9     6    1
   125     6     7    1
   126     7     8    2
