@<TRIPOS>MOLECULE
tmp/3mmbD00.pdb
 119 115 0 0 0
SMALL
GASTEIGER

@<TRIPOS>ATOM
      1  N         70.0230   17.5720    4.5630 N.3    57  ARG57      -0.1245
      2  CA        70.9190   18.2630    5.5120 C.3    57  ARG57       0.1563
      3  C         72.3690   18.2870    5.0060 C.2    57  ARG57       0.2260
      4  O         72.8480   19.3310    4.5550 O.2    57  ARG57      -0.2867
      5  CB        70.8000   17.6810    6.9320 C.3    57  ARG57       0.0307
      6  CG        71.0330   18.6790    8.0690 C.3    57  ARG57       0.0489
      7  CD        71.1900   17.9410    9.4050 C.3    57  ARG57       0.2205
      8  NE        72.3770   17.0830    9.3880 N.pl3  57  ARG57      -0.0865
      9  CZ        73.4080   17.1900   10.2200 C.cat  57  ARG57       0.5346
     10  NH1       73.4060   18.1110   11.1840 N.pl3  57  ARG57       0.1354
     11  NH2       74.4390   16.3590   10.0900 N.pl3  57  ARG57       0.1354
     12  N         71.9450   14.5630   13.0500 N.3   131  THR131     -0.1203
     13  CA        73.3770   14.9090   13.1040 C.3   131  THR131      0.1994
     14  C         74.3070   13.7880   12.6430 C.2   131  THR131      0.2617
     15  O         73.9130   12.6280   12.5550 O.2   131  THR131     -0.2717
     16  CB        73.8210   15.1800   14.5360 C.3   131  THR131      0.1784
     17  OG1       73.4620   14.0490   15.3310 O.3   131  THR131     -0.2211
     18  CG2       73.1810   16.4400   15.0910 C.3   131  THR131      0.0376
     19  N         75.5730   14.1570   12.4720 N.am  132  GLN132     -0.1979
     20  CA        76.6200   13.3300   11.8660 C.3   132  GLN132      0.1601
     21  C         76.5350   11.7970   12.0220 C.2   132  GLN132      0.2287
     22  O         76.7950   11.0770   11.0560 O.2   132  GLN132     -0.2864
     23  CB        78.0040   13.8830   12.2410 C.3   132  GLN132      0.0394
     24  CG        78.1570   15.3810   11.9220 C.3   132  GLN132      0.0908
     25  CD        79.5760   15.9040   12.0850 C.2   132  GLN132      0.2608
     26  OE1       80.3640   15.8960   11.1340 O.2   132  GLN132     -0.2717
     27  NE2       79.9020   16.3910   13.2830 N.am  132  GLN132     -0.0878
     28  N         80.4670   10.6420   11.2040 N.3   136  HIS136     -0.1226
     29  CA        81.5370   11.4310   11.8220 C.3   136  HIS136      0.1752
     30  C         81.5770   11.3800   13.3640 C.2   136  HIS136      0.2596
     31  O         82.4630   11.9830   13.9820 O.2   136  HIS136     -0.2718
     32  CB        81.4470   12.8860   11.3330 C.3   136  HIS136      0.0759
     33  CG        82.6900   13.6910   11.5630 C.ar  136  HIS136      0.0818
     34  ND1       82.9040   14.4170   12.7170 N.ar  136  HIS136     -0.2268
     35  CD2       83.7830   13.8870   10.7880 C.ar  136  HIS136      0.1154
     36  CE1       84.0760   15.0230   12.6390 C.ar  136  HIS136      0.1986
     37  NE2       84.6270   14.7230   11.4760 N.ar  136  HIS136     -0.2212
     38  N         80.6400   10.6630   13.9870 N.am  137  CYS137     -0.1956
     39  CA        80.5790   10.6320   15.4510 C.3   137  CYS137      0.1843
     40  C         81.1640    9.3630   16.0660 C.2   137  CYS137      0.2625
     41  O         80.9070    8.2580   15.5820 O.2   137  CYS137     -0.2714
     42  CB        79.1550   10.8790   15.9570 C.3   137  CYS137      0.0997
     43  SG        79.1060   12.0430   17.3150 S.3   137  CYS137     -0.0797
     44  N         81.9520    9.5450   17.1290 N.am  138  HIS138     -0.1959
     45  CA        82.6350    8.4570   17.8340 C.3   138  HIS138      0.1787
     46  C         81.7740    7.8920   18.9640 C.2   138  HIS138      0.2620
     47  O         82.0990    6.8640   19.5520 O.2   138  HIS138     -0.2715
     48  CB        83.9980    8.9340   18.3700 C.3   138  HIS138      0.0785
     49  CG        83.9120   10.0680   19.3480 C.ar  138  HIS138      0.0821
     50  ND1       83.5720   11.3510   18.9770 N.ar  138  HIS138     -0.2267
     51  CD2       84.1270   10.1100   20.6870 C.ar  138  HIS138      0.1154
     52  CE1       83.5690   12.1320   20.0460 C.ar  138  HIS138      0.1986
     53  NE2       83.9070   11.4050   21.0950 N.ar  138  HIS138     -0.2212
     54  N         80.6750    8.5700   19.2740 N.am  139  THR139     -0.1951
     55  CA        79.7570    8.0810   20.2880 C.3   139  THR139      0.1897
     56  C         78.3310    7.9980   19.7410 C.2   139  THR139      0.2313
     57  O         77.4400    8.6870   20.2330 O.2   139  THR139     -0.2863
     58  CB        79.7610    8.9800   21.5390 C.3   139  THR139      0.1794
     59  OG1       79.4260   10.3210   21.1630 O.3   139  THR139     -0.2208
     60  CG2       81.1160    8.9700   22.2210 C.3   139  THR139      0.0378
     61  N         73.6010   11.6550   24.6170 N.3   177  ASN177     -0.1225
     62  CA        74.0840   13.0390   24.6450 C.3   177  ASN177      0.1785
     63  C         72.9500   13.9450   24.1810 C.2   177  ASN177      0.2597
     64  O         72.8360   15.0950   24.6200 O.2   177  ASN177     -0.2718
     65  CB        75.2960   13.2280   23.7240 C.3   177  ASN177      0.1169
     66  CG        76.6170   12.7820   24.3600 C.2   177  ASN177      0.2627
     67  OD1       77.6780   12.9030   23.7430 O.2   177  ASN177     -0.2716
     68  ND2       76.5590   12.2650   25.5760 N.am  177  ASN177     -0.0877
     69  N         72.1100   13.3960   23.2980 N.am  178  MET178     -0.1965
     70  CA        70.8700   14.0270   22.8380 C.3   178  MET178      0.1736
     71  C         71.0740   15.4040   22.2430 C.2   178  MET178      0.2617
     72  O         70.4620   16.3700   22.7020 O.2   178  MET178     -0.2715
     73  CB        69.8140   14.0820   23.9530 C.3   178  MET178      0.0427
     74  CG        68.9660   12.8460   24.0580 C.3   178  MET178      0.0599
     75  SD        67.5850   13.0630   25.1930 S.3   178  MET178     -0.1393
     76  CE        67.1490   11.3720   25.4450 C.3   178  MET178      0.0692
     77  N         71.9340   15.4840   21.2280 N.am  179  CYS179     -0.1954
     78  CA        72.1820   16.7310   20.5000 C.3   179  CYS179      0.1843
     79  C         70.9290   17.1620   19.7410 C.2   179  CYS179      0.2626
     80  O         70.4150   16.4220   18.8980 O.2   179  CYS179     -0.2714
     81  CB        73.3650   16.5840   19.5330 C.3   179  CYS179      0.0997
     82  SG        74.9310   16.0600   20.2880 S.3   179  CYS179     -0.0797
     83  N         70.4400   18.3590   20.0530 N.am  180  GLY180     -0.1954
     84  CA        69.2060   18.8680   19.4580 C.3   180  GLY180      0.1869
     85  C         68.0010   18.6930   20.3710 C.2   180  GLY180      0.2309
     86  O         68.1330   18.2220   21.5000 O.2   180  GLY180     -0.2863
     87  N         65.0890   15.8950   23.3400 N.3   183  HIS183     -0.1241
     88  CA        64.5140   15.8620   24.6890 C.3   183  HIS183      0.1621
     89  C         63.1160   16.5060   24.7350 C.2   183  HIS183      0.2264
     90  O         62.3530   16.2850   25.6800 O.2   183  HIS183     -0.2867
     91  CB        65.4710   16.5180   25.6990 C.3   183  HIS183      0.0745
     92  CG        66.0790   17.8010   25.2160 C.ar  183  HIS183      0.0817
     93  ND1       66.8340   17.8830   24.0600 N.ar  183  HIS183     -0.2268
     94  CD2       66.0420   19.0540   25.7330 C.ar  183  HIS183      0.1154
     95  CE1       67.2260   19.1310   23.8830 C.ar  183  HIS183      0.1986
     96  NE2       66.7590   19.8610   24.8810 N.ar  183  HIS183     -0.2212
     97  N         78.4780    7.9830   28.8960 N.3   243  ASN243     -0.1240
     98  CA        79.1100    9.2570   29.2470 C.3   243  ASN243      0.1653
     99  C         80.5960    9.1130   29.5690 C.2   243  ASN243      0.2266
    100  O         81.3990    9.9800   29.2350 O.2   243  ASN243     -0.2867
    101  CB        78.3820    9.9220   30.4150 C.3   243  ASN243      0.1155
    102  CG        78.6850   11.4030   30.5200 C.2   243  ASN243      0.2627
    103  OD1       79.3040   11.9840   29.6330 O.2   243  ASN243     -0.2716
    104  ND2       78.2410   12.0260   31.6040 N.am  243  ASN243     -0.0877
    105  N         82.4940    9.1020   26.5620 N.3   246  THR246     -0.1203
    106  CA        82.6940   10.4890   26.1120 C.3   246  THR246      0.1994
    107  C         83.8880   11.1260   26.8380 C.2   246  THR246      0.2617
    108  O         84.6080   11.9550   26.2820 O.2   246  THR246     -0.2717
    109  CB        81.4040   11.3160   26.3260 C.3   246  THR246      0.1784
    110  OG1       80.3630   10.7870   25.4990 O.3   246  THR246     -0.2211
    111  CG2       81.6050   12.7940   25.9910 C.3   246  THR246      0.0376
    112  N         84.0960   10.7020   28.0800 N.am  247  MET247     -0.1979
    113  CA        85.1900   11.1760   28.9140 C.3   247  MET247      0.1605
    114  C         86.5380   10.5560   28.5730 C.2   247  MET247      0.2287
    115  O         87.5370   11.2640   28.4760 O.2   247  MET247     -0.2864
    116  CB        84.8870   10.8780   30.3830 C.3   247  MET247      0.0413
    117  CG        83.7890   11.7290   30.9700 C.3   247  MET247      0.0598
    118  SD        84.0840   13.4740   30.6460 S.3   247  MET247     -0.1393
    119  CE        85.4740   13.8230   31.7200 C.3   247  MET247      0.0692
@<TRIPOS>BOND
     1     4     3    2
     2     1     2    1
     3     3     2    1
     4     2     5    1
     5     5     6    1
     6     6     7    1
     7     8     7    1
     8     8     9    2
     9    11     9    1
    10     9    10    1
    11    35    37   ar
    12    35    33   ar
    13    22    21    2
    14    26    25    2
    15    28    29    1
    16    32    33    1
    17    32    29    1
    18    37    36   ar
    19    33    34   ar
    20    29    30    1
    21    20    21    1
    22    20    23    1
    23    20    19    1
    24    24    25    1
    25    24    23    1
    26    25    27   am
    27    19    14   am
    28    15    14    2
    29    36    34   ar
    30    14    13    1
    31    12    13    1
    32    13    16    1
    33    30    31    2
    34    30    38   am
    35    38    39    1
    36    16    18    1
    37    16    17    1
    38    39    42    1
    39    39    40    1
    40    41    40    2
    41    42    43    1
    42    40    44   am
    43    44    45    1
    44    45    48    1
    45    45    46    1
    46    48    49    1
    47    80    79    2
    48    46    54   am
    49    46    47    2
    50    50    49   ar
    51    50    52   ar
    52    54    55    1
    53    49    51   ar
    54    84    83    1
    55    84    85    1
    56    81    82    1
    57    81    78    1
    58    79    83   am
    59    79    78    1
    60    56    57    2
    61    56    55    1
    62    52    53   ar
    63    55    58    1
    64    85    86    2
    65    78    77    1
    66    51    53   ar
    67    59    58    1
    68    77    71   am
    69    58    60    1
    70    71    72    2
    71    71    70    1
    72    70    69    1
    73    70    73    1
    74    69    63   am
    75    87    88    1
    76    65    66    1
    77    65    62    1
    78    67    66    2
    79    95    93   ar
    80    95    96   ar
    81    73    74    1
    82    74    75    1
    83    93    92   ar
    84    63    64    2
    85    63    62    1
    86    66    68   am
    87    61    62    1
    88    88    89    1
    89    88    91    1
    90    89    90    2
    91    96    94   ar
    92    75    76    1
    93    92    91    1
    94    92    94   ar
    95   110   109    1
    96   111   109    1
    97   106   109    1
    98   106   105    1
    99   106   107    1
   100   108   107    2
   101   107   112   am
   102   112   113    1
   103   115   114    2
   104   114   113    1
   105    97    98    1
   106   113   116    1
   107   100    99    2
   108    98    99    1
   109    98   101    1
   110   103   102    2
   111   116   117    1
   112   101   102    1
   113   102   104   am
   114   118   117    1
   115   118   119    1
