@<TRIPOS>MOLECULE
tmp/3mmcC01.pdb
 115 112 0 0 0
SMALL
GASTEIGER

@<TRIPOS>ATOM
      1  N         70.5920   32.6600    9.6550 N.3   105  TRP105     -0.1241
      2  CA        71.1160   31.9050    8.5020 C.3   105  TRP105      0.1605
      3  C         70.7700   32.4980    7.1320 C.2   105  TRP105      0.2264
      4  O         70.6020   31.7530    6.1690 O.2   105  TRP105     -0.2867
      5  CB        70.7090   30.4210    8.5450 C.3   105  TRP105      0.0550
      6  CG        71.0110   29.7280    9.8450 C.ar  105  TRP105      0.0003
      7  CD1       72.1740   29.0990   10.1930 C.ar  105  TRP105      0.0946
      8  CD2       70.1300   29.5890   10.9590 C.ar  105  TRP105      0.0152
      9  NE1       72.0730   28.5810   11.4580 N.ar  105  TRP105     -0.2442
     10  CE2       70.8280   28.8680   11.9550 C.ar  105  TRP105      0.0810
     11  CE3       68.8170   30.0080   11.2170 C.ar  105  TRP105      0.0012
     12  CZ2       70.2570   28.5560   13.1960 C.ar  105  TRP105      0.0191
     13  CZ3       68.2460   29.6970   12.4510 C.ar  105  TRP105      0.0001
     14  CH2       68.9680   28.9780   13.4250 C.ar  105  TRP105      0.0015
     15  N         66.2050   33.1780   15.8620 N.3   175  CYS175     -0.1221
     16  CA        65.1110   32.8050   14.9750 C.3   175  CYS175      0.1808
     17  C         65.1980   33.7500   13.7920 C.2   175  CYS175      0.2601
     18  O         66.2520   34.3400   13.5700 O.2   175  CYS175     -0.2717
     19  CB        63.7530   32.8790   15.6810 C.3   175  CYS175      0.0970
     20  SG        63.0730   34.5360   15.9220 S.3   175  CYS175     -0.0800
     21  N         64.1310   33.9000   13.0200 N.am  176  MET176     -0.1979
     22  CA        64.2170   34.8230   11.8630 C.3   176  MET176      0.1605
     23  C         63.7690   36.2210   12.2780 C.2   176  MET176      0.2287
     24  O         64.0320   37.1930   11.5640 O.2   176  MET176     -0.2864
     25  CB        63.4440   34.3050   10.6440 C.3   176  MET176      0.0413
     26  CG        61.9320   34.3270   10.7960 C.3   176  MET176      0.0598
     27  SD        61.1000   33.3150    9.5550 S.3   176  MET176     -0.1393
     28  CE        59.4230   33.9240    9.7340 C.3   176  MET176      0.0692
     29  N         61.4860   38.3830    8.5740 N.3   180  LEU180     -0.1231
     30  CA        60.3140   37.8040    7.9360 C.3   180  LEU180      0.1693
     31  C         59.0570   37.7680    8.8090 C.2   180  LEU180      0.2592
     32  O         57.9500   37.6640    8.2880 O.2   180  LEU180     -0.2718
     33  CB        60.6420   36.3790    7.4850 C.3   180  LEU180      0.0284
     34  CG        61.6420   36.2620    6.3300 C.3   180  LEU180      0.0019
     35  CD1       62.0800   34.8220    6.1300 C.3   180  LEU180      0.0001
     36  CD2       61.0360   36.8240    5.0660 C.3   180  LEU180      0.0001
     37  N         59.2210   37.8450   10.1300 N.am  181  CYS181     -0.1956
     38  CA        58.1300   37.4890   11.0420 C.3   181  CYS181      0.1843
     39  C         57.3680   38.6580   11.6640 C.2   181  CYS181      0.2625
     40  O         57.9820   39.5350   12.2770 O.2   181  CYS181     -0.2714
     41  CB        58.6580   36.6100   12.1740 C.3   181  CYS181      0.0997
     42  SG        57.3730   35.5870   12.7750 S.3   181  CYS181     -0.0797
     43  N         56.0350   38.6480   11.5500 N.am  182  GLU182     -0.1963
     44  CA        55.2150   39.7300   12.1190 C.3   182  GLU182      0.1733
     45  C         54.9810   39.5720   13.6250 C.2   182  GLU182      0.2616
     46  O         54.2920   40.3890   14.2440 O.2   182  GLU182     -0.2715
     47  CB        53.8830   39.8800   11.3760 C.3   182  GLU182      0.0429
     48  CG        52.7720   38.9100   11.7590 C.3   182  GLU182      0.1163
     49  CD        52.7420   37.6440   10.9130 C.2   182  GLU182      0.3649
     50  OE1       53.8320   37.1330   10.5610 O.co2 182  GLU182     -0.2457
     51  OE2       51.6220   37.1560   10.6090 O.co2 182  GLU182     -0.2457
     52  N         55.5710   38.5270   14.1940 N.am  183  PHE183     -0.1974
     53  CA        55.3320   38.1150   15.5940 C.3   183  PHE183      0.1639
     54  C         56.4220   38.5650   16.5840 C.2   183  PHE183      0.2290
     55  O         56.3060   38.3700   17.8190 O.2   183  PHE183     -0.2864
     56  CB        55.2330   36.5860   15.6260 C.3   183  PHE183      0.0560
     57  CG        53.8730   36.0370   15.2600 C.ar  183  PHE183     -0.0200
     58  CD1       52.8490   36.8710   14.7960 C.ar  183  PHE183     -0.0042
     59  CD2       53.6220   34.6680   15.3730 C.ar  183  PHE183     -0.0042
     60  CE1       51.5910   36.3500   14.4570 C.ar  183  PHE183     -0.0003
     61  CE2       52.3700   34.1350   15.0270 C.ar  183  PHE183     -0.0003
     62  CZ        51.3510   34.9830   14.5590 C.ar  183  PHE183     -0.0000
     63  N         56.7720   31.4970   20.7830 N.3   221  ASN221     -0.1225
     64  CA        56.7540   30.2650   19.9770 C.3   221  ASN221      0.1785
     65  C         58.0970   29.5040   19.9790 C.2   221  ASN221      0.2597
     66  O         58.1220   28.2840   19.7770 O.2   221  ASN221     -0.2718
     67  CB        56.2720   30.5550   18.5560 C.3   221  ASN221      0.1169
     68  CG        54.7940   30.9040   18.5020 C.2   221  ASN221      0.2627
     69  OD1       53.9850   30.3750   19.2740 O.2   221  ASN221     -0.2716
     70  ND2       54.4340   31.8030   17.5850 N.am  221  ASN221     -0.0877
     71  N         59.1940   30.2370   20.2100 N.am  222  ASP222     -0.1960
     72  CA        60.5390   29.6780   20.4810 C.3   222  ASP222      0.1840
     73  C         61.0410   28.8000   19.3380 C.2   222  ASP222      0.2622
     74  O         61.3140   27.6060   19.5030 O.2   222  ASP222     -0.2715
     75  CB        60.5850   28.9420   21.8370 C.3   222  ASP222      0.1450
     76  CG        62.0030   28.8220   22.4130 C.2   222  ASP222      0.3671
     77  OD1       62.1560   28.3890   23.5940 O.co2 222  ASP222     -0.2456
     78  OD2       62.9660   29.1630   21.7110 O.co2 222  ASP222     -0.2456
     79  N         61.1690   29.4310   18.1770 N.am  223  CYS223     -0.1954
     80  CA        61.4630   28.7480   16.9320 C.3   223  CYS223      0.1843
     81  C         62.9310   28.3250   16.7850 C.2   223  CYS223      0.2625
     82  O         63.2900   27.6230   15.8330 O.2   223  CYS223     -0.2714
     83  CB        61.0220   29.6260   15.7550 C.3   223  CYS223      0.0997
     84  SG        59.2170   29.7730   15.6260 S.3   223  CYS223     -0.0797
     85  N         63.7810   28.7670   17.7130 N.am  224  VAL224     -0.1963
     86  CA        65.1550   28.2540   17.7840 C.3   224  VAL224      0.1727
     87  C         65.3520   27.3750   19.0050 C.2   224  VAL224      0.2616
     88  O         66.4920   27.1350   19.4210 O.2   224  VAL224     -0.2715
     89  CB        66.2420   29.3530   17.7570 C.3   224  VAL224      0.0290
     90  CG1       66.5740   29.6990   16.3330 C.3   224  VAL224      0.0023
     91  CG2       65.8300   30.5770   18.5730 C.3   224  VAL224      0.0023
     92  N         64.2390   26.9100   19.5750 N.am  225  ALA225     -0.1977
     93  CA        64.2630   25.9550   20.6740 C.3   225  ALA225      0.1597
     94  C         65.1680   26.4170   21.8280 C.2   225  ALA225      0.2287
     95  O         65.8010   25.5990   22.5060 O.2   225  ALA225     -0.2864
     96  CB        64.6900   24.5710   20.1490 C.3   225  ALA225      0.0319
     97  N         67.8900   24.3030   24.3740 N.3   229  ARG229     -0.1245
     98  CA        69.1680   24.1970   23.6910 C.3   229  ARG229      0.1563
     99  C         70.1590   25.3330   23.9900 C.2   229  ARG229      0.2260
    100  O         71.1760   25.4810   23.2930 O.2   229  ARG229     -0.2867
    101  CB        68.9250   24.0820   22.1800 C.3   229  ARG229      0.0307
    102  CG        68.6350   22.6670   21.7030 C.3   229  ARG229      0.0489
    103  CD        68.0030   22.6320   20.3030 C.3   229  ARG229      0.2205
    104  NE        68.5320   23.6390   19.3770 N.pl3 229  ARG229     -0.0865
    105  CZ        68.1910   23.7520   18.0910 C.cat 229  ARG229      0.5346
    106  NH1       67.3200   22.9140   17.5360 N.pl3 229  ARG229      0.1354
    107  NH2       68.7210   24.7120   17.3500 N.pl3 229  ARG229      0.1354
    108  N         48.5620   33.0760   16.9100 N.3   293  ASN293     -0.1240
    109  CA        48.9090   32.0360   15.9210 C.3   293  ASN293      0.1653
    110  C         47.7210   31.6920   15.0090 C.2   293  ASN293      0.2266
    111  O         47.8810   31.4840   13.7930 O.2   293  ASN293     -0.2867
    112  CB        49.4290   30.7500   16.5800 C.3   293  ASN293      0.1155
    113  CG        50.7440   30.9420   17.3330 C.2   293  ASN293      0.2627
    114  OD1       51.6020   31.7280   16.9330 O.2   293  ASN293     -0.2716
    115  ND2       50.9050   30.2000   18.4380 N.am  293  ASN293     -0.0877
@<TRIPOS>BOND
     1    36    34    1
     2    35    34    1
     3     4     3    2
     4    34    33    1
     5     3     2    1
     6    33    30    1
     7    30    29    1
     8    30    31    1
     9    32    31    2
    10     2     5    1
    11     2     1    1
    12     5     6    1
    13    31    37   am
    14    27    28    1
    15    27    26    1
    16     6     7   ar
    17     6     8   ar
    18    37    38    1
    19     7     9   ar
    20    50    49   ar
    21    51    49   ar
    22    25    26    1
    23    25    22    1
    24    49    48    1
    25     8    11   ar
    26     8    10   ar
    27    38    39    1
    28    38    41    1
    29    11    13   ar
    30    47    48    1
    31    47    44    1
    32     9    10   ar
    33    43    39   am
    34    43    44    1
    35    24    23    2
    36    39    40    2
    37    22    23    1
    38    22    21    1
    39    10    12   ar
    40    44    45    1
    41    41    42    1
    42    13    14   ar
    43    21    17   am
    44    12    14   ar
    45    18    17    2
    46    45    52   am
    47    45    46    2
    48    17    16    1
    49   111   110    2
    50    52    53    1
    51    60    62   ar
    52    60    58   ar
    53    62    61   ar
    54    58    57   ar
    55    16    19    1
    56    16    15    1
    57   110   109    1
    58    61    59   ar
    59    57    59   ar
    60    57    56    1
    61    53    56    1
    62    53    54    1
    63    84    83    1
    64    19    20    1
    65    83    80    1
    66    82    81    2
    67   109   112    1
    68   109   108    1
    69    90    89    1
    70   112   113    1
    71    54    55    2
    72    81    80    1
    73    81    85   am
    74    80    79    1
    75   114   113    2
    76   113   115   am
    77   107   105    1
    78   106   105    1
    79    70    68   am
    80    85    86    1
    81    89    86    1
    82    89    91    1
    83    86    87    1
    84   105   104    2
    85    79    73   am
    86    68    67    1
    87    68    69    2
    88    67    64    1
    89    87    88    2
    90    87    92   am
    91    73    74    2
    92    73    72    1
    93   104   103    1
    94    92    93    1
    95    66    65    2
    96    64    65    1
    97    64    63    1
    98    65    71   am
    99    96    93    1
   100    71    72    1
   101   103   102    1
   102    72    75    1
   103    93    94    1
   104   102   101    1
   105    78    76   ar
   106    94    95    2
   107    75    76    1
   108   101    98    1
   109    76    77   ar
   110   100    99    2
   111    98    99    1
   112    98    97    1
