@<TRIPOS>MOLECULE
tmp/3mmdA01.pdb
 163 159 0 0 0
SMALL
GASTEIGER

@<TRIPOS>ATOM
      1  N         57.2320  -88.6690  -19.5650 N.3    27  GLU27      -0.1245
      2  CA        57.4730  -87.8780  -18.3550 C.3    27  GLU27       0.1567
      3  C         56.1050  -87.8370  -17.7000 C.2    27  GLU27       0.2260
      4  O         55.0840  -87.8360  -18.3800 O.2    27  GLU27      -0.2867
      5  CB        57.9090  -86.4470  -18.6880 C.3    27  GLU27       0.0388
      6  CG        59.3360  -86.3530  -19.1950 C.3    27  GLU27       0.1160
      7  CD        60.3710  -86.3680  -18.0790 C.2    27  GLU27       0.3649
      8  OE1       60.1360  -86.9730  -17.0090 O.co2  27  GLU27      -0.2457
      9  OE2       61.4430  -85.7790  -18.2970 O.co2  27  GLU27      -0.2457
     10  N         61.3050  -91.6310  -19.0990 N.3    50  GLU50      -0.1231
     11  CA        62.3890  -90.9210  -19.7320 C.3    50  GLU50       0.1699
     12  C         63.4120  -90.5000  -18.6970 C.2    50  GLU50       0.2592
     13  O         64.6150  -90.4980  -18.9740 O.2    50  GLU50      -0.2718
     14  CB        61.8650  -89.6740  -20.4750 C.3    50  GLU50       0.0402
     15  CG        62.9650  -88.9470  -21.2470 C.3    50  GLU50       0.1161
     16  CD        62.4940  -87.6950  -21.9780 C.2    50  GLU50       0.3649
     17  OE1       61.3420  -87.2680  -21.7860 O.co2  50  GLU50      -0.2457
     18  OE2       63.3010  -87.1340  -22.7450 O.co2  50  GLU50      -0.2457
     19  N         62.9410  -90.1840  -17.4910 N.am   51  ASN51      -0.1974
     20  CA        63.8450  -89.7070  -16.4530 C.3    51  ASN51       0.1688
     21  C         63.5450  -90.0900  -15.0160 C.2    51  ASN51       0.2292
     22  O         64.4700  -90.2810  -14.2320 O.2    51  ASN51      -0.2864
     23  CB        63.8930  -88.1740  -16.4920 C.3    51  ASN51       0.1181
     24  CG        64.7430  -87.6400  -17.6080 C.2    51  ASN51       0.2629
     25  OD1       65.9540  -87.8580  -17.6400 O.2    51  ASN51      -0.2716
     26  ND2       64.1200  -86.9110  -18.5270 N.am   51  ASN51      -0.0877
     27  N         65.5240  -93.0120  -13.0340 N.3    54  LYS54      -0.1245
     28  CA        66.9870  -93.0140  -13.0100 C.3    54  LYS54       0.1561
     29  C         67.4130  -92.9290  -11.5510 C.2    54  LYS54       0.2260
     30  O         66.6290  -92.4970  -10.7050 O.2    54  LYS54      -0.2867
     31  CB        67.5320  -91.8430  -13.8140 C.3    54  LYS54       0.0271
     32  CG        67.3840  -92.1040  -15.3050 C.3    54  LYS54       0.0035
     33  CD        67.7350  -90.8990  -16.1700 C.3    54  LYS54       0.0206
     34  CE        67.5110  -91.2660  -17.6430 C.3    54  LYS54       0.1093
     35  NZ        67.6090  -90.0940  -18.5730 N.3    54  LYS54      -0.1314
     36  N         64.0360  -97.9590  -16.5740 N.3    87  HIS87      -0.1241
     37  CA        65.2500  -97.2720  -16.9960 C.3    87  HIS87       0.1621
     38  C         65.6490  -96.2750  -15.9140 C.2    87  HIS87       0.2264
     39  O         64.9460  -95.2860  -15.7320 O.2    87  HIS87      -0.2867
     40  CB        64.9710  -96.5300  -18.3100 C.3    87  HIS87       0.0745
     41  CG        66.1580  -95.8060  -18.8560 C.ar   87  HIS87       0.0817
     42  ND1       67.2260  -96.4590  -19.4300 N.ar   87  HIS87      -0.2268
     43  CD2       66.4720  -94.4890  -18.8670 C.ar   87  HIS87       0.1154
     44  CE1       68.1500  -95.5770  -19.7680 C.ar   87  HIS87       0.1986
     45  NE2       67.7180  -94.3750  -19.4370 N.ar   87  HIS87      -0.2212
     46  N         73.8890  -96.2270  -13.7930 N.3    91  TRP91      -0.1241
     47  CA        74.3850  -95.3790  -14.8790 C.3    91  TRP91       0.1605
     48  C         75.3770  -94.3750  -14.2700 C.2    91  TRP91       0.2264
     49  O         75.3080  -94.0940  -13.0780 O.2    91  TRP91      -0.2867
     50  CB        73.2000  -94.6500  -15.5250 C.3    91  TRP91       0.0550
     51  CG        73.5000  -93.9240  -16.8090 C.ar   91  TRP91       0.0003
     52  CD1       74.4980  -94.2060  -17.7100 C.ar   91  TRP91       0.0946
     53  CD2       72.7550  -92.8310  -17.3680 C.ar   91  TRP91       0.0152
     54  NE1       74.4160  -93.3510  -18.7900 N.ar   91  TRP91      -0.2442
     55  CE2       73.3560  -92.5010  -18.6070 C.ar   91  TRP91       0.0810
     56  CE3       71.6340  -92.1000  -16.9440 C.ar   91  TRP91       0.0012
     57  CZ2       72.8730  -91.4680  -19.4270 C.ar   91  TRP91       0.0191
     58  CZ3       71.1500  -91.0640  -17.7680 C.ar   91  TRP91       0.0001
     59  CH2       71.7760  -90.7660  -18.9930 C.ar   91  TRP91       0.0015
     60  N         73.1370  -88.8140  -14.1110 N.3    94  GLN94      -0.1245
     61  CA        71.8900  -88.7500  -13.3530 C.3    94  GLN94       0.1566
     62  C         71.9340  -89.7830  -12.2150 C.2    94  GLN94       0.2260
     63  O         71.0080  -90.5690  -11.9880 O.2    94  GLN94      -0.2867
     64  CB        70.6850  -88.9390  -14.2920 C.3    94  GLN94       0.0367
     65  CG        70.3590  -87.6420  -15.0490 C.3    94  GLN94       0.0905
     66  CD        69.2430  -87.7790  -16.0680 C.2    94  GLN94       0.2608
     67  OE1       69.4630  -88.2280  -17.1980 O.2    94  GLN94      -0.2717
     68  NE2       68.0310  -87.3890  -15.6700 N.am   94  GLN94      -0.0878
     69  N         73.4570  -99.2430  -17.6460 N.3   150  ASN150     -0.1225
     70  CA        73.3770  -98.4190  -18.8450 C.3   150  ASN150      0.1785
     71  C         74.7560  -97.8250  -19.1520 C.2   150  ASN150      0.2597
     72  O         75.4270  -97.2990  -18.2570 O.2   150  ASN150     -0.2718
     73  CB        72.3460  -97.3010  -18.6000 C.3   150  ASN150      0.1169
     74  CG        71.9420  -96.5610  -19.8730 C.2   150  ASN150      0.2627
     75  OD1       71.7770  -97.1570  -20.9320 O.2   150  ASN150     -0.2716
     76  ND2       71.7540  -95.2560  -19.7550 N.am  150  ASN150     -0.0877
     77  N         75.1800  -97.9430  -20.4110 N.am  151  GLU151     -0.1979
     78  CA        76.4400  -97.3800  -20.8870 C.3   151  GLU151      0.1602
     79  C         77.7040  -97.7400  -20.1050 C.2   151  GLU151      0.2287
     80  O         78.5050  -96.8640  -19.7870 O.2   151  GLU151     -0.2864
     81  CB        76.2810  -95.8600  -20.9700 C.3   151  GLU151      0.0415
     82  CG        75.0750  -95.4550  -21.8210 C.3   151  GLU151      0.1163
     83  CD        74.8840  -93.9530  -21.9500 C.2   151  GLU151      0.3649
     84  OE1       75.5850  -93.1880  -21.2470 O.co2 151  GLU151     -0.2457
     85  OE2       74.0160  -93.5380  -22.7560 O.co2 151  GLU151     -0.2457
     86  N         74.4820  -97.2220  -26.2430 N.3   195  TYR195     -0.1241
     87  CA        74.3260  -96.5460  -27.5330 C.3   195  TYR195      0.1605
     88  C         75.4970  -96.9450  -28.4210 C.2   195  TYR195      0.2264
     89  O         76.5080  -97.4430  -27.9270 O.2   195  TYR195     -0.2867
     90  CB        74.3140  -95.0270  -27.3610 C.3   195  TYR195      0.0534
     91  CG        75.6010  -94.4460  -26.8160 C.ar  195  TYR195     -0.0201
     92  CD1       75.8290  -94.3660  -25.4350 C.ar  195  TYR195     -0.0009
     93  CD2       76.5890  -93.9650  -27.6760 C.ar  195  TYR195     -0.0009
     94  CE1       77.0080  -93.8210  -24.9280 C.ar  195  TYR195      0.0417
     95  CE2       77.7700  -93.4170  -27.1820 C.ar  195  TYR195      0.0417
     96  CZ        77.9740  -93.3480  -25.8060 C.ar  195  TYR195      0.1957
     97  OH        79.1430  -92.8120  -25.3050 O.3   195  TYR195     -0.2866
     98  N         70.1110  -98.5880  -27.6830 N.3   226  GLN226     -0.1245
     99  CA        69.4840  -97.2780  -27.5790 C.3   226  GLN226      0.1566
    100  C         69.0110  -96.7580  -28.9230 C.2   226  GLN226      0.2260
    101  O         67.9580  -96.1360  -29.0250 O.2   226  GLN226     -0.2867
    102  CB        70.4460  -96.2720  -26.9530 C.3   226  GLN226      0.0367
    103  CG        70.6690  -96.4900  -25.4620 C.3   226  GLN226      0.0905
    104  CD        71.5650  -95.4200  -24.8760 C.2   226  GLN226      0.2608
    105  OE1       71.7630  -94.3750  -25.4860 O.2   226  GLN226     -0.2717
    106  NE2       72.0970  -95.6670  -23.6860 N.am  226  GLN226     -0.0878
    107  N         70.0890  -94.2320  -30.9550 N.3   228  HIS228     -0.1241
    108  CA        69.9390  -92.8120  -31.2100 C.3   228  HIS228      0.1621
    109  C         70.7040  -92.6990  -32.5140 C.2   228  HIS228      0.2264
    110  O         71.9210  -92.5210  -32.5330 O.2   228  HIS228     -0.2867
    111  CB        70.5720  -91.9870  -30.1080 C.3   228  HIS228      0.0745
    112  CG        69.7860  -92.0130  -28.8390 C.ar  228  HIS228      0.0817
    113  ND1       68.5030  -91.5140  -28.7530 N.ar  228  HIS228     -0.2268
    114  CD2       70.0740  -92.5280  -27.6220 C.ar  228  HIS228      0.1154
    115  CE1       68.0350  -91.7230  -27.5350 C.ar  228  HIS228      0.1986
    116  NE2       68.9660  -92.3380  -26.8300 N.ar  228  HIS228     -0.2212
    117  N         65.6580  -96.7450  -27.2340 N.3   257  GLU257     -0.1245
    118  CA        65.4940  -95.2860  -27.2000 C.3   257  GLU257      0.1567
    119  C         65.5670  -94.6950  -28.5940 C.2   257  GLU257      0.2260
    120  O         66.2210  -93.6780  -28.8410 O.2   257  GLU257     -0.2867
    121  CB        66.5900  -94.6720  -26.3250 C.3   257  GLU257      0.0388
    122  CG        66.7840  -95.3740  -24.9760 C.3   257  GLU257      0.1160
    123  CD        67.9010  -94.7560  -24.1540 C.2   257  GLU257      0.3649
    124  OE1       68.3780  -93.6810  -24.5430 O.co2 257  GLU257     -0.2457
    125  OE2       68.2980  -95.3390  -23.1160 O.co2 257  GLU257     -0.2457
    126  N         62.1480  -92.8810  -28.0780 N.3   308  TRP308     -0.1241
    127  CA        62.4980  -92.0550  -26.9260 C.3   308  TRP308      0.1605
    128  C         61.6640  -90.7890  -26.9400 C.2   308  TRP308      0.2264
    129  O         62.1920  -89.6730  -26.9470 O.2   308  TRP308     -0.2867
    130  CB        64.0000  -91.7040  -26.9340 C.3   308  TRP308      0.0550
    131  CG        64.5250  -91.4190  -25.5560 C.ar  308  TRP308      0.0003
    132  CD1       65.1040  -90.2620  -25.1150 C.ar  308  TRP308      0.0946
    133  CD2       64.4740  -92.3000  -24.4260 C.ar  308  TRP308      0.0152
    134  NE1       65.4120  -90.3660  -23.7730 N.ar  308  TRP308     -0.2442
    135  CE2       65.0330  -91.6060  -23.3280 C.ar  308  TRP308      0.0810
    136  CE3       64.0050  -93.6060  -24.2360 C.ar  308  TRP308      0.0012
    137  CZ2       65.1310  -92.1770  -22.0530 C.ar  308  TRP308      0.0191
    138  CZ3       64.1020  -94.1740  -22.9720 C.ar  308  TRP308      0.0001
    139  CH2       64.6580  -93.4570  -21.8970 C.ar  308  TRP308      0.0015
    140  N         58.2440  -82.8220  -28.2950 N.3   314  HIS314     -0.1241
    141  CA        59.0700  -83.0920  -27.1240 C.3   314  HIS314      0.1621
    142  C         60.0920  -84.1860  -27.3860 C.2   314  HIS314      0.2264
    143  O         59.7210  -85.3430  -27.5330 O.2   314  HIS314     -0.2867
    144  CB        58.2260  -83.5200  -25.9230 C.3   314  HIS314      0.0745
    145  CG        59.0490  -83.9280  -24.7390 C.ar  314  HIS314      0.0817
    146  ND1       59.3850  -83.0520  -23.7300 N.ar  314  HIS314     -0.2268
    147  CD2       59.6590  -85.1000  -24.4390 C.ar  314  HIS314      0.1154
    148  CE1       60.1670  -83.6660  -22.8590 C.ar  314  HIS314      0.1986
    149  NE2       60.3490  -84.9100  -23.2670 N.ar  314  HIS314     -0.2212
    150  N         64.4910  -85.0550  -26.3620 N.3   316  TRP316     -0.1241
    151  CA        65.7520  -84.6740  -25.7460 C.3   316  TRP316      0.1605
    152  C         66.7690  -84.2720  -26.8110 C.2   316  TRP316      0.2264
    153  O         67.7850  -83.6570  -26.5040 O.2   316  TRP316     -0.2867
    154  CB        66.3040  -85.8470  -24.9370 C.3   316  TRP316      0.0550
    155  CG        67.0260  -86.8690  -25.7680 C.ar  316  TRP316      0.0003
    156  CD1       66.4970  -87.6500  -26.7650 C.ar  316  TRP316      0.0946
    157  CD2       68.4180  -87.2040  -25.6940 C.ar  316  TRP316      0.0152
    158  NE1       67.4750  -88.4450  -27.3100 N.ar  316  TRP316     -0.2442
    159  CE2       68.6620  -88.1940  -26.6730 C.ar  316  TRP316      0.0810
    160  CE3       69.4840  -86.7620  -24.8950 C.ar  316  TRP316      0.0012
    161  CZ2       69.9260  -88.7560  -26.8750 C.ar  316  TRP316      0.0191
    162  CZ3       70.7520  -87.3250  -25.1000 C.ar  316  TRP316      0.0001
    163  CH2       70.9550  -88.3110  -26.0820 C.ar  316  TRP316      0.0015
@<TRIPOS>BOND
     1   110   109    2
     2   109   108    1
     3   108   107    1
     4   108   111    1
     5   111   112    1
     6   101   100    2
     7   100    99    1
     8   120   119    2
     9   112   113   ar
    10   112   114   ar
    11   113   115   ar
    12   119   118    1
    13    88    89    2
    14    88    87    1
    15   140   141    1
    16   126   127    1
    17    98    99    1
    18    93    95   ar
    19    93    91   ar
    20   114   116   ar
    21    99   102    1
    22   115   116   ar
    23   143   142    2
    24    87    90    1
    25    87    86    1
    26   142   141    1
    27    90    91    1
    28   158   156   ar
    29   158   159   ar
    30   117   118    1
    31   118   121    1
    32    95    96   ar
    33   141   144    1
    34   102   103    1
    35   129   128    2
    36   128   127    1
    37   130   127    1
    38   130   131    1
    39   161   159   ar
    40   161   163   ar
    41    91    92   ar
    42   152   153    2
    43   152   151    1
    44   156   155   ar
    45   159   157   ar
    46   150   151    1
    47   121   122    1
    48   163   162   ar
    49   144   145    1
    50    96    97    1
    51    96    94   ar
    52   155   157   ar
    53   155   154    1
    54   151   154    1
    55   157   160   ar
    56   131   132   ar
    57   131   133   ar
    58   105   104    2
    59   103   104    1
    60    92    94   ar
    61   132   134   ar
    62   162   160   ar
    63   122   123    1
    64   104   106   am
    65   145   147   ar
    66   145   146   ar
    67   124   123   ar
    68   147   149   ar
    69   133   136   ar
    70   133   135   ar
    71   136   138   ar
    72   123   125   ar
    73   134   135   ar
    74   146   148   ar
    75   135   137   ar
    76   149   148   ar
    77   138   139   ar
    78    85    83   ar
    79    18    16   ar
    80   137   139   ar
    81    16    17   ar
    82    16    15    1
    83    83    82    1
    84    83    84   ar
    85    82    81    1
    86    15    14    1
    87    81    78    1
    88    75    74    2
    89    78    77    1
    90    78    79    1
    91    14    11    1
    92    77    71   am
    93    79    80    2
    94    74    76   am
    95    74    73    1
    96    44    45   ar
    97    44    42   ar
    98    11    10    1
    99    11    12    1
   100     1     2    1
   101    45    43   ar
   102    42    41   ar
   103    57    59   ar
   104    57    55   ar
   105     6     5    1
   106     6     7    1
   107    71    70    1
   108    71    72    2
   109    59    58   ar
   110    13    12    2
   111    43    41   ar
   112    41    40    1
   113    70    73    1
   114    70    69    1
   115    54    55   ar
   116    54    52   ar
   117    12    19   am
   118     5     2    1
   119    55    53   ar
   120    35    34    1
   121    26    24   am
   122     4     3    2
   123     2     3    1
   124    40    37    1
   125     9     7   ar
   126     7     8   ar
   127    58    56   ar
   128    52    51   ar
   129    34    33    1
   130    25    24    2
   131    24    23    1
   132    19    20    1
   133    53    56   ar
   134    53    51   ar
   135    67    66    2
   136    37    36    1
   137    37    38    1
   138    51    50    1
   139    23    20    1
   140    20    21    1
   141    33    32    1
   142    66    68   am
   143    66    65    1
   144    38    39    2
   145    50    47    1
   146    32    31    1
   147    65    64    1
   148    21    22    2
   149    47    48    1
   150    47    46    1
   151    64    61    1
   152    48    49    2
   153    60    61    1
   154    31    28    1
   155    61    62    1
   156    27    28    1
   157    28    29    1
   158    62    63    2
   159    29    30    2
