@<TRIPOS>MOLECULE
tmp/3mmdA00.pdb
 128 127 0 0 0
SMALL
GASTEIGER

@<TRIPOS>ATOM
      1  N         73.8890  -96.2270  -13.7930 N.3    91  TRP91      -0.1227
      2  CA        74.3850  -95.3790  -14.8790 C.3    91  TRP91       0.1737
      3  C         75.3770  -94.3750  -14.2700 C.2    91  TRP91       0.2595
      4  O         75.3080  -94.0940  -13.0780 O.2    91  TRP91      -0.2718
      5  CB        73.2000  -94.6500  -15.5250 C.3    91  TRP91       0.0564
      6  CG        73.5000  -93.9240  -16.8090 C.ar   91  TRP91       0.0003
      7  CD1       74.4980  -94.2060  -17.7100 C.ar   91  TRP91       0.0946
      8  CD2       72.7550  -92.8310  -17.3680 C.ar   91  TRP91       0.0152
      9  NE1       74.4160  -93.3510  -18.7900 N.ar   91  TRP91      -0.2442
     10  CE2       73.3560  -92.5010  -18.6070 C.ar   91  TRP91       0.0810
     11  CE3       71.6340  -92.1000  -16.9440 C.ar   91  TRP91       0.0012
     12  CZ2       72.8730  -91.4680  -19.4270 C.ar   91  TRP91       0.0191
     13  CZ3       71.1500  -91.0640  -17.7680 C.ar   91  TRP91       0.0001
     14  CH2       71.7760  -90.7660  -18.9930 C.ar   91  TRP91       0.0015
     15  N         76.2870  -93.8320  -15.0810 N.am   92  HIS92      -0.1975
     16  CA        77.2720  -92.8700  -14.5800 C.3    92  HIS92       0.1656
     17  C         76.7750  -91.4340  -14.6340 C.2    92  HIS92       0.2291
     18  O         77.4740  -90.5160  -14.2030 O.2    92  HIS92      -0.2864
     19  CB        78.5930  -92.9730  -15.3580 C.3    92  HIS92       0.0771
     20  CG        78.4810  -92.5850  -16.8020 C.ar   92  HIS92       0.0820
     21  ND1       77.8530  -93.3760  -17.7400 N.ar   92  HIS92      -0.2267
     22  CD2       78.9200  -91.4890  -17.4660 C.ar   92  HIS92       0.1154
     23  CE1       77.9130  -92.7860  -18.9220 C.ar   92  HIS92       0.1986
     24  NE2       78.5570  -91.6400  -18.7830 N.ar   92  HIS92      -0.2212
     25  N         75.1800  -97.9430  -20.4110 N.3   151  GLU151     -0.1245
     26  CA        76.4400  -97.3800  -20.8870 C.3   151  GLU151      0.1567
     27  C         77.7040  -97.7400  -20.1050 C.2   151  GLU151      0.2260
     28  O         78.5050  -96.8640  -19.7870 O.2   151  GLU151     -0.2867
     29  CB        76.2810  -95.8600  -20.9700 C.3   151  GLU151      0.0388
     30  CG        75.0750  -95.4550  -21.8210 C.3   151  GLU151      0.1160
     31  CD        74.8840  -93.9530  -21.9500 C.2   151  GLU151      0.3649
     32  OE1       75.5850  -93.1880  -21.2470 O.co2 151  GLU151     -0.2457
     33  OE2       74.0160  -93.5380  -22.7560 O.co2 151  GLU151     -0.2457
     34  N         83.3700  -96.0350  -25.7050 N.3   155  ASP155     -0.1239
     35  CA        83.4310  -96.0180  -27.1540 C.3   155  ASP155      0.1674
     36  C         84.8100  -96.4390  -27.6460 C.2   155  ASP155      0.2266
     37  O         85.0020  -96.6760  -28.8380 O.2   155  ASP155     -0.2867
     38  CB        83.0670  -94.6270  -27.6510 C.3   155  ASP155      0.1410
     39  CG        81.6180  -94.2820  -27.3550 C.2   155  ASP155      0.3668
     40  OD1       80.7400  -95.0990  -27.7110 O.co2 155  ASP155     -0.2456
     41  OD2       81.3580  -93.2160  -26.7690 O.co2 155  ASP155     -0.2456
     42  N         74.4820  -97.2220  -26.2430 N.3   195  TYR195     -0.1227
     43  CA        74.3260  -96.5460  -27.5330 C.3   195  TYR195      0.1736
     44  C         75.4970  -96.9450  -28.4210 C.2   195  TYR195      0.2595
     45  O         76.5080  -97.4430  -27.9270 O.2   195  TYR195     -0.2718
     46  CB        74.3140  -95.0270  -27.3610 C.3   195  TYR195      0.0548
     47  CG        75.6010  -94.4460  -26.8160 C.ar  195  TYR195     -0.0200
     48  CD1       75.8290  -94.3660  -25.4350 C.ar  195  TYR195     -0.0009
     49  CD2       76.5890  -93.9650  -27.6760 C.ar  195  TYR195     -0.0009
     50  CE1       77.0080  -93.8210  -24.9280 C.ar  195  TYR195      0.0417
     51  CE2       77.7700  -93.4170  -27.1820 C.ar  195  TYR195      0.0417
     52  CZ        77.9740  -93.3480  -25.8060 C.ar  195  TYR195      0.1957
     53  OH        79.1430  -92.8120  -25.3050 O.3   195  TYR195     -0.2866
     54  N         75.3690  -96.7080  -29.7240 N.am  196  ASN196     -0.1974
     55  CA        76.4130  -97.0610  -30.6900 C.3   196  ASN196      0.1688
     56  C         76.8230  -98.5210  -30.5490 C.2   196  ASN196      0.2292
     57  O         77.9970  -98.8630  -30.6550 O.2   196  ASN196     -0.2864
     58  CB        77.6510  -96.1650  -30.5280 C.3   196  ASN196      0.1181
     59  CG        77.4520  -94.7710  -31.0950 C.2   196  ASN196      0.2629
     60  OD1       78.4000  -93.9760  -31.1810 O.2   196  ASN196     -0.2716
     61  ND2       76.2260  -94.4610  -31.4790 N.am  196  ASN196     -0.0877
     62  N         70.1110  -98.5880  -27.6830 N.3   226  GLN226     -0.1245
     63  CA        69.4840  -97.2780  -27.5790 C.3   226  GLN226      0.1566
     64  C         69.0110  -96.7580  -28.9230 C.2   226  GLN226      0.2260
     65  O         67.9580  -96.1360  -29.0250 O.2   226  GLN226     -0.2867
     66  CB        70.4460  -96.2720  -26.9530 C.3   226  GLN226      0.0367
     67  CG        70.6690  -96.4900  -25.4620 C.3   226  GLN226      0.0905
     68  CD        71.5650  -95.4200  -24.8760 C.2   226  GLN226      0.2608
     69  OE1       71.7630  -94.3750  -25.4860 O.2   226  GLN226     -0.2717
     70  NE2       72.0970  -95.6670  -23.6860 N.am  226  GLN226     -0.0878
     71  N         70.0890  -94.2320  -30.9550 N.3   228  HIS228     -0.1241
     72  CA        69.9390  -92.8120  -31.2100 C.3   228  HIS228      0.1621
     73  C         70.7040  -92.6990  -32.5140 C.2   228  HIS228      0.2264
     74  O         71.9210  -92.5210  -32.5330 O.2   228  HIS228     -0.2867
     75  CB        70.5720  -91.9870  -30.1080 C.3   228  HIS228      0.0745
     76  CG        69.7860  -92.0130  -28.8390 C.ar  228  HIS228      0.0817
     77  ND1       68.5030  -91.5140  -28.7530 N.ar  228  HIS228     -0.2268
     78  CD2       70.0740  -92.5280  -27.6220 C.ar  228  HIS228      0.1154
     79  CE1       68.0350  -91.7230  -27.5350 C.ar  228  HIS228      0.1986
     80  NE2       68.9660  -92.3380  -26.8300 N.ar  228  HIS228     -0.2212
     81  N         70.9100  -91.6490  -36.9810 N.3   230  GLN230     -0.1245
     82  CA        70.7620  -90.5930  -37.9690 C.3   230  GLN230      0.1566
     83  C         70.0560  -91.1560  -39.1910 C.2   230  GLN230      0.2260
     84  O         69.7100  -92.3390  -39.2400 O.2   230  GLN230     -0.2867
     85  CB        72.1350  -90.0560  -38.3670 C.3   230  GLN230      0.0367
     86  CG        72.8970  -89.4310  -37.2030 C.3   230  GLN230      0.0905
     87  CD        74.3410  -89.1570  -37.5350 C.2   230  GLN230      0.2608
     88  OE1       74.7450  -89.1940  -38.6950 O.2   230  GLN230     -0.2717
     89  NE2       75.1310  -88.8670  -36.5130 N.am  230  GLN230     -0.0878
     90  N         76.6230  -85.3950  -36.6710 N.3   265  TRP265     -0.1241
     91  CA        77.2670  -85.2280  -35.3790 C.3   265  TRP265      0.1605
     92  C         78.6550  -84.6120  -35.4860 C.2   265  TRP265      0.2264
     93  O         79.4990  -85.1030  -36.2320 O.2   265  TRP265     -0.2867
     94  CB        77.3750  -86.5720  -34.6620 C.3   265  TRP265      0.0550
     95  CG        77.9010  -86.4160  -33.2850 C.ar  265  TRP265      0.0003
     96  CD1       79.2070  -86.4660  -32.8880 C.ar  265  TRP265      0.0946
     97  CD2       77.1380  -86.0920  -32.1210 C.ar  265  TRP265      0.0152
     98  NE1       79.3040  -86.1880  -31.5450 N.ar  265  TRP265     -0.2442
     99  CE2       78.0470  -85.9560  -31.0490 C.ar  265  TRP265      0.0810
    100  CE3       75.7690  -85.9000  -31.8790 C.ar  265  TRP265      0.0012
    101  CZ2       77.6320  -85.6370  -29.7510 C.ar  265  TRP265      0.0191
    102  CZ3       75.3560  -85.5840  -30.5900 C.ar  265  TRP265      0.0001
    103  CH2       76.2880  -85.4560  -29.5410 C.ar  265  TRP265      0.0015
    104  N         64.4910  -85.0550  -26.3620 N.3   316  TRP316     -0.1241
    105  CA        65.7520  -84.6740  -25.7460 C.3   316  TRP316      0.1605
    106  C         66.7690  -84.2720  -26.8110 C.2   316  TRP316      0.2264
    107  O         67.7850  -83.6570  -26.5040 O.2   316  TRP316     -0.2867
    108  CB        66.3040  -85.8470  -24.9370 C.3   316  TRP316      0.0550
    109  CG        67.0260  -86.8690  -25.7680 C.ar  316  TRP316      0.0003
    110  CD1       66.4970  -87.6500  -26.7650 C.ar  316  TRP316      0.0946
    111  CD2       68.4180  -87.2040  -25.6940 C.ar  316  TRP316      0.0152
    112  NE1       67.4750  -88.4450  -27.3100 N.ar  316  TRP316     -0.2442
    113  CE2       68.6620  -88.1940  -26.6730 C.ar  316  TRP316      0.0810
    114  CE3       69.4840  -86.7620  -24.8950 C.ar  316  TRP316      0.0012
    115  CZ2       69.9260  -88.7560  -26.8750 C.ar  316  TRP316      0.0191
    116  CZ3       70.7520  -87.3250  -25.1000 C.ar  316  TRP316      0.0001
    117  CH2       70.9550  -88.3110  -26.0820 C.ar  316  TRP316      0.0015
    118  N         70.5520  -81.1930  -27.8930 N.3   320  ARG320     -0.1245
    119  CA        71.7540  -81.3790  -28.7110 C.3   320  ARG320      0.1563
    120  C         71.6830  -80.5900  -30.0260 C.2   320  ARG320      0.2260
    121  O         72.6550  -80.5600  -30.7890 O.2   320  ARG320     -0.2867
    122  CB        71.9260  -82.8630  -29.0630 C.3   320  ARG320      0.0307
    123  CG        72.2650  -83.7510  -27.8820 C.3   320  ARG320      0.0489
    124  CD        71.5330  -85.0900  -27.9420 C.3   320  ARG320      0.2205
    125  NE        71.8770  -85.9540  -29.0800 N.pl3 320  ARG320     -0.0865
    126  CZ        72.7490  -86.9610  -29.0380 C.cat 320  ARG320      0.5346
    127  NH1       73.4080  -87.2510  -27.9230 N.pl3 320  ARG320      0.1354
    128  NH2       72.9110  -87.7290  -30.1050 N.pl3 320  ARG320      0.1354
@<TRIPOS>BOND
     1    84    83    2
     2    83    82    1
     3    88    87    2
     4    85    82    1
     5    85    86    1
     6    82    81    1
     7    87    86    1
     8    87    89   am
     9    90    91    1
    10    93    92    2
    11    92    91    1
    12    91    94    1
    13    94    95    1
    14    95    96   ar
    15    95    97   ar
    16    96    98   ar
    17    74    73    2
    18    73    72    1
    19    97   100   ar
    20    97    99   ar
    21   100   102   ar
    22    98    99   ar
    23    61    59   am
    24    72    71    1
    25    72    75    1
    26    60    59    2
    27    59    58    1
    28    99   101   ar
    29   121   120    2
    30    55    56    1
    31    55    58    1
    32    55    54    1
    33    57    56    2
    34   102   103   ar
    35    75    76    1
    36   128   126    1
    37   120   119    1
    38   101   103   ar
    39    54    44   am
    40   125   126    2
    41   125   124    1
    42   122   119    1
    43   122   123    1
    44   126   127    1
    45    65    64    2
    46    64    63    1
    47    76    77   ar
    48    76    78   ar
    49    37    36    2
    50    77    79   ar
    51   119   118    1
    52    44    45    2
    53    44    43    1
    54   124   123    1
    55    40    39   ar
    56    62    63    1
    57    49    51   ar
    58    49    47   ar
    59    38    39    1
    60    38    35    1
    61    36    35    1
    62    78    80   ar
    63    63    66    1
    64    79    80   ar
    65    43    46    1
    66    43    42    1
    67    46    47    1
    68    39    41   ar
    69   112   110   ar
    70   112   113   ar
    71    51    52   ar
    72    35    34    1
    73    66    67    1
    74   115   113   ar
    75   115   117   ar
    76    47    48   ar
    77   106   107    2
    78   106   105    1
    79   110   109   ar
    80   113   111   ar
    81   104   105    1
    82   117   116   ar
    83    52    53    1
    84    52    50   ar
    85   109   111   ar
    86   109   108    1
    87   105   108    1
    88   111   114   ar
    89    69    68    2
    90    67    68    1
    91    48    50   ar
    92   116   114   ar
    93    68    70   am
    94    33    31   ar
    95    31    30    1
    96    31    32   ar
    97    30    29    1
    98    29    26    1
    99    26    25    1
   100    26    27    1
   101    27    28    2
   102    12    14   ar
   103    12    10   ar
   104    14    13   ar
   105    23    24   ar
   106    23    21   ar
   107     9    10   ar
   108     9     7   ar
   109    24    22   ar
   110    10     8   ar
   111    13    11   ar
   112    21    20   ar
   113     7     6   ar
   114    22    20   ar
   115     8    11   ar
   116     8     6   ar
   117     6     5    1
   118    20    19    1
   119     5     2    1
   120    19    16    1
   121    15    16    1
   122    15     3   am
   123     2     3    1
   124     2     1    1
   125    17    16    1
   126    17    18    2
   127     3     4    2
