@<TRIPOS>MOLECULE
tmp/3mmfA00.pdb
 130 128 0 0 0
SMALL
GASTEIGER

@<TRIPOS>ATOM
      1  N         -8.4650    0.2770    5.8560 N.3    64  ASN64      -0.1240
      2  CA        -9.3210    1.1990    6.5980 C.3    64  ASN64       0.1653
      3  C        -10.5090    1.6130    5.7470 C.2    64  ASN64       0.2266
      4  O        -10.3330    2.0450    4.6110 O.2    64  ASN64      -0.2867
      5  CB        -8.5770    2.4710    6.9820 C.3    64  ASN64       0.1155
      6  CG        -7.5240    2.2460    8.0200 C.2    64  ASN64       0.2627
      7  OD1       -7.4180    1.1840    8.5900 O.2    64  ASN64      -0.2716
      8  ND2       -6.7170    3.2810    8.2730 N.am   64  ASN64      -0.0877
      9  N        -13.9640    8.0230   12.6900 N.3    88  ILE88      -0.1231
     10  CA       -13.0700    8.4010   11.5920 C.3    88  ILE88       0.1692
     11  C        -12.7700    7.2460   10.6400 C.2    88  ILE88       0.2591
     12  O        -12.7130    7.4500    9.4270 O.2    88  ILE88      -0.2718
     13  CB       -11.7580    9.0720   12.1070 C.3    88  ILE88       0.0266
     14  CG1      -10.8020    9.3500   10.9520 C.3    88  ILE88       0.0019
     15  CG2      -11.0270    8.2260   13.1340 C.3    88  ILE88       0.0020
     16  CD1       -9.6730   10.2940   11.3220 C.3    88  ILE88       0.0001
     17  N        -12.6430    6.0270   11.1630 N.am   89  GLN89      -0.1979
     18  CA       -12.3650    4.8650   10.3210 C.3    89  GLN89       0.1601
     19  C        -12.6160    3.5980   11.1090 C.2    89  GLN89       0.2287
     20  O        -12.6260    3.6350   12.3410 O.2    89  GLN89      -0.2864
     21  CB       -10.9120    4.8760    9.7860 C.3    89  GLN89       0.0394
     22  CG        -9.8250    5.0340   10.8570 C.3    89  GLN89       0.0908
     23  CD        -9.0700    3.7530   11.1820 C.2    89  GLN89       0.2608
     24  OE1       -9.5810    2.6660   11.0650 O.2    89  GLN89      -0.2717
     25  NE2       -7.8610    3.9080   11.6780 N.am   89  GLN89      -0.0878
     26  N        -11.2300   -0.6790   10.8860 N.3    91  HIS91      -0.1241
     27  CA       -10.3550   -1.6530   10.2660 C.3    91  HIS91       0.1621
     28  C        -10.4120   -2.9170   11.0910 C.2    91  HIS91       0.2264
     29  O        -11.0400   -2.9630   12.1510 O.2    91  HIS91      -0.2867
     30  CB        -8.9190   -1.1470   10.2200 C.3    91  HIS91       0.0745
     31  CG        -8.3680   -0.8780   11.5810 C.ar   91  HIS91       0.0817
     32  ND1       -8.5180    0.3300   12.2200 N.ar   91  HIS91      -0.2268
     33  CD2       -7.7140   -1.6850   12.4520 C.ar   91  HIS91       0.1154
     34  CE1       -7.9650    0.2580   13.4210 C.ar   91  HIS91       0.1986
     35  NE2       -7.4910   -0.9610   13.5950 N.ar   91  HIS91      -0.2212
     36  N         -8.0580   -6.6080   12.4080 N.3    93  HIS93      -0.1241
     37  CA        -6.8450   -7.4010   12.5350 C.3    93  HIS93       0.1621
     38  C         -7.2550   -8.8610   12.4420 C.2    93  HIS93       0.2264
     39  O         -8.3090   -9.2360   12.9830 O.2    93  HIS93      -0.2867
     40  CB        -6.1630   -7.1420   13.8800 C.3    93  HIS93       0.0745
     41  CG        -5.8920   -5.6920   14.1570 C.ar   93  HIS93       0.0817
     42  ND1       -4.6570   -5.1200   13.9230 N.ar   93  HIS93      -0.2268
     43  CD2       -6.6920   -4.6810   14.5990 C.ar   93  HIS93       0.1154
     44  CE1       -4.6960   -3.8350   14.2310 C.ar   93  HIS93       0.1986
     45  NE2       -5.9320   -3.5280   14.6080 N.ar   93  HIS93      -0.2212
     46  N        -11.9790   -2.8570   14.8350 N.3   116  HIS116     -0.1241
     47  CA       -11.7920   -1.6360   15.5830 C.3   116  HIS116      0.1621
     48  C        -12.4520   -0.4740   14.8820 C.2   116  HIS116      0.2264
     49  O        -12.0560   -0.0880   13.7680 O.2   116  HIS116     -0.2867
     50  CB       -10.3000   -1.3470   15.6660 C.3   116  HIS116      0.0745
     51  CG        -9.5790   -2.3130   16.5330 C.ar  116  HIS116      0.0817
     52  ND1       -8.2000   -2.4800   16.4790 N.ar  116  HIS116     -0.2268
     53  CD2      -10.0330   -3.1610   17.4730 C.ar  116  HIS116      0.1154
     54  CE1       -7.8550   -3.3940   17.3640 C.ar  116  HIS116      0.1986
     55  NE2       -8.9490   -3.8300   17.9780 N.ar  116  HIS116     -0.2212
     56  N        -12.7720    3.3280   15.1650 N.3   118  VAL118     -0.1245
     57  CA       -11.9160    4.3420   15.7690 C.3   118  VAL118      0.1561
     58  C        -12.6060    5.6870   15.8040 C.2   118  VAL118      0.2260
     59  O        -13.0830    6.1500   14.7660 O.2   118  VAL118     -0.2867
     60  CB       -10.6010    4.4460   14.9780 C.3   118  VAL118      0.0252
     61  CG1       -9.6830    5.4550   15.6360 C.3   118  VAL118      0.0019
     62  CG2       -9.9280    3.0560   14.8310 C.3   118  VAL118      0.0019
     63  N         -8.1490   14.5550   14.7370 N.3   127  PHE127     -0.1241
     64  CA        -7.5320   13.3150   15.1520 C.3   127  PHE127      0.1605
     65  C         -6.0970   13.5250   15.5930 C.2   127  PHE127      0.2264
     66  O         -5.6570   12.9370   16.5790 O.2   127  PHE127     -0.2867
     67  CB        -7.5690   12.3180   13.9970 C.3   127  PHE127      0.0534
     68  CG        -6.9820   10.9850   14.3320 C.ar  127  PHE127     -0.0203
     69  CD1       -7.7540    9.9990   14.9060 C.ar  127  PHE127     -0.0042
     70  CD2       -5.6350   10.7160   14.0860 C.ar  127  PHE127     -0.0042
     71  CE1       -7.2010    8.7810   15.2310 C.ar  127  PHE127     -0.0003
     72  CE2       -5.0930    9.5040   14.4090 C.ar  127  PHE127     -0.0003
     73  CZ        -5.8790    8.5290   14.9810 C.ar  127  PHE127     -0.0000
     74  N        -11.8650    3.5640   21.0340 N.3   139  VAL139     -0.1245
     75  CA       -11.9100    2.5240   20.0240 C.3   139  VAL139      0.1561
     76  C        -12.8650    1.4460   20.5190 C.2   139  VAL139      0.2260
     77  O        -12.7110    0.9470   21.6400 O.2   139  VAL139     -0.2867
     78  CB       -10.5120    1.9300   19.6490 C.3   139  VAL139      0.0252
     79  CG1      -10.6790    0.9180   18.5200 C.3   139  VAL139      0.0019
     80  CG2       -9.5820    3.0070   19.2230 C.3   139  VAL139      0.0019
     81  N         -2.9780    2.9420   21.1660 N.3   194  LEU194     -0.1231
     82  CA        -3.0200    2.4010   19.8140 C.3   194  LEU194      0.1693
     83  C         -2.2510    1.0810   19.8310 C.2   194  LEU194      0.2593
     84  O         -1.2180    0.9490   20.5250 O.2   194  LEU194     -0.2718
     85  CB        -2.2890    3.3360   18.8480 C.3   194  LEU194      0.0284
     86  CG        -2.7990    4.7630   18.7470 C.3   194  LEU194      0.0019
     87  CD1       -1.9570    5.5860   17.7680 C.3   194  LEU194      0.0001
     88  CD2       -4.2670    4.7870   18.3330 C.3   194  LEU194      0.0001
     89  N         -2.7000    0.1060   19.0500 N.am  195  THR195     -0.1939
     90  CA        -2.0430   -1.2030   19.0410 C.3   195  THR195      0.2028
     91  C         -1.0310   -1.3300   17.9140 C.2   195  THR195      0.2643
     92  O         -0.4480   -2.3870   17.7390 O.2   195  THR195     -0.2714
     93  CB        -3.0300   -2.3480   18.8820 C.3   195  THR195      0.1808
     94  OG1       -3.6250   -2.2470   17.6010 O.3   195  THR195     -0.2208
     95  CG2       -4.1170   -2.3060   19.9620 C.3   195  THR195      0.0379
     96  N         -0.8220   -0.2490   17.1570 N.am  196  THR196     -0.1937
     97  CA         0.2670   -0.1700   16.1720 C.3   196  THR196      0.2013
     98  C          1.0670    1.0810   16.4700 C.2   196  THR196      0.2484
     99  O          0.5850    2.0170   17.0990 O.2   196  THR196     -0.2729
    100  CB        -0.2230   -0.0610   14.7020 C.3   196  THR196      0.1807
    101  OG1       -0.7600    1.2450   14.4480 O.3   196  THR196     -0.2208
    102  CG2       -1.2870   -1.0900   14.3980 C.3   196  THR196      0.0379
    103  N          2.3140    1.1260   15.9900 N.am  197  PRO197     -0.2715
    104  CA         3.0020    2.4010   16.0620 C.3   197  PRO197      0.1521
    105  C          2.1090    3.5380   15.5530 C.2   197  PRO197      0.2440
    106  O          1.3480    3.3580   14.5960 O.2   197  PRO197     -0.2731
    107  CB         4.2170    2.1490   15.1480 C.3   197  PRO197      0.0310
    108  CG         4.4960    0.7320   15.3130 C.3   197  PRO197      0.0237
    109  CD         3.1210    0.0880   15.3420 C.3   197  PRO197      0.0939
    110  N          2.1840    4.7090   16.1850 N.am  198  PRO198     -0.2727
    111  CA         3.1270    5.1130   17.2410 C.3   198  PRO198      0.1402
    112  C          2.8130    4.6690   18.6830 C.2   198  PRO198      0.2269
    113  O          3.4660    5.1360   19.6210 O.2   198  PRO198     -0.2865
    114  CB         3.1070    6.6340   17.1350 C.3   198  PRO198      0.0296
    115  CG         1.7210    6.9450   16.6680 C.3   198  PRO198      0.0237
    116  CD         1.3420    5.8350   15.7330 C.3   198  PRO198      0.0939
    117  N        -10.4580    2.0790   25.5970 N.3   205  TRP205     -0.1241
    118  CA       -10.8910    0.8720   24.9030 C.3   205  TRP205      0.1605
    119  C        -12.2530    0.4550   25.4150 C.2   205  TRP205      0.2264
    120  O        -12.4600    0.4050   26.6160 O.2   205  TRP205     -0.2867
    121  CB        -9.8740   -0.2760   25.0900 C.3   205  TRP205      0.0550
    122  CG        -8.7790   -0.1370   24.0830 C.ar  205  TRP205      0.0003
    123  CD1       -7.5600    0.4690   24.2610 C.ar  205  TRP205      0.0946
    124  CD2       -8.8390   -0.5460   22.7270 C.ar  205  TRP205      0.0152
    125  NE1       -6.8740    0.4500   23.0900 N.ar  205  TRP205     -0.2442
    126  CE2       -7.6210   -0.1810   22.1290 C.ar  205  TRP205      0.0810
    127  CE3       -9.8030   -1.2070   21.9520 C.ar  205  TRP205      0.0012
    128  CZ2       -7.3580   -0.4260   20.7880 C.ar  205  TRP205      0.0191
    129  CZ3       -9.5380   -1.4540   20.6320 C.ar  205  TRP205      0.0001
    130  CH2       -8.3130   -1.0780   20.0600 C.ar  205  TRP205      0.0015
@<TRIPOS>BOND
     1     4     3    2
     2     3     2    1
     3     1     2    1
     4     2     5    1
     5     5     6    1
     6     6     8   am
     7     6     7    2
     8    12    11    2
     9    21    18    1
    10    21    22    1
    11    30    27    1
    12    30    31    1
    13    27    26    1
    14    27    28    1
    15    18    19    1
    16    18    17    1
    17    11    17   am
    18    11    10    1
    19    22    23    1
    20    14    16    1
    21    14    13    1
    22    24    23    2
    23    28    29    2
    24    19    20    2
    25    23    25   am
    26    31    32   ar
    27    31    33   ar
    28    10    13    1
    29    10     9    1
    30    13    15    1
    31    32    34   ar
    32    36    37    1
    33    38    37    1
    34    38    39    2
    35    33    35   ar
    36    37    40    1
    37    34    35   ar
    38    49    48    2
    39    40    41    1
    40    42    41   ar
    41    42    44   ar
    42    67    68    1
    43    67    64    1
    44    70    68   ar
    45    70    72   ar
    46    41    43   ar
    47    44    45   ar
    48    68    69   ar
    49   102   100    1
    50    72    73   ar
    51   101   100    1
    52   106   105    2
    53    43    45   ar
    54   100    97    1
    55    63    64    1
    56    59    58    2
    57    62    60    1
    58    46    47    1
    59    48    47    1
    60    69    71   ar
    61    60    61    1
    62    60    57    1
    63    73    71   ar
    64   107   108    1
    65   107   104    1
    66    64    65    1
    67    56    57    1
    68   108   109    1
    69   109   103    1
    70   105   104    1
    71   105   110   am
    72    47    50    1
    73    65    66    2
    74    50    51    1
    75   116   110    1
    76   116   115    1
    77    57    58    1
    78   103   104    1
    79   103    98   am
    80    97    98    1
    81    97    96    1
    82   110   111    1
    83    98    99    2
    84    52    51   ar
    85    52    54   ar
    86    51    53   ar
    87   115   114    1
    88   114   111    1
    89    96    91   am
    90   111   112    1
    91    54    55   ar
    92    53    55   ar
    93    94    93    1
    94    92    91    2
    95    87    86    1
    96    91    90    1
    97    88    86    1
    98    79    78    1
    99   112   113    2
   100    86    85    1
   101    85    82    1
   102    93    90    1
   103    93    95    1
   104    90    89    1
   105    89    83   am
   106    80    78    1
   107    78    75    1
   108    82    83    1
   109    82    81    1
   110    83    84    2
   111    75    76    1
   112    75    74    1
   113   130   129   ar
   114   130   128   ar
   115    76    77    2
   116   129   127   ar
   117   128   126   ar
   118   127   124   ar
   119   126   124   ar
   120   126   125   ar
   121   124   122   ar
   122   125   123   ar
   123   122   123   ar
   124   122   121    1
   125   118   121    1
   126   118   119    1
   127   118   117    1
   128   119   120    2
