@<TRIPOS>MOLECULE
tmp/3mmgA00.pdb
 77 78 0 0 0
SMALL
GASTEIGER

@<TRIPOS>ATOM
      1  N         31.3110   -6.3040  -15.6400 N.3   169  LEU169     -0.1231
      2  CA        32.6330   -6.3950  -16.2760 C.3   169  LEU169      0.1693
      3  C         33.1160   -5.0630  -16.7270 C.2   169  LEU169      0.2593
      4  O         32.3290   -4.1650  -17.0250 O.2   169  LEU169     -0.2718
      5  CB        32.5800   -7.2300  -17.5660 C.3   169  LEU169      0.0284
      6  CG        32.1810   -8.6830  -17.6550 C.3   169  LEU169      0.0019
      7  CD1       32.1800   -9.0680  -19.1250 C.3   169  LEU169      0.0001
      8  CD2       33.1840   -9.5290  -16.8500 C.3   169  LEU169      0.0001
      9  N         34.4420   -4.9820  -16.8680 N.am  170  THR170     -0.1939
     10  CA        35.0820   -3.9230  -17.6140 C.3   170  THR170      0.2028
     11  C         36.2070   -4.5480  -18.4510 C.2   170  THR170      0.2642
     12  O         36.7780   -5.5880  -18.0980 O.2   170  THR170     -0.2714
     13  CB        35.5990   -2.7900  -16.6910 C.3   170  THR170      0.1808
     14  OG1       36.0270   -1.6750  -17.4870 O.3   170  THR170     -0.2208
     15  CG2       36.7470   -3.2690  -15.8050 C.3   170  THR170      0.0379
     16  N         36.4910   -3.9250  -19.5790 N.am  171  HIS171     -0.1973
     17  CA        37.6000   -4.3540  -20.4090 C.3   171  HIS171      0.1656
     18  C         38.9030   -4.0420  -19.6710 C.2   171  HIS171      0.2291
     19  O         39.0040   -3.0350  -18.9750 O.2   171  HIS171     -0.2864
     20  CB        37.5300   -3.6140  -21.7290 C.3   171  HIS171      0.0771
     21  CG        38.4680   -4.1400  -22.7640 C.ar  171  HIS171      0.0820
     22  ND1       39.8010   -3.7850  -22.8080 N.ar  171  HIS171     -0.2267
     23  CD2       38.2640   -4.9820  -23.8050 C.ar  171  HIS171      0.1154
     24  CE1       40.3790   -4.3940  -23.8290 C.ar  171  HIS171      0.1986
     25  NE2       39.4710   -5.1240  -24.4520 N.ar  171  HIS171     -0.2212
     26  N         30.3020   -3.5060  -19.0520 N.3   178  TYR178     -0.1241
     27  CA        29.2240   -4.4380  -19.4020 C.3   178  TYR178      0.1605
     28  C         28.4260   -4.8070  -18.1650 C.2   178  TYR178      0.2264
     29  O         28.9980   -5.0280  -17.0930 O.2   178  TYR178     -0.2867
     30  CB        29.7570   -5.7130  -20.0570 C.3   178  TYR178      0.0534
     31  CG        30.6050   -5.4490  -21.2580 C.ar  178  TYR178     -0.0201
     32  CD1       31.9560   -5.1650  -21.0970 C.ar  178  TYR178     -0.0009
     33  CD2       30.0620   -5.4510  -22.5550 C.ar  178  TYR178     -0.0009
     34  CE1       32.7560   -4.8740  -22.1610 C.ar  178  TYR178      0.0417
     35  CE2       30.9020   -5.1610  -23.6660 C.ar  178  TYR178      0.0417
     36  CZ        32.2430   -4.8860  -23.4260 C.ar  178  TYR178      0.1957
     37  OH        33.1540   -4.5840  -24.4160 O.3   178  TYR178     -0.2866
     38  N         30.6590  -16.7210  -22.4140 N.3   210  TRP210     -0.1241
     39  CA        31.5960  -15.6110  -22.6460 C.3   210  TRP210      0.1605
     40  C         31.6260  -15.0830  -24.0830 C.2   210  TRP210      0.2264
     41  O         32.1760  -14.0110  -24.3360 O.2   210  TRP210     -0.2867
     42  CB        33.0300  -15.9880  -22.2120 C.3   210  TRP210      0.0550
     43  CG        33.1120  -16.1720  -20.7380 C.ar  210  TRP210      0.0003
     44  CD1       33.1600  -17.3520  -20.0660 C.ar  210  TRP210      0.0946
     45  CD2       33.1000  -15.1370  -19.7490 C.ar  210  TRP210      0.0152
     46  NE1       33.1670  -17.1260  -18.7030 N.ar  210  TRP210     -0.2442
     47  CE2       33.1480  -15.7740  -18.4790 C.ar  210  TRP210      0.0810
     48  CE3       33.0620  -13.7310  -19.8090 C.ar  210  TRP210      0.0012
     49  CZ2       33.1570  -15.0560  -17.2780 C.ar  210  TRP210      0.0191
     50  CZ3       33.0840  -13.0100  -18.6270 C.ar  210  TRP210      0.0001
     51  CH2       33.1100  -13.6750  -17.3650 C.ar  210  TRP210      0.0015
     52  N         34.5320  -12.9170  -25.5260 N.3   213  PHE213     -0.1227
     53  CA        35.3580  -12.3780  -24.4330 C.3   213  PHE213      0.1736
     54  C         36.3850  -13.4050  -23.9440 C.2   213  PHE213      0.2596
     55  O         36.0990  -14.5940  -23.9180 O.2   213  PHE213     -0.2718
     56  CB        34.5030  -12.0770  -23.2040 C.3   213  PHE213      0.0547
     57  CG        33.6390  -10.8630  -23.3180 C.ar  213  PHE213     -0.0202
     58  CD1       32.3540  -10.8840  -22.7730 C.ar  213  PHE213     -0.0042
     59  CD2       34.1020   -9.6980  -23.9280 C.ar  213  PHE213     -0.0042
     60  CE1       31.5320   -9.7570  -22.8510 C.ar  213  PHE213     -0.0003
     61  CE2       33.2960   -8.5660  -24.0130 C.ar  213  PHE213     -0.0003
     62  CZ        32.0040   -8.5960  -23.4670 C.ar  213  PHE213     -0.0000
     63  N         37.5460  -12.9230  -23.5210 N.am  214  THR214     -0.1939
     64  CA        38.4920  -13.7010  -22.7160 C.3   214  THR214      0.2028
     65  C         38.5140  -13.0960  -21.3070 C.2   214  THR214      0.2642
     66  O         38.9400  -11.9640  -21.1280 O.2   214  THR214     -0.2714
     67  CB        39.9260  -13.6180  -23.2960 C.3   214  THR214      0.1808
     68  OG1       39.9160  -14.0090  -24.6730 O.3   214  THR214     -0.2208
     69  CG2       40.8740  -14.5170  -22.5210 C.3   214  THR214      0.0379
     70  N         38.0380  -13.8460  -20.3180 N.am  215  LEU215     -0.1977
     71  CA        38.0810  -13.3900  -18.9250 C.3   215  LEU215      0.1596
     72  C         39.4750  -13.5190  -18.3240 C.2   215  LEU215      0.2287
     73  O         40.0690  -14.6050  -18.3390 O.2   215  LEU215     -0.2864
     74  CB        37.0930  -14.1720  -18.0530 C.3   215  LEU215      0.0297
     75  CG        37.1370  -13.8170  -16.5520 C.3   215  LEU215      0.0022
     76  CD1       36.5940  -12.4100  -16.2870 C.3   215  LEU215      0.0001
     77  CD2       36.3920  -14.8490  -15.7450 C.3   215  LEU215      0.0001
@<TRIPOS>BOND
     1    52    53    1
     2    68    67    1
     3    25    24   ar
     4    25    23   ar
     5    53    54    1
     6    53    56    1
     7    37    36    1
     8    41    40    2
     9    40    39    1
    10    61    59   ar
    11    61    62   ar
    12    54    55    2
    13    54    63   am
    14    59    57   ar
    15    24    22   ar
    16    23    21   ar
    17    35    36   ar
    18    35    33   ar
    19    63    64    1
    20    62    60   ar
    21    36    34   ar
    22    57    56    1
    23    57    58   ar
    24    67    64    1
    25    67    69    1
    26    60    58   ar
    27    22    21   ar
    28    21    20    1
    29    64    65    1
    30    39    38    1
    31    39    42    1
    32    33    31   ar
    33    42    43    1
    34    34    32   ar
    35    20    17    1
    36    65    66    2
    37    65    70   am
    38    31    32   ar
    39    31    30    1
    40    43    44   ar
    41    43    45   ar
    42    17    18    1
    43    17    16    1
    44    70    71    1
    45    44    46   ar
    46    30    27    1
    47    48    45   ar
    48    48    50   ar
    49    45    47   ar
    50    18    19    2
    51    16    11   am
    52    27    26    1
    53    27    28    1
    54     7     6    1
    55    71    72    1
    56    71    74    1
    57    46    47   ar
    58    50    51   ar
    59    47    49   ar
    60    11    12    2
    61    11    10    1
    62    73    72    2
    63    28    29    2
    64    74    75    1
    65     6     5    1
    66     6     8    1
    67    10     9    1
    68    10    13    1
    69     5     2    1
    70    14    13    1
    71    51    49   ar
    72     4     3    2
    73     9     3   am
    74     3     2    1
    75    13    15    1
    76    75    76    1
    77    75    77    1
    78     2     1    1
