@<TRIPOS>MOLECULE
tmp/3mmhB00.pdb
 117 110 0 0 0
SMALL
GASTEIGER

@<TRIPOS>ATOM
      1  N         26.6380   33.7530   -9.8770 N.3    51  TRP51      -0.1241
      2  CA        27.8450   33.9080   -9.0640 C.3    51  TRP51       0.1605
      3  C         28.6310   35.0780   -9.5960 C.2    51  TRP51       0.2264
      4  O         28.8410   35.1610  -10.7940 O.2    51  TRP51      -0.2867
      5  CB        28.6540   32.6350   -9.0960 C.3    51  TRP51       0.0550
      6  CG        29.6450   32.4200   -7.9820 C.ar   51  TRP51       0.0003
      7  CD1       29.4060   31.6790   -6.8400 C.ar   51  TRP51       0.0946
      8  CD2       30.9800   32.9420   -7.8270 C.ar   51  TRP51       0.0152
      9  NE1       30.5360   31.6870   -6.0570 N.ar   51  TRP51      -0.2442
     10  CE2       31.4980   32.4610   -6.6040 C.ar   51  TRP51       0.0810
     11  CE3       31.8200   33.7440   -8.6260 C.ar   51  TRP51       0.0012
     12  CZ2       32.7810   32.7580   -6.1480 C.ar   51  TRP51       0.0191
     13  CZ3       33.0810   34.0580   -8.1520 C.ar   51  TRP51       0.0001
     14  CH2       33.5530   33.5730   -6.9290 C.ar   51  TRP51       0.0015
     15  N         38.8930   36.1800   -7.1600 N.3    55  TYR55      -0.1241
     16  CA        39.9960   35.4030   -6.6660 C.3    55  TYR55       0.1605
     17  C         41.2510   36.2340   -6.7260 C.2    55  TYR55       0.2264
     18  O         41.4170   37.0150   -7.6830 O.2    55  TYR55      -0.2867
     19  CB        40.2530   34.0900   -7.4150 C.3    55  TYR55       0.0534
     20  CG        39.2170   33.0270   -7.2470 C.ar   55  TYR55      -0.0201
     21  CD1       39.4780   31.9460   -6.4260 C.ar   55  TYR55      -0.0009
     22  CD2       37.9800   33.0380   -7.8830 C.ar   55  TYR55      -0.0009
     23  CE1       38.5700   30.9340   -6.1990 C.ar   55  TYR55       0.0417
     24  CE2       37.0610   32.0280   -7.6900 C.ar   55  TYR55       0.0417
     25  CZ        37.3760   30.9770   -6.8150 C.ar   55  TYR55       0.1957
     26  OH        36.3880   29.9750   -6.6640 O.3    55  TYR55      -0.2866
     27  N         31.9870   28.2820   -3.0430 N.3    74  ALA74      -0.1245
     28  CA        32.9320   28.0900   -4.1070 C.3    74  ALA74       0.1562
     29  C         34.1960   27.4000   -3.6720 C.2    74  ALA74       0.2260
     30  O         34.5380   27.3620   -2.5060 O.2    74  ALA74      -0.2867
     31  CB        33.2920   29.4700   -4.7630 C.3    74  ALA74       0.0290
     32  N         42.4610   27.8470   -6.8490 N.3    78  ILE78      -0.1245
     33  CA        42.5320   27.4640   -8.2800 C.3    78  ILE78       0.1561
     34  C         43.9890   27.5680   -8.7500 C.2    78  ILE78       0.2260
     35  O         44.5980   28.6470   -8.6860 O.2    78  ILE78      -0.2867
     36  CB        41.6120   28.3190   -9.1710 C.3    78  ILE78       0.0252
     37  CG1       40.1390   28.1810   -8.7200 C.3    78  ILE78       0.0019
     38  CG2       41.7720   27.9170  -10.6550 C.3    78  ILE78       0.0019
     39  CD1       39.3100   29.1470   -9.3940 C.3    78  ILE78       0.0001
     40  N         41.3530   25.6690  -15.0380 N.3    83  GLY83      -0.1210
     41  CA        40.0520   26.3030  -15.0340 C.3    83  GLY83       0.1956
     42  C         40.0030   27.5220  -15.9190 C.2    83  GLY83       0.2612
     43  O         41.0210   27.9720  -16.4310 O.2    83  GLY83      -0.2717
     44  N         38.8040   28.0620  -16.1140 N.am   84  VAL84      -0.1965
     45  CA        38.6920   29.3480  -16.8120 C.3    84  VAL84       0.1727
     46  C         39.4990   30.4220  -16.0700 C.2    84  VAL84       0.2616
     47  O         40.1310   31.2750  -16.7020 O.2    84  VAL84      -0.2715
     48  CB        37.2060   29.7520  -17.0170 C.3    84  VAL84       0.0290
     49  CG1       37.1000   31.0170  -17.8960 C.3    84  VAL84       0.0023
     50  CG2       36.3800   28.6440  -17.6120 C.3    84  VAL84       0.0023
     51  N         39.4610   30.3930  -14.7250 N.am   85  CYS85      -0.1968
     52  CA        40.1880   31.4080  -13.9720 C.3    85  CYS85       0.1712
     53  C         41.6790   31.3210  -14.1500 C.2    85  CYS85       0.2296
     54  O         42.3650   32.3170  -14.3140 O.2    85  CYS85      -0.2864
     55  CB        39.7920   31.3570  -12.4970 C.3    85  CYS85       0.0983
     56  SG        38.1450   31.9040  -12.0800 S.3    85  CYS85      -0.0798
     57  N         37.3120   23.4780  -17.7100 N.3   106  HIS106     -0.1226
     58  CA        36.4920   24.2680  -16.8000 C.3   106  HIS106      0.1752
     59  C         36.4570   23.5890  -15.4020 C.2   106  HIS106      0.2595
     60  O         36.4160   22.3040  -15.2650 O.2   106  HIS106     -0.2718
     61  CB        35.1150   24.4270  -17.4080 C.3   106  HIS106      0.0759
     62  CG        34.1200   24.9870  -16.4800 C.ar  106  HIS106      0.0818
     63  ND1       33.1600   24.2080  -15.8840 N.ar  106  HIS106     -0.2268
     64  CD2       33.8900   26.2630  -16.0830 C.ar  106  HIS106      0.1154
     65  CE1       32.3980   24.9560  -15.1170 C.ar  106  HIS106      0.1986
     66  NE2       32.8090   26.2100  -15.2280 N.ar  106  HIS106     -0.2212
     67  N         36.5470   24.3720  -14.3360 N.am  107  ILE107     -0.1980
     68  CA        36.3960   23.8160  -12.9690 C.3   107  ILE107      0.1595
     69  C         34.9640   24.1230  -12.5320 C.2   107  ILE107      0.2287
     70  O         34.5430   25.3280  -12.4180 O.2   107  ILE107     -0.2864
     71  CB        37.4300   24.4150  -12.0340 C.3   107  ILE107      0.0276
     72  CG1       38.8050   24.0610  -12.4470 C.3   107  ILE107      0.0022
     73  CG2       37.1490   23.9660  -10.6150 C.3   107  ILE107      0.0022
     74  CD1       39.8260   24.9310  -11.7270 C.3   107  ILE107      0.0001
     75  N         32.9250   24.3540   -9.6970 N.3   109  CYS109     -0.1221
     76  CA        32.7020   24.4880   -8.2180 C.3   109  CYS109      0.1808
     77  C         31.2370   24.3210   -7.9170 C.2   109  CYS109      0.2601
     78  O         30.8680   23.8670   -6.7960 O.2   109  CYS109     -0.2717
     79  CB        33.2570   25.8780   -7.6150 C.3   109  CYS109      0.0970
     80  SG        34.9420   26.1390   -8.0420 S.3   109  CYS109     -0.0800
     81  N         30.3900   24.7060   -8.8930 N.am  110  SER110     -0.1952
     82  CA        28.9580   24.4460   -8.8400 C.3   110  SER110      0.1924
     83  C         28.6130   23.6470  -10.0470 C.2   110  SER110      0.2314
     84  O         29.0490   23.9540  -11.1590 O.2   110  SER110     -0.2863
     85  CB        28.1560   25.7540   -8.9030 C.3   110  SER110      0.2116
     86  OG        26.7810   25.4390   -8.9310 O.3   110  SER110     -0.2180
     87  N         26.4130   26.0730  -12.9270 N.3   113  SER113     -0.1217
     88  CA        26.9020   27.0660  -13.8640 C.3   113  SER113      0.1889
     89  C         26.9570   26.5180  -15.3020 C.2   113  SER113      0.2288
     90  O         27.3560   25.4060  -15.4910 O.2   113  SER113     -0.2866
     91  CB        28.2820   27.4760  -13.3590 C.3   113  SER113      0.2089
     92  OG        28.9420   28.3050  -14.2670 O.3   113  SER113     -0.2183
     93  N         30.2560   31.6080  -18.3560 N.3   116  GLU116     -0.1245
     94  CA        31.2170   32.2650  -17.4960 C.3   116  GLU116      0.1567
     95  C         31.9950   33.2950  -18.2070 C.2   116  GLU116      0.2260
     96  O         32.2620   33.1870  -19.4320 O.2   116  GLU116     -0.2867
     97  CB        32.1500   31.1930  -16.8700 C.3   116  GLU116      0.0388
     98  CG        33.1970   31.6540  -15.8880 C.3   116  GLU116      0.1160
     99  CD        33.9530   30.5150  -15.1940 C.2   116  GLU116      0.3649
    100  OE1       33.8040   29.3030  -15.5180 O.co2 116  GLU116     -0.2457
    101  OE2       34.6810   30.8710  -14.2170 O.co2 116  GLU116     -0.2457
    102  N         35.4590   36.9310  -11.6280 N.3   132  ASP132     -0.1239
    103  CA        34.8080   35.8200  -12.2170 C.3   132  ASP132      0.1674
    104  C         33.3040   36.0190  -12.1030 C.2   132  ASP132      0.2266
    105  O         32.8070   36.3080  -10.9940 O.2   132  ASP132     -0.2867
    106  CB        35.1970   34.5080  -11.5130 C.3   132  ASP132      0.1410
    107  CG        34.5720   33.2950  -12.0990 C.2   132  ASP132      0.3668
    108  OD1       34.5480   33.1420  -13.2680 O.co2 132  ASP132     -0.2456
    109  OD2       34.1310   32.4350  -11.3430 O.co2 132  ASP132     -0.2456
    110  N         29.5420   33.9620  -13.2980 N.3   134  ASP134     -0.1239
    111  CA        28.9430   32.7460  -13.7990 C.3   134  ASP134      0.1674
    112  C         27.4490   32.9020  -13.8860 C.2   134  ASP134      0.2266
    113  O         26.8170   33.6000  -13.0590 O.2   134  ASP134     -0.2867
    114  CB        29.3150   31.4990  -12.9520 C.3   134  ASP134      0.1410
    115  CG        30.8200   31.3990  -12.7970 C.2   134  ASP134      0.3668
    116  OD1       31.4890   30.6480  -13.5450 O.co2 134  ASP134     -0.2456
    117  OD2       31.3750   32.1440  -11.8550 O.co2 134  ASP134     -0.2456
@<TRIPOS>BOND
     1    96    95    2
     2    93    94    1
     3    95    94    1
     4    49    48    1
     5    57    58    1
     6    50    48    1
     7    94    97    1
     8    61    58    1
     9    61    62    1
    10    48    45    1
    11    97    98    1
    12    45    44    1
    13    45    46    1
    14    58    59    1
    15    47    46    2
    16    62    64   ar
    17    62    63   ar
    18    43    42    2
    19    44    42   am
    20    64    66   ar
    21    46    51   am
    22    42    41    1
    23    98    99    1
    24    63    65   ar
    25   100    99   ar
    26    90    89    2
    27    59    60    2
    28    59    67   am
    29    89    88    1
    30    66    65   ar
    31    99   101   ar
    32    40    41    1
    33    51    52    1
    34    67    68    1
    35    54    53    2
    36    92    91    1
    37    53    52    1
    38    52    55    1
    39   112   111    1
    40   112   113    2
    41    88    91    1
    42    88    87    1
    43   111   110    1
    44   111   114    1
    45   116   115   ar
    46   108   107   ar
    47    68    69    1
    48    68    71    1
    49   114   115    1
    50   115   117   ar
    51    69    70    2
    52    55    56    1
    53    72    71    1
    54    72    74    1
    55   103   104    1
    56   103   102    1
    57   103   106    1
    58   104   105    2
    59   107   106    1
    60   107   109   ar
    61    71    73    1
    62    84    83    2
    63     4     3    2
    64    38    36    1
    65    83    82    1
    66     1     2    1
    67    75    76    1
    68     3     2    1
    69    39    37    1
    70    36    37    1
    71    36    33    1
    72     5     2    1
    73     5     6    1
    74    86    85    1
    75    85    82    1
    76    81    82    1
    77    81    77   am
    78    34    35    2
    79    34    33    1
    80    11    13   ar
    81    11     8   ar
    82    33    32    1
    83    76    77    1
    84    76    79    1
    85    13    14   ar
    86    80    79    1
    87     6     8   ar
    88     6     7   ar
    89    77    78    2
    90    22    24   ar
    91    22    20   ar
    92     8    10   ar
    93    24    25   ar
    94    18    17    2
    95    19    20    1
    96    19    16    1
    97    20    21   ar
    98    15    16    1
    99    14    12   ar
   100     7     9   ar
   101    25    26    1
   102    25    23   ar
   103    17    16    1
   104    10    12   ar
   105    10     9   ar
   106    21    23   ar
   107    31    28    1
   108    28    29    1
   109    28    27    1
   110    29    30    2
