@<TRIPOS>MOLECULE
tmp/3mmjA00.pdb
 154 147 0 0 0
SMALL
GASTEIGER

@<TRIPOS>ATOM
      1  N         -2.9620  -17.7190   22.6230 N.3    25  ARG25      -0.1245
      2  CA        -2.6750  -17.3660   21.2470 C.3    25  ARG25       0.1563
      3  C         -1.1610  -17.2700   21.0000 C.2    25  ARG25       0.2260
      4  O         -0.4200  -16.7520   21.8400 O.2    25  ARG25      -0.2867
      5  CB        -3.3260  -16.0090   20.9570 C.3    25  ARG25       0.0307
      6  CG        -2.9380  -15.4150   19.6330 C.3    25  ARG25       0.0489
      7  CD        -3.3940  -13.9520   19.5930 C.3    25  ARG25       0.2205
      8  NE        -3.3880  -13.4330   18.2290 N.pl3  25  ARG25      -0.0865
      9  CZ        -3.7430  -12.1930   17.9130 C.cat  25  ARG25       0.5346
     10  NH1       -4.1130  -11.3460   18.8680 N.pl3  25  ARG25       0.1354
     11  NH2       -3.7590  -11.8200   16.6410 N.pl3  25  ARG25       0.1354
     12  N         -4.6190    2.8030    1.0960 N.3    51  LYS51      -0.1245
     13  CA        -5.8500    2.8400    1.8880 C.3    51  LYS51       0.1561
     14  C         -6.0600    4.1450    2.6540 C.2    51  LYS51       0.2260
     15  O         -7.1870    4.4780    3.0030 O.2    51  LYS51      -0.2867
     16  CB        -5.8760    1.6640    2.8760 C.3    51  LYS51       0.0271
     17  CG        -4.8510    1.7980    4.0000 C.3    51  LYS51       0.0035
     18  CD        -4.4940    0.4720    4.6710 C.3    51  LYS51       0.0206
     19  CE        -5.3600    0.1710    5.8710 C.3    51  LYS51       0.1093
     20  NZ        -4.8790   -1.0640    6.5740 N.3    51  LYS51      -0.1314
     21  N         -5.9860  -14.9090   24.9600 N.3   117  TYR117     -0.1241
     22  CA        -6.8700  -14.2410   24.0160 C.3   117  TYR117      0.1605
     23  C         -8.3510  -14.4610   24.2220 C.2   117  TYR117      0.2264
     24  O         -8.8010  -15.5980   24.3330 O.2   117  TYR117     -0.2867
     25  CB        -6.5050  -14.7240   22.6070 C.3   117  TYR117      0.0534
     26  CG        -7.2970  -14.0750   21.5090 C.ar  117  TYR117     -0.0201
     27  CD1       -6.9010  -12.8440   20.9740 C.ar  117  TYR117     -0.0009
     28  CD2       -8.4660  -14.6660   21.0220 C.ar  117  TYR117     -0.0009
     29  CE1       -7.6530  -12.2130   19.9700 C.ar  117  TYR117      0.0417
     30  CE2       -9.2220  -14.0380   20.0180 C.ar  117  TYR117      0.0417
     31  CZ        -8.8080  -12.8160   19.5010 C.ar  117  TYR117      0.1957
     32  OH        -9.5480  -12.1820   18.5120 O.3   117  TYR117     -0.2866
     33  N         -9.5530   -9.5450   21.3500 N.3   121  ASP121     -0.1239
     34  CA        -8.3400   -9.4240   22.1800 C.3   121  ASP121      0.1674
     35  C         -8.6450   -8.5560   23.4160 C.2   121  ASP121      0.2266
     36  O         -7.7990   -7.7970   23.8870 O.2   121  ASP121     -0.2867
     37  CB        -7.1740   -8.8100   21.3800 C.3   121  ASP121      0.1410
     38  CG        -5.8110   -9.0120   22.0630 C.2   121  ASP121      0.3668
     39  OD1       -5.6750   -9.9110   22.9210 O.co2 121  ASP121     -0.2456
     40  OD2       -4.8440   -8.2770   21.7250 O.co2 121  ASP121     -0.2456
     41  N        -10.8660  -15.3390   13.5170 N.3   157  LYS157     -0.1245
     42  CA       -10.1800  -15.1240   14.7850 C.3   157  LYS157      0.1561
     43  C        -10.3970  -16.2580   15.7840 C.2   157  LYS157      0.2260
     44  O        -10.5720  -16.0210   16.9810 O.2   157  LYS157     -0.2867
     45  CB       -10.6070  -13.7790   15.3950 C.3   157  LYS157      0.0271
     46  CG        -9.9030  -12.5940   14.7600 C.3   157  LYS157      0.0035
     47  CD        -8.4280  -12.5630   15.1550 C.3   157  LYS157      0.0206
     48  CE        -7.6290  -11.5590   14.3310 C.3   157  LYS157      0.1093
     49  NZ        -8.2620  -10.2150   14.3380 N.3   157  LYS157     -0.1314
     50  N         -6.3010   -3.4690   23.2660 N.3   191  ASP191     -0.1225
     51  CA        -6.1590   -3.6000   21.8210 C.3   191  ASP191      0.1805
     52  C         -7.3230   -2.9120   21.0840 C.2   191  ASP191      0.2597
     53  O         -8.4640   -2.9360   21.5650 O.2   191  ASP191     -0.2718
     54  CB        -6.1570   -5.1070   21.4790 C.3   191  ASP191      0.1424
     55  CG        -5.5530   -5.4230   20.1230 C.2   191  ASP191      0.3668
     56  OD1       -5.3510   -4.5290   19.2810 O.co2 191  ASP191     -0.2456
     57  OD2       -5.2850   -6.6190   19.9010 O.co2 191  ASP191     -0.2456
     58  N         -7.0150   -2.2840   19.9460 N.am  192  HIS192     -0.1975
     59  CA        -7.9900   -1.6660   19.0290 C.3   192  HIS192      0.1656
     60  C         -8.5990   -0.3340   19.4130 C.2   192  HIS192      0.2291
     61  O         -9.3330    0.2320   18.5980 O.2   192  HIS192     -0.2864
     62  CB        -9.1690   -2.6100   18.7550 C.3   192  HIS192      0.0771
     63  CG        -8.7680   -4.0080   18.4050 C.ar  192  HIS192      0.0820
     64  ND1       -8.0710   -4.3200   17.2580 N.ar  192  HIS192     -0.2267
     65  CD2       -8.9700   -5.1780   19.0560 C.ar  192  HIS192      0.1154
     66  CE1       -7.8620   -5.6250   17.2180 C.ar  192  HIS192      0.1986
     67  NE2       -8.4000   -6.1670   18.2970 N.ar  192  HIS192     -0.2212
     68  N          3.3180   -3.7110   20.6370 N.3   220  SER220     -0.1202
     69  CA         1.9970   -4.2000   21.0080 C.3   220  SER220      0.2020
     70  C          1.8900   -5.6140   20.4220 C.2   220  SER220      0.2619
     71  O          2.8980   -6.3290   20.4120 O.2   220  SER220     -0.2717
     72  CB         0.8960   -3.2310   20.5040 C.3   220  SER220      0.2103
     73  OG         1.1870   -2.7150   19.2280 O.3   220  SER220     -0.2182
     74  N          0.7260   -6.0590   19.9610 N.am  221  GLU221     -0.1965
     75  CA         0.6760   -7.4120   19.3970 C.3   221  GLU221      0.1733
     76  C          1.1490   -7.3930   17.9420 C.2   221  GLU221      0.2616
     77  O          2.0990   -8.0900   17.5830 O.2   221  GLU221     -0.2715
     78  CB        -0.7440   -8.0000   19.5130 C.3   221  GLU221      0.0429
     79  CG        -0.9310   -9.3410   18.7900 C.3   221  GLU221      0.1163
     80  CD        -0.2200  -10.5050   19.4730 C.2   221  GLU221      0.3649
     81  OE1        0.9100  -10.3280   19.9680 O.co2 221  GLU221     -0.2457
     82  OE2       -0.7900  -11.6190   19.5020 O.co2 221  GLU221     -0.2457
     83  N          0.5030   -6.5810   17.1080 N.am  222  ALA222     -0.1963
     84  CA         0.8790   -6.4860   15.6900 C.3   222  ALA222      0.1728
     85  C          1.8920   -5.3790   15.4250 C.2   222  ALA222      0.2617
     86  O          2.5860   -5.4180   14.4140 O.2   222  ALA222     -0.2715
     87  CB        -0.3660   -6.2440   14.8190 C.3   222  ALA222      0.0334
     88  N          1.9690   -4.3950   16.3180 N.am  223  GLY223     -0.1940
     89  CA         2.8900   -3.2880   16.1250 C.3   223  GLY223      0.2014
     90  C          2.2630   -2.2030   15.2740 C.2   223  GLY223      0.2639
     91  O          2.9580   -1.4130   14.6150 O.2   223  GLY223     -0.2714
     92  N          0.9360   -2.1430   15.3100 N.am  224  VAL224     -0.1963
     93  CA         0.2150   -1.1680   14.5070 C.3   224  VAL224      0.1727
     94  C         -0.5360   -0.1170   15.3270 C.2   224  VAL224      0.2617
     95  O         -0.0050    0.9530   15.5910 O.2   224  VAL224     -0.2715
     96  CB        -0.7640   -1.8860   13.5200 C.3   224  VAL224      0.0290
     97  CG1       -1.4580   -0.8640   12.6350 C.3   224  VAL224      0.0023
     98  CG2        0.0100   -2.8950   12.6500 C.3   224  VAL224      0.0023
     99  N         -1.7500   -0.4260   15.7640 N.am  225  GLY225     -0.1940
    100  CA        -2.5430    0.5790   16.4640 C.3   225  GLY225      0.2014
    101  C         -1.9480    1.1890   17.7270 C.2   225  GLY225      0.2638
    102  O         -1.7430    2.4120   17.8220 O.2   225  GLY225     -0.2714
    103  N         -1.6850    0.3550   18.7250 N.am  226  ARG226     -0.1977
    104  CA        -1.1650    0.8750   19.9790 C.3   226  ARG226      0.1597
    105  C          0.2470    1.4030   19.8360 C.2   226  ARG226      0.2287
    106  O          0.5640    2.4760   20.3450 O.2   226  ARG226     -0.2864
    107  CB        -1.2410   -0.2140   21.0530 C.3   226  ARG226      0.0334
    108  CG        -2.6970   -0.4750   21.4830 C.3   226  ARG226      0.0492
    109  CD        -2.7980   -1.7000   22.3840 C.3   226  ARG226      0.2205
    110  NE        -2.5750   -2.9380   21.6300 N.pl3 226  ARG226     -0.0865
    111  CZ        -2.6140   -4.1530   22.1670 C.cat 226  ARG226      0.5346
    112  NH1       -2.8600   -4.2960   23.4610 N.pl3 226  ARG226      0.1354
    113  NH2       -2.4250   -5.2250   21.4060 N.pl3 226  ARG226      0.1354
    114  N          0.8430    3.0770   11.5410 N.3   257  PHE257     -0.1241
    115  CA        -0.5230    3.3610   11.1090 C.3   257  PHE257      0.1605
    116  C         -0.6330    4.8580   10.8180 C.2   257  PHE257      0.2264
    117  O          0.1860    5.6370   11.2860 O.2   257  PHE257     -0.2867
    118  CB        -1.4660    2.9790   12.2540 C.3   257  PHE257      0.0534
    119  CG        -2.9240    3.0730   11.9130 C.ar  257  PHE257     -0.0203
    120  CD1       -3.7000    4.1010   12.4290 C.ar  257  PHE257     -0.0042
    121  CD2       -3.5250    2.1080   11.1160 C.ar  257  PHE257     -0.0042
    122  CE1       -5.0660    4.1620   12.1560 C.ar  257  PHE257     -0.0003
    123  CE2       -4.8920    2.1610   10.8330 C.ar  257  PHE257     -0.0003
    124  CZ        -5.6590    3.1910   11.3550 C.ar  257  PHE257     -0.0000
    125  N        -15.3530   -2.0460   14.6560 N.3   273  LYS273     -0.1245
    126  CA       -14.1170   -1.2600   14.7250 C.3   273  LYS273      0.1561
    127  C        -14.2670    0.1950   14.2870 C.2   273  LYS273      0.2260
    128  O        -13.5280    1.0770   14.7580 O.2   273  LYS273     -0.2867
    129  CB       -13.0330   -1.9030   13.8510 C.3   273  LYS273      0.0271
    130  CG       -12.6010   -3.2820   14.2850 C.3   273  LYS273      0.0035
    131  CD       -11.4850   -3.7630   13.3740 C.3   273  LYS273      0.0206
    132  CE       -11.1040   -5.1940   13.6540 C.3   273  LYS273      0.1093
    133  NZ       -10.0240   -5.6200   12.7110 N.3   273  LYS273     -0.1314
    134  N        -12.0280    3.6060   15.3970 N.3   277  TYR277     -0.1241
    135  CA       -11.0970    4.3000   14.4990 C.3   277  TYR277      0.1605
    136  C        -11.4220    5.8000   14.4870 C.2   277  TYR277      0.2264
    137  O        -10.5240    6.6390   14.5390 O.2   277  TYR277     -0.2867
    138  CB       -11.2080    3.7650   13.0680 C.3   277  TYR277      0.0534
    139  CG       -10.4560    2.4750   12.8200 C.ar  277  TYR277     -0.0201
    140  CD1       -9.0800    2.3900   13.0400 C.ar  277  TYR277     -0.0009
    141  CD2      -11.1160    1.3450   12.3500 C.ar  277  TYR277     -0.0009
    142  CE1       -8.3860    1.2040   12.7970 C.ar  277  TYR277      0.0417
    143  CE2      -10.4310    0.1540   12.1030 C.ar  277  TYR277      0.0417
    144  CZ        -9.0710    0.0900   12.3300 C.ar  277  TYR277      0.1957
    145  OH        -8.4010   -1.1040   12.1180 O.3   277  TYR277     -0.2866
    146  N        -10.1920    7.3700   17.7200 N.3   280  LYS280     -0.1245
    147  CA        -8.7440    7.6120   17.7880 C.3   280  LYS280      0.1561
    148  C         -8.3430    8.8450   16.9780 C.2   280  LYS280      0.2260
    149  O         -7.4550    9.5970   17.3900 O.2   280  LYS280     -0.2867
    150  CB        -7.9540    6.3690   17.3170 C.3   280  LYS280      0.0271
    151  CG        -8.0720    5.2160   18.3390 C.3   280  LYS280      0.0035
    152  CD        -7.0820    4.0620   18.0980 C.3   280  LYS280      0.0206
    153  CE        -7.5340    3.1610   16.9690 C.3   280  LYS280      0.1093
    154  NZ        -6.6990    1.9190   16.8380 N.3   280  LYS280     -0.1314
@<TRIPOS>BOND
     1    12    13    1
     2    13    14    1
     3    13    16    1
     4    14    15    2
     5    16    17    1
     6    17    18    1
     7    18    19    1
     8    19    20    1
     9   116   115    1
    10   116   117    2
    11   123   121   ar
    12   123   124   ar
    13   115   114    1
    14   115   118    1
    15   121   119   ar
    16   124   122   ar
    17   119   118    1
    18   119   120   ar
    19   143   144   ar
    20   143   141   ar
    21   145   144    1
    22   122   120   ar
    23   144   142   ar
    24   141   139   ar
    25    97    96    1
    26    98    96    1
    27   133   132    1
    28   142   140   ar
    29   139   140   ar
    30   139   138    1
    31   138   135    1
    32   131   132    1
    33   131   130    1
    34    41    42    1
    35    96    93    1
    36   129   130    1
    37   129   126    1
    38   127   126    1
    39   127   128    2
    40    48    49    1
    41    48    47    1
    42    86    85    2
    43   136   135    1
    44   136   137    2
    45   135   134    1
    46    93    92    1
    47    93    94    1
    48    91    90    2
    49   125   126    1
    50    46    47    1
    51    46    45    1
    52    42    45    1
    53    42    43    1
    54    87    84    1
    55    90    92   am
    56    90    89    1
    57    94    95    2
    58    94    99   am
    59    85    84    1
    60    85    88   am
    61    84    83    1
    62    99   100    1
    63    43    44    2
    64    89    88    1
    65   100   101    1
    66    11     9    1
    67   154   153    1
    68   153   152    1
    69   148   149    2
    70   148   147    1
    71    83    76   am
    72    66    64   ar
    73    66    67   ar
    74    64    63   ar
    75   150   147    1
    76   150   151    1
    77    77    76    2
    78   146   147    1
    79   101   102    2
    80   101   103   am
    81     9     8    2
    82     9    10    1
    83    76    75    1
    84   152   151    1
    85     8     7    1
    86    67    65   ar
    87    63    62    1
    88    63    65   ar
    89    32    31    1
    90    61    60    2
    91   103   104    1
    92    62    59    1
    93    79    80    1
    94    79    78    1
    95    59    60    1
    96    59    58    1
    97    73    72    1
    98    56    55   ar
    99    75    78    1
   100    75    74    1
   101    80    82   ar
   102    80    81   ar
   103    31    29   ar
   104    31    30   ar
   105     7     6    1
   106     6     5    1
   107   105   104    1
   108   105   106    2
   109    57    55   ar
   110    58    52   am
   111    74    70   am
   112    29    27   ar
   113   104   107    1
   114    30    28   ar
   115    55    54    1
   116    71    70    2
   117    70    69    1
   118    72    69    1
   119    68    69    1
   120     5     2    1
   121    27    26   ar
   122     3     2    1
   123     3     4    2
   124    28    26   ar
   125   107   108    1
   126    52    53    2
   127    52    51    1
   128     2     1    1
   129    33    34    1
   130    37    38    1
   131    37    34    1
   132   113   111    1
   133    54    51    1
   134   108   109    1
   135    26    25    1
   136   110   111    2
   137   110   109    1
   138    40    38   ar
   139    51    50    1
   140    38    39   ar
   141   111   112    1
   142    34    35    1
   143    25    22    1
   144    35    36    2
   145    22    23    1
   146    22    21    1
   147    23    24    2
