@<TRIPOS>MOLECULE
tmp/3mmpB00.pdb
 123 118 0 0 0
SMALL
GASTEIGER

@<TRIPOS>ATOM
      1  N         52.5510  -36.2130    6.8770 N.3   131  VAL131     -0.1231
      2  CA        52.5830  -36.0580    5.4400 C.3   131  VAL131      0.1678
      3  C         51.5980  -34.9380    5.1340 C.2   131  VAL131      0.2434
      4  O         50.6130  -34.7700    5.8660 O.2   131  VAL131     -0.2733
      5  CB        52.1460  -37.3910    4.7590 C.3   131  VAL131      0.0265
      6  CG1       50.6430  -37.5220    4.7650 C.3   131  VAL131      0.0020
      7  CG2       52.6780  -37.4930    3.3540 C.3   131  VAL131      0.0020
      8  N         51.8770  -34.1370    4.0860 N.am  132  PRO132     -0.2729
      9  CA        50.9450  -33.1120    3.5990 C.3   132  PRO132      0.1401
     10  C         49.6170  -33.7510    3.2050 C.2   132  PRO132      0.2269
     11  O         49.6310  -34.7620    2.5090 O.2   132  PRO132     -0.2865
     12  CB        51.6330  -32.5880    2.3350 C.3   132  PRO132      0.0296
     13  CG        53.0500  -32.9290    2.4900 C.3   132  PRO132      0.0237
     14  CD        53.0840  -34.2140    3.2500 C.3   132  PRO132      0.0939
     15  N         45.8460  -34.3700    1.5150 N.3   134  VAL134     -0.1245
     16  CA        45.1940  -34.2090    0.2340 C.3   134  VAL134      0.1561
     17  C         44.3270  -32.9540    0.2010 C.2   134  VAL134      0.2260
     18  O         44.3110  -32.2280   -0.7930 O.2   134  VAL134     -0.2867
     19  CB        44.3220  -35.4300   -0.0580 C.3   134  VAL134      0.0252
     20  CG1       43.4990  -35.2090   -1.3170 C.3   134  VAL134      0.0019
     21  CG2       45.1980  -36.6480   -0.1970 C.3   134  VAL134      0.0019
     22  N         46.6240  -29.8810   -0.0910 N.3   137  MET137     -0.1230
     23  CA        47.1690  -29.7380   -1.4230 C.3   137  MET137      0.1702
     24  C         46.0780  -29.2420   -2.3800 C.2   137  MET137      0.2592
     25  O         46.3250  -28.3870   -3.2370 O.2   137  MET137     -0.2718
     26  CB        47.7730  -31.0520   -1.9010 C.3   137  MET137      0.0401
     27  CG        49.0340  -31.4120   -1.1680 C.3   137  MET137      0.0596
     28  SD        50.3560  -30.2520   -1.5320 S.3   137  MET137     -0.1393
     29  CE        51.2140  -30.2810    0.0300 C.3   137  MET137      0.0692
     30  N         44.8680  -29.7650   -2.2060 N.am  138  LEU138     -0.1980
     31  CA        43.7400  -29.4080   -3.0610 C.3   138  LEU138      0.1596
     32  C         43.4510  -27.9200   -2.9320 C.2   138  LEU138      0.2287
     33  O         43.1520  -27.2430   -3.9080 O.2   138  LEU138     -0.2864
     34  CB        42.5060  -30.2080   -2.6550 C.3   138  LEU138      0.0297
     35  CG        41.8290  -31.1560   -3.6490 C.3   138  LEU138      0.0022
     36  CD1       42.7180  -31.4830   -4.8370 C.3   138  LEU138      0.0001
     37  CD2       41.3960  -32.4180   -2.9300 C.3   138  LEU138      0.0001
     38  N         47.4530  -25.7410   -3.9880 N.3   141  CYS141     -0.1235
     39  CA        48.1790  -25.8150   -5.2630 C.3   141  CYS141      0.1677
     40  C         47.6140  -24.8110   -6.2580 C.2   141  CYS141      0.2270
     41  O         46.4050  -24.6160   -6.3400 O.2   141  CYS141     -0.2867
     42  CB        48.1240  -27.2280   -5.8460 C.3   141  CYS141      0.0956
     43  SG        49.0690  -28.4230   -4.8770 S.3   141  CYS141     -0.0801
     44  N         54.5770  -38.0840  -11.1280 N.3   174  LYS174     -0.1231
     45  CA        53.4080  -38.7880  -10.6070 C.3   174  LYS174      0.1693
     46  C         52.3690  -37.8090  -10.0480 C.2   174  LYS174      0.2592
     47  O         51.1660  -38.0880  -10.0950 O.2   174  LYS174     -0.2718
     48  CB        53.8170  -39.8420   -9.5700 C.3   174  LYS174      0.0285
     49  CG        54.5300  -39.2650   -8.3520 C.3   174  LYS174      0.0035
     50  CD        55.0170  -40.3730   -7.4580 C.3   174  LYS174      0.0206
     51  CE        55.5190  -39.8540   -6.1170 C.3   174  LYS174      0.1093
     52  NZ        55.3550  -40.8790   -5.0300 N.3   174  LYS174     -0.1314
     53  N         52.8280  -36.6600   -9.5420 N.am  175  TYR175     -0.1976
     54  CA        51.9110  -35.5980   -9.1080 C.3   175  TYR175      0.1639
     55  C         51.1110  -35.0540  -10.2940 C.2   175  TYR175      0.2290
     56  O         49.8790  -34.9940  -10.2460 O.2   175  TYR175     -0.2864
     57  CB        52.6540  -34.4630   -8.3920 C.3   175  TYR175      0.0560
     58  CG        53.3420  -34.9060   -7.1160 C.ar  175  TYR175     -0.0198
     59  CD1       52.7880  -34.6410   -5.8630 C.ar  175  TYR175     -0.0009
     60  CD2       54.5430  -35.5990   -7.1670 C.ar  175  TYR175     -0.0009
     61  CE1       53.4190  -35.0590   -4.6940 C.ar  175  TYR175      0.0417
     62  CE2       55.1810  -36.0250   -6.0170 C.ar  175  TYR175      0.0417
     63  CZ        54.6150  -35.7570   -4.7820 C.ar  175  TYR175      0.1957
     64  OH        55.2670  -36.1790   -3.6510 O.3   175  TYR175     -0.2866
     65  N         48.5960  -37.6200  -11.3720 N.3   178  ALA178     -0.1231
     66  CA        47.4330  -37.6900  -10.4910 C.3   178  ALA178      0.1694
     67  C         46.4790  -36.5220  -10.7490 C.2   178  ALA178      0.2591
     68  O         45.2520  -36.6920  -10.7630 O.2   178  ALA178     -0.2718
     69  CB        47.8520  -37.7470   -9.0370 C.3   178  ALA178      0.0304
     70  N         47.0510  -35.3420  -10.9730 N.am  179  LEU179     -0.1980
     71  CA        46.2600  -34.1840  -11.4120 C.3   179  LEU179      0.1596
     72  C         45.5320  -34.5220  -12.7210 C.2   179  LEU179      0.2287
     73  O         44.3190  -34.2930  -12.8680 O.2   179  LEU179     -0.2864
     74  CB        47.1670  -32.9700  -11.6390 C.3   179  LEU179      0.0297
     75  CG        46.6110  -31.5570  -11.4260 C.3   179  LEU179      0.0022
     76  CD1       47.2150  -30.6060  -12.4210 C.3   179  LEU179      0.0001
     77  CD2       45.1140  -31.5060  -11.5010 C.3   179  LEU179      0.0001
     78  N         42.4760  -36.6750  -12.5280 N.3   182  SER182     -0.1217
     79  CA        41.3550  -36.1720  -11.7450 C.3   182  SER182      0.1889
     80  C         40.4500  -35.2240  -12.5190 C.2   182  SER182      0.2288
     81  O         39.4170  -34.8010  -12.0030 O.2   182  SER182     -0.2866
     82  CB        41.8650  -35.4970  -10.4660 C.3   182  SER182      0.2089
     83  OG        42.3600  -34.2010  -10.7620 O.3   182  SER182     -0.2183
     84  N         53.7140  -25.3440   -9.3780 N.3   220  PHE220     -0.1227
     85  CA        52.3070  -25.5750   -9.0590 C.3   220  PHE220      0.1736
     86  C         52.1580  -26.3360   -7.7330 C.2   220  PHE220      0.2595
     87  O         51.3330  -25.9480   -6.8910 O.2   220  PHE220     -0.2718
     88  CB        51.6670  -26.3390  -10.2070 C.3   220  PHE220      0.0547
     89  CG        50.1970  -26.6490  -10.0400 C.ar  220  PHE220     -0.0202
     90  CD1       49.7850  -27.8620   -9.4910 C.ar  220  PHE220     -0.0042
     91  CD2       49.2290  -25.7700  -10.5160 C.ar  220  PHE220     -0.0042
     92  CE1       48.4300  -28.1690   -9.3700 C.ar  220  PHE220     -0.0003
     93  CE2       47.8710  -26.0770  -10.4130 C.ar  220  PHE220     -0.0003
     94  CZ        47.4710  -27.2770   -9.8420 C.ar  220  PHE220     -0.0000
     95  N         52.9640  -27.3900   -7.5460 N.am  221  PHE221     -0.1976
     96  CA        52.8650  -28.2430   -6.3500 C.3   221  PHE221      0.1639
     97  C         53.6310  -27.6810   -5.1550 C.2   221  PHE221      0.2290
     98  O         53.1910  -27.8210   -4.0170 O.2   221  PHE221     -0.2864
     99  CB        53.2690  -29.7050   -6.6490 C.3   221  PHE221      0.0560
    100  CG        52.2720  -30.4280   -7.4930 C.ar  221  PHE221     -0.0200
    101  CD1       52.5190  -30.6540   -8.8420 C.ar  221  PHE221     -0.0042
    102  CD2       51.0550  -30.8370   -6.9570 C.ar  221  PHE221     -0.0042
    103  CE1       51.5840  -31.3070   -9.6350 C.ar  221  PHE221     -0.0003
    104  CE2       50.1110  -31.4740   -7.7400 C.ar  221  PHE221     -0.0003
    105  CZ        50.3760  -31.7120   -9.0820 C.ar  221  PHE221     -0.0000
    106  N         58.2280  -35.6880    0.0380 N.3   287  VAL287     -0.1245
    107  CA        57.4840  -34.7950   -0.8370 C.3   287  VAL287      0.1561
    108  C         58.2950  -33.5610   -1.2200 C.2   287  VAL287      0.2260
    109  O         58.3590  -33.1880   -2.3920 O.2   287  VAL287     -0.2867
    110  CB        56.1220  -34.4430   -0.2690 C.3   287  VAL287      0.0252
    111  CG1       55.4550  -33.4190   -1.1440 C.3   287  VAL287      0.0019
    112  CG2       55.2600  -35.7120   -0.2180 C.3   287  VAL287      0.0019
    113  N         39.4310  -23.3880  -12.4080 N.3   503  PHE503     -0.1241
    114  CA        40.2740  -23.9190  -11.3460 C.3   503  PHE503      0.1605
    115  C         40.1950  -23.0560  -10.0760 C.2   503  PHE503      0.2264
    116  O         40.0250  -23.5700   -8.9740 O.2   503  PHE503     -0.2867
    117  CB        41.7270  -24.0060  -11.8200 C.3   503  PHE503      0.0534
    118  CG        42.6770  -24.5540  -10.7840 C.ar  503  PHE503     -0.0203
    119  CD1       42.8580  -25.9190  -10.6420 C.ar  503  PHE503     -0.0042
    120  CD2       43.3870  -23.6960   -9.9520 C.ar  503  PHE503     -0.0042
    121  CE1       43.7200  -26.4280   -9.6980 C.ar  503  PHE503     -0.0003
    122  CE2       44.2580  -24.1980   -9.0150 C.ar  503  PHE503     -0.0003
    123  CZ        44.4260  -25.5700   -8.8850 C.ar  503  PHE503     -0.0000
@<TRIPOS>BOND
     1    73    72    2
     2    72    71    1
     3    78    79    1
     4    80    81    2
     5    80    79    1
     6    76    75    1
     7   113   114    1
     8   117   114    1
     9   117   118    1
    10    79    82    1
    11    74    75    1
    12    74    71    1
    13    77    75    1
    14    71    70    1
    15    65    66    1
    16   114   115    1
    17    44    45    1
    18    70    67   am
    19   118   119   ar
    20   118   120   ar
    21    68    67    2
    22    83    82    1
    23    67    66    1
    24   119   121   ar
    25    45    46    1
    26    45    48    1
    27    91    93   ar
    28    91    89   ar
    29    66    69    1
    30    93    94   ar
    31    55    56    2
    32    55    54    1
    33    88    89    1
    34    88    85    1
    35    47    46    2
    36   115   116    2
    37    46    53   am
    38    89    90   ar
    39   120   122   ar
    40    94    92   ar
    41   121   123   ar
    42   103   105   ar
    43   103   101   ar
    44    48    49    1
    45    53    54    1
    46    90    92   ar
    47    84    85    1
    48    54    57    1
    49   105   104   ar
    50    85    86    1
    51   122   123   ar
    52   101   100   ar
    53    57    58    1
    54    49    50    1
    55   104   102   ar
    56    86    95   am
    57    86    87    2
    58    95    96    1
    59   100   102   ar
    60   100    99    1
    61    50    51    1
    62    60    58   ar
    63    60    62   ar
    64    58    59   ar
    65    99    96    1
    66    96    97    1
    67    41    40    2
    68    40    39    1
    69    51    52    1
    70    62    63   ar
    71    59    61   ar
    72    42    39    1
    73    42    43    1
    74    39    38    1
    75    97    98    2
    76    36    35    1
    77    63    61   ar
    78    63    64    1
    79    33    32    2
    80    35    37    1
    81    35    34    1
    82    25    24    2
    83    31    32    1
    84    31    34    1
    85    31    30    1
    86   109   108    2
    87    24    30   am
    88    24    23    1
    89    26    23    1
    90    26    27    1
    91    28    27    1
    92    28    29    1
    93    23    22    1
    94    20    19    1
    95   108   107    1
    96   111   110    1
    97   107   110    1
    98   107   106    1
    99    18    17    2
   100   110   112    1
   101    21    19    1
   102    19    16    1
   103    17    16    1
   104    16    15    1
   105    12    13    1
   106    12     9    1
   107    13    14    1
   108    11    10    2
   109    10     9    1
   110    14     8    1
   111     7     5    1
   112     9     8    1
   113     8     3   am
   114     5     6    1
   115     5     2    1
   116     3     2    1
   117     3     4    2
   118     2     1    1
