@<TRIPOS>MOLECULE
tmp/3mmrA00.pdb
 134 124 0 0 0
SMALL
GASTEIGER

@<TRIPOS>ATOM
      1  N         43.7120   -9.1790   24.6110 N.3    90  HIS90      -0.1241
      2  CA        43.6940   -8.9890   23.1600 C.3    90  HIS90       0.1621
      3  C         42.8210   -7.8160   22.7330 C.2    90  HIS90       0.2264
      4  O         42.8470   -7.4160   21.5780 O.2    90  HIS90      -0.2867
      5  CB        43.2370  -10.2580   22.4330 C.3    90  HIS90       0.0745
      6  CG        43.9650  -10.5000   21.1490 C.ar   90  HIS90       0.0817
      7  ND1       44.2870  -11.7610   20.7020 N.ar   90  HIS90      -0.2268
      8  CD2       44.4750   -9.6370   20.2370 C.ar   90  HIS90       0.1154
      9  CE1       44.9420  -11.6690   19.5560 C.ar   90  HIS90       0.1986
     10  NE2       45.0780  -10.3910   19.2560 N.ar   90  HIS90      -0.2212
     11  N         42.3560  -19.0560   19.5350 N.3   115  HIS115     -0.1241
     12  CA        40.9450  -18.6730   19.4550 C.3   115  HIS115      0.1621
     13  C         40.6560  -17.7550   18.2700 C.2   115  HIS115      0.2264
     14  O         41.5680  -17.2030   17.6650 O.2   115  HIS115     -0.2867
     15  CB        40.5140  -17.9790   20.7510 C.3   115  HIS115      0.0745
     16  CG        40.9570  -18.6990   21.9830 C.ar  115  HIS115      0.0817
     17  ND1       42.0890  -18.3470   22.6820 N.ar  115  HIS115     -0.2268
     18  CD2       40.4410  -19.7770   22.6210 C.ar  115  HIS115      0.1154
     19  CE1       42.2500  -19.1690   23.7010 C.ar  115  HIS115      0.1986
     20  NE2       41.2620  -20.0440   23.6890 N.ar  115  HIS115     -0.2212
     21  N         38.4970  -15.0930   18.4220 N.3   117  ASP117     -0.1239
     22  CA        38.2230  -13.7420   18.9090 C.3   117  ASP117      0.1674
     23  C         37.2370  -13.0520   17.9740 C.2   117  ASP117      0.2266
     24  O         37.2560  -11.8320   17.8100 O.2   117  ASP117     -0.2867
     25  CB        39.5200  -12.9420   19.0480 C.3   117  ASP117      0.1410
     26  CG        40.4100  -13.4860   20.1380 C.2   117  ASP117      0.3668
     27  OD1       39.9940  -14.4560   20.8160 O.co2 117  ASP117     -0.2456
     28  OD2       41.5180  -12.9470   20.3230 O.co2 117  ASP117     -0.2456
     29  N         33.7040  -13.7000   17.9720 N.3   119  ASN119     -0.1240
     30  CA        32.3290  -13.5560   18.4440 C.3   119  ASN119      0.1653
     31  C         31.8310  -12.1270   18.2700 C.2   119  ASN119      0.2266
     32  O         32.6010  -11.1790   18.3930 O.2   119  ASN119     -0.2867
     33  CB        32.2250  -13.9060   19.9240 C.3   119  ASN119      0.1155
     34  CG        32.0300  -15.3810   20.1530 C.2   119  ASN119      0.2627
     35  OD1       31.1010  -15.9840   19.6110 O.2   119  ASN119     -0.2716
     36  ND2       32.9170  -15.9800   20.9390 N.am  119  ASN119     -0.0877
     37  N         28.4520  -14.1540   21.8230 N.3   124  SER124     -0.1203
     38  CA        29.4540  -14.3890   22.8620 C.3   124  SER124      0.2005
     39  C         28.8900  -15.1920   24.0320 C.2   124  SER124      0.2461
     40  O         27.8480  -14.8400   24.5770 O.2   124  SER124     -0.2732
     41  CB        30.0050  -13.0600   23.3850 C.3   124  SER124      0.2103
     42  OG        30.9160  -13.2730   24.4510 O.3   124  SER124     -0.2182
     43  N         29.5880  -16.2710   24.4210 N.am  125  PRO125     -0.2717
     44  CA        29.2070  -17.0880   25.5810 C.3   125  PRO125      0.1535
     45  C         29.5660  -16.3990   26.8890 C.2   125  PRO125      0.2599
     46  O         29.0360  -16.7480   27.9420 O.2   125  PRO125     -0.2715
     47  CB        30.0790  -18.3470   25.4360 C.3   125  PRO125      0.0310
     48  CG        30.6750  -18.2820   24.0690 C.3   125  PRO125      0.0237
     49  CD        30.7480  -16.8320   23.7130 C.3   125  PRO125      0.0939
     50  N         30.4690  -15.4270   26.8170 N.am  126  SER126     -0.1950
     51  CA        31.0970  -14.8810   28.0090 C.3   126  SER126      0.1924
     52  C         30.8190  -13.3940   28.2330 C.2   126  SER126      0.2314
     53  O         30.8490  -12.9190   29.3680 O.2   126  SER126     -0.2863
     54  CB        32.6050  -15.0770   27.9030 C.3   126  SER126      0.2116
     55  OG        33.1200  -14.2280   26.8910 O.3   126  SER126     -0.2180
     56  N         32.8690  -11.3150   27.3510 N.3   128  ASN128     -0.1240
     57  CA        34.2300  -10.7900   27.4370 C.3   128  ASN128      0.1653
     58  C         34.6910  -10.2720   26.0840 C.2   128  ASN128      0.2266
     59  O         34.6890  -11.0040   25.0920 O.2   128  ASN128     -0.2867
     60  CB        35.2020  -11.8610   27.9290 C.3   128  ASN128      0.1155
     61  CG        34.8470  -12.3710   29.3080 C.2   128  ASN128      0.2627
     62  OD1       34.2870  -11.6400   30.1230 O.2   128  ASN128     -0.2716
     63  ND2       35.1690  -13.6290   29.5760 N.am  128  ASN128     -0.0877
     64  N         37.6330   -9.4330   24.8210 N.3   130  HIS130     -0.1226
     65  CA        38.8240   -9.9860   24.1610 C.3   130  HIS130      0.1752
     66  C         38.4700  -11.1580   23.2380 C.2   130  HIS130      0.2596
     67  O         39.2320  -11.4940   22.3270 O.2   130  HIS130     -0.2718
     68  CB        39.9330  -10.3580   25.1680 C.3   130  HIS130      0.0759
     69  CG        39.6640  -11.6090   25.9500 C.ar  130  HIS130      0.0818
     70  ND1       40.6630  -12.3170   26.5860 N.ar  130  HIS130     -0.2268
     71  CD2       38.5120  -12.2780   26.1990 C.ar  130  HIS130      0.1154
     72  CE1       40.1380  -13.3710   27.1880 C.ar  130  HIS130      0.1986
     73  NE2       38.8340  -13.3720   26.9670 N.ar  130  HIS130     -0.2212
     74  N         37.3050  -11.7610   23.4600 N.am  131  GLY131     -0.1957
     75  CA        36.8250  -12.8220   22.5920 C.3   131  GLY131      0.1869
     76  C         36.0210  -12.3020   21.4050 C.2   131  GLY131      0.2309
     77  O         35.4790  -13.0920   20.6260 O.2   131  GLY131     -0.2863
     78  N         40.2500  -23.7180   19.3140 N.3   169  ASP169     -0.1239
     79  CA        39.1830  -23.6180   20.3130 C.3   169  ASP169      0.1674
     80  C         38.1750  -22.5290   19.9190 C.2   169  ASP169      0.2266
     81  O         38.2800  -21.3780   20.3490 O.2   169  ASP169     -0.2867
     82  CB        39.7890  -23.3730   21.7090 C.3   169  ASP169      0.1410
     83  CG        38.7350  -23.1830   22.8010 C.2   169  ASP169      0.3668
     84  OD1       37.5570  -23.5460   22.5940 O.co2 169  ASP169     -0.2456
     85  OD2       39.0920  -22.6660   23.8870 O.co2 169  ASP169     -0.2456
     86  N         34.0570  -21.3230   19.4140 N.3   171  ASP171     -0.1239
     87  CA        32.6900  -21.5390   19.9090 C.3   171  ASP171      0.1674
     88  C         31.7330  -21.8920   18.7670 C.2   171  ASP171      0.2266
     89  O         31.9840  -21.5650   17.6110 O.2   171  ASP171     -0.2867
     90  CB        32.1690  -20.3040   20.6580 C.3   171  ASP171      0.1410
     91  CG        33.0950  -19.8610   21.7840 C.2   171  ASP171      0.3668
     92  OD1       33.7260  -20.7310   22.4330 O.co2 171  ASP171     -0.2456
     93  OD2       33.1930  -18.6360   22.0190 O.co2 171  ASP171     -0.2456
     94  N         30.5680  -19.0150   16.7000 N.3   174  GLU174     -0.1245
     95  CA        31.7980  -18.4680   16.1570 C.3   174  GLU174      0.1567
     96  C         32.2250  -19.1960   14.8850 C.2   174  GLU174      0.2260
     97  O         32.7300  -18.5730   13.9530 O.2   174  GLU174     -0.2867
     98  CB        32.8990  -18.5460   17.2230 C.3   174  GLU174      0.0388
     99  CG        33.9530  -17.4840   17.1090 C.3   174  GLU174      0.1160
    100  CD        35.0080  -17.5760   18.2010 C.2   174  GLU174      0.3649
    101  OE1       34.9720  -18.5200   19.0280 O.co2 174  GLU174     -0.2457
    102  OE2       35.8830  -16.6910   18.2230 O.co2 174  GLU174     -0.2457
    103  N         48.7310  -13.4680   20.0240 N.3   220  ASP220     -0.1239
    104  CA        48.2260  -13.9550   21.2990 C.3   220  ASP220      0.1674
    105  C         49.1000  -15.1460   21.7170 C.2   220  ASP220      0.2266
    106  O         49.1760  -16.1450   21.0010 O.2   220  ASP220     -0.2867
    107  CB        46.7750  -14.3960   21.1340 C.3   220  ASP220      0.1410
    108  CG        46.1330  -14.8220   22.4400 C.2   220  ASP220      0.3668
    109  OD1       46.8520  -15.2160   23.3840 O.co2 220  ASP220     -0.2456
    110  OD2       44.8920  -14.7720   22.5120 O.co2 220  ASP220     -0.2456
    111  N         48.7400  -17.4000   23.8180 N.3   222  ASP222     -0.1239
    112  CA        48.0500  -18.6760   24.0280 C.3   222  ASP222      0.1674
    113  C         47.9430  -19.5230   22.7620 C.2   222  ASP222      0.2266
    114  O         47.4550  -20.6490   22.8030 O.2   222  ASP222     -0.2867
    115  CB        46.6920  -18.5270   24.7370 C.3   222  ASP222      0.1410
    116  CG        45.5890  -17.9400   23.8460 C.2   222  ASP222      0.3668
    117  OD1       45.6480  -18.0200   22.5880 O.co2 222  ASP222     -0.2456
    118  OD2       44.6320  -17.4100   24.4430 O.co2 222  ASP222     -0.2456
    119  N         43.8050  -18.2080   29.0670 N.3   234  THR234     -0.1218
    120  CA        42.8690  -19.0990   28.4040 C.3   234  THR234      0.1862
    121  C         43.6260  -20.1170   27.5690 C.2   234  THR234      0.2287
    122  O         43.9760  -19.8540   26.4280 O.2   234  THR234     -0.2866
    123  CB        41.8860  -18.3140   27.5390 C.3   234  THR234      0.1770
    124  OG1       41.1380  -17.4240   28.3750 O.3   234  THR234     -0.2211
    125  CG2       40.9260  -19.2480   26.8370 C.3   234  THR234      0.0375
    126  N         48.0920  -11.0640   26.0230 N.3   265  GLU265     -0.1245
    127  CA        47.6400  -12.1880   26.8610 C.3   265  GLU265      0.1567
    128  C         48.7310  -12.9080   27.6710 C.2   265  GLU265      0.2260
    129  O         48.4840  -13.9720   28.2500 O.2   265  GLU265     -0.2867
    130  CB        46.8160  -13.2030   26.0570 C.3   265  GLU265      0.0388
    131  CG        45.5820  -12.6090   25.3470 C.3   265  GLU265      0.1160
    132  CD        44.4450  -12.2950   26.3010 C.2   265  GLU265      0.3649
    133  OE1       44.5880  -12.5840   27.5010 O.co2 265  GLU265     -0.2457
    134  OE2       43.4030  -11.7650   25.8580 O.co2 265  GLU265     -0.2457
@<TRIPOS>BOND
     1    97    96    2
     2    96    95    1
     3    95    94    1
     4    95    98    1
     5    99    98    1
     6    99   100    1
     7    89    88    2
     8    14    13    2
     9    24    23    2
    10    29    30    1
    11    23    22    1
    12   100   102   ar
    13   100   101   ar
    14    31    32    2
    15    31    30    1
    16    13    12    1
    17    21    22    1
    18    30    33    1
    19    88    87    1
    20    22    25    1
    21    25    26    1
    22    10     9   ar
    23    10     8   ar
    24    78    79    1
    25    86    87    1
    26    12    11    1
    27    12    15    1
    28     9     7   ar
    29    35    34    2
    30    87    90    1
    31    80    79    1
    32    80    81    2
    33    33    34    1
    34   103   104    1
    35    26    28   ar
    36    26    27   ar
    37    34    36   am
    38     8     6   ar
    39    79    82    1
    40    77    76    2
    41    90    91    1
    42     7     6   ar
    43    15    16    1
    44   106   105    2
    45   107   104    1
    46   107   108    1
    47     6     5    1
    48   104   105    1
    49    76    75    1
    50     4     3    2
    51    82    83    1
    52    91    93   ar
    53    91    92   ar
    54    37    38    1
    55    16    18   ar
    56    16    17   ar
    57    67    66    2
    58     5     2    1
    59   108   110   ar
    60   108   109   ar
    61   117   116   ar
    62    75    74    1
    63    84    83   ar
    64    18    20   ar
    65    17    19   ar
    66     3     2    1
    67   113   114    2
    68   113   112    1
    69    83    85   ar
    70    38    41    1
    71    38    39    1
    72     2     1    1
    73    66    74   am
    74    66    65    1
    75    41    42    1
    76    20    19   ar
    77    49    48    1
    78    49    43    1
    79   111   112    1
    80   116   118   ar
    81   116   115    1
    82   112   115    1
    83    39    43   am
    84    39    40    2
    85    48    47    1
    86    65    64    1
    87    65    68    1
    88    43    44    1
    89    59    58    2
    90    68    69    1
    91   131   130    1
    92   131   132    1
    93    47    44    1
    94    44    45    1
    95   134   132   ar
    96    69    71   ar
    97    69    70   ar
    98   126   127    1
    99   130   127    1
   100    58    57    1
   101    71    73   ar
   102   132   133   ar
   103   122   121    2
   104    70    72   ar
   105    50    45   am
   106    50    51    1
   107   125   123    1
   108   127   128    1
   109    45    46    2
   110    55    54    1
   111    73    72   ar
   112    56    57    1
   113    57    60    1
   114   123   124    1
   115   123   120    1
   116   121   120    1
   117   128   129    2
   118    54    51    1
   119    60    61    1
   120    51    52    1
   121    52    53    2
   122   120   119    1
   123    61    63   am
   124    61    62    2
