@<TRIPOS>MOLECULE
tmp/3mmsA00.pdb
 93 89 0 0 0
SMALL
GASTEIGER

@<TRIPOS>ATOM
      1  N        -38.1710 -111.9470  -17.8780 N.3    76  SER76      -0.1202
      2  CA       -38.1890 -110.5580  -18.3070 C.3    76  SER76       0.2020
      3  C        -37.6550 -109.6170  -17.2440 C.2    76  SER76       0.2619
      4  O        -37.6930 -109.9140  -16.0520 O.2    76  SER76      -0.2717
      5  CB       -39.6370 -110.1690  -18.6570 C.3    76  SER76       0.2103
      6  OG       -40.4570 -110.2420  -17.5040 O.3    76  SER76      -0.2182
      7  N        -37.1630 -108.4610  -17.6820 N.am   77  ALA77      -0.1965
      8  CA       -36.6600 -107.4520  -16.7490 C.3    77  ALA77       0.1728
      9  C        -36.8680 -106.0720  -17.3590 C.2    77  ALA77       0.2616
     10  O        -37.2640 -105.9530  -18.5350 O.2    77  ALA77      -0.2715
     11  CB       -35.1440 -107.6740  -16.4630 C.3    77  ALA77       0.0334
     12  N        -36.5980 -105.0420  -16.5610 N.am   78  GLY78      -0.1955
     13  CA       -36.7370 -103.6610  -17.0190 C.3    78  GLY78       0.1869
     14  C        -35.3820 -103.1060  -17.3880 C.2    78  GLY78       0.2309
     15  O        -34.4240 -103.2360  -16.6110 O.2    78  GLY78      -0.2863
     16  N        -39.4480 -105.2230   -5.5120 N.3   146  SER146     -0.1202
     17  CA       -40.2370 -104.0800   -5.9470 C.3   146  SER146      0.2020
     18  C        -40.2660 -104.0750   -7.4640 C.2   146  SER146      0.2619
     19  O        -39.2820 -104.4170   -8.1080 O.2   146  SER146     -0.2717
     20  CB       -39.7270 -102.7220   -5.4600 C.3   146  SER146      0.2103
     21  OG       -39.9070 -102.5610   -4.0680 O.3   146  SER146     -0.2182
     22  N        -41.3930 -103.6680   -8.0320 N.am  147  PHE147     -0.1961
     23  CA       -41.4770 -103.5290   -9.4730 C.3   147  PHE147      0.1771
     24  C        -41.1370 -102.0660   -9.6940 C.2   147  PHE147      0.2619
     25  O        -41.8210 -101.1840   -9.1850 O.2   147  PHE147     -0.2715
     26  CB       -42.8930 -103.8320   -9.9740 C.3   147  PHE147      0.0574
     27  CG       -43.0080 -103.7690  -11.4630 C.ar  147  PHE147     -0.0200
     28  CD1      -42.7140 -104.8860  -12.2470 C.ar  147  PHE147     -0.0042
     29  CD2      -43.3620 -102.5780  -12.0860 C.ar  147  PHE147     -0.0042
     30  CE1      -42.7720 -104.8000  -13.6500 C.ar  147  PHE147     -0.0003
     31  CE2      -43.4170 -102.4930  -13.4760 C.ar  147  PHE147     -0.0003
     32  CZ       -43.1210 -103.6070  -14.2500 C.ar  147  PHE147     -0.0000
     33  N        -40.0620 -101.8100  -10.4350 N.am  148  VAL148     -0.1977
     34  CA       -39.5700 -100.4450  -10.6850 C.3   148  VAL148      0.1596
     35  C        -40.3770  -99.7810  -11.7900 C.2   148  VAL148      0.2287
     36  O        -40.4280 -100.2740  -12.9120 O.2   148  VAL148     -0.2864
     37  CB       -38.0570 -100.4920  -11.0460 C.3   148  VAL148      0.0276
     38  CG1      -37.4910  -99.0690  -11.2010 C.3   148  VAL148      0.0022
     39  CG2      -37.2820 -101.2370   -9.9440 C.3   148  VAL148      0.0022
     40  N        -33.2440 -104.2210  -14.1620 N.3   167  VAL167     -0.1231
     41  CA       -33.7670 -104.4520  -12.8240 C.3   167  VAL167      0.1692
     42  C        -34.9030 -105.4610  -12.8490 C.2   167  VAL167      0.2592
     43  O        -35.6980 -105.4900  -13.7800 O.2   167  VAL167     -0.2718
     44  CB       -34.2820 -103.1490  -12.1920 C.3   167  VAL167      0.0266
     45  CG1      -33.1420 -102.1630  -12.0190 C.3   167  VAL167      0.0020
     46  CG2      -35.3880 -102.5460  -13.0450 C.3   167  VAL167      0.0020
     47  N        -34.9700 -106.2860  -11.8140 N.am  168  GLU168     -0.1966
     48  CA       -36.0580 -107.2410  -11.6710 C.3   168  GLU168      0.1733
     49  C        -36.0750 -107.8350  -10.2640 C.2   168  GLU168      0.2616
     50  O        -35.2370 -107.4900   -9.4390 O.2   168  GLU168     -0.2715
     51  CB       -35.9210 -108.4020  -12.6590 C.3   168  GLU168      0.0429
     52  CG       -34.5100 -108.9360  -12.8080 C.3   168  GLU168      0.1163
     53  CD       -34.0790 -109.7060  -11.5830 C.2   168  GLU168      0.3649
     54  OE1      -34.5070 -110.8630  -11.4390 O.co2 168  GLU168     -0.2457
     55  OE2      -33.3370 -109.1430  -10.7610 O.co2 168  GLU168     -0.2457
     56  N        -37.0410 -108.7040   -9.9860 N.am  169  MET169     -0.1977
     57  CA       -37.2900 -109.1120   -8.6080 C.3   169  MET169      0.1605
     58  C        -36.7900 -110.4570   -8.0800 C.2   169  MET169      0.2287
     59  O        -37.1430 -110.8430   -6.9720 O.2   169  MET169     -0.2864
     60  CB       -38.8110 -109.0160   -8.4260 C.3   169  MET169      0.0413
     61  CG       -39.3640 -107.6360   -8.7270 C.3   169  MET169      0.0598
     62  SD       -41.1660 -107.5790   -8.7850 S.3   169  MET169     -0.1393
     63  CE       -41.5630 -107.7780   -7.0510 C.3   169  MET169      0.0692
     64  N        -38.6130 -106.1610  -21.2130 N.3   192  SER192     -0.1202
     65  CA       -40.0230 -105.9550  -21.5650 C.3   192  SER192      0.2020
     66  C        -40.4610 -104.5000  -21.4030 C.2   192  SER192      0.2618
     67  O        -41.5390 -104.1170  -21.8760 O.2   192  SER192     -0.2717
     68  CB       -40.9270 -106.8030  -20.6620 C.3   192  SER192      0.2103
     69  OG       -40.6880 -106.4800  -19.2950 O.3   192  SER192     -0.2182
     70  N        -39.6620 -103.6990  -20.7200 N.am  193  ASP193     -0.1973
     71  CA       -40.0420 -102.3260  -20.4460 C.3   193  ASP193      0.1709
     72  C        -38.8060 -101.5360  -20.0170 C.2   193  ASP193      0.2293
     73  O        -37.6950 -102.0920  -19.9730 O.2   193  ASP193     -0.2864
     74  CB       -41.1220 -102.2960  -19.3250 C.3   193  ASP193      0.1436
     75  CG       -40.6460 -102.9420  -18.0280 C.2   193  ASP193      0.3671
     76  OD1      -40.0270 -102.2320  -17.2080 O.co2 193  ASP193     -0.2456
     77  OD2      -40.8840 -104.1580  -17.8500 O.co2 193  ASP193     -0.2456
     78  N        -38.7690  -99.7150  -17.0690 N.3   195  ALA195     -0.1245
     79  CA       -38.8340  -99.4970  -15.6290 C.3   195  ALA195      0.1562
     80  C        -39.1850  -98.0540  -15.2870 C.2   195  ALA195      0.2260
     81  O        -38.8620  -97.5720  -14.2070 O.2   195  ALA195     -0.2867
     82  CB       -37.5160  -99.8840  -14.9820 C.3   195  ALA195      0.0290
     83  N        -44.8400 -103.7220  -19.7190 N.3   203  PHE203     -0.1241
     84  CA       -44.6380 -105.0730  -19.2090 C.3   203  PHE203      0.1605
     85  C        -45.8540 -105.9230  -19.6790 C.2   203  PHE203      0.2264
     86  O        -45.6830 -107.0200  -20.2390 O.2   203  PHE203     -0.2867
     87  CB       -44.5980 -105.0520  -17.6770 C.3   203  PHE203      0.0534
     88  CG       -44.6390 -106.4160  -17.0590 C.ar  203  PHE203     -0.0203
     89  CD1      -45.8630 -107.0350  -16.7820 C.ar  203  PHE203     -0.0042
     90  CD2      -43.4540 -107.1030  -16.7870 C.ar  203  PHE203     -0.0042
     91  CE1      -45.9090 -108.3210  -16.2440 C.ar  203  PHE203     -0.0003
     92  CE2      -43.4800 -108.3880  -16.2450 C.ar  203  PHE203     -0.0003
     93  CZ       -44.7060 -109.0060  -15.9700 C.ar  203  PHE203     -0.0000
@<TRIPOS>BOND
     1    67    66    2
     2    65    66    1
     3    65    64    1
     4    65    68    1
     5    66    70   am
     6    70    71    1
     7    68    69    1
     8    71    72    1
     9    71    74    1
    10    86    85    2
    11    72    73    2
    12    83    84    1
    13    85    84    1
    14    74    75    1
    15    84    87    1
    16     5     2    1
    17     5     6    1
    18    10     9    2
    19     2     1    1
    20     2     3    1
    21    75    77   ar
    22    75    76   ar
    23     7     3   am
    24     7     8    1
    25    87    88    1
    26    14    13    1
    27    14    15    2
    28     9     8    1
    29     9    12   am
    30     3     4    2
    31    78    79    1
    32    88    90   ar
    33    88    89   ar
    34    13    12    1
    35    90    92   ar
    36    89    91   ar
    37     8    11    1
    38    92    93   ar
    39    91    93   ar
    40    79    80    1
    41    79    82    1
    42    80    81    2
    43    32    30   ar
    44    32    31   ar
    45    40    41    1
    46    43    42    2
    47    30    28   ar
    48    31    29   ar
    49    46    44    1
    50    36    35    2
    51    42    41    1
    52    42    47   am
    53    41    44    1
    54    52    51    1
    55    52    53    1
    56    51    48    1
    57    28    27   ar
    58    44    45    1
    59    29    27   ar
    60    47    48    1
    61    35    34    1
    62    48    49    1
    63    53    54   ar
    64    53    55   ar
    65    27    26    1
    66    38    37    1
    67    37    34    1
    68    37    39    1
    69    34    33    1
    70    33    24   am
    71    49    56   am
    72    49    50    2
    73    56    57    1
    74    26    23    1
    75    24    23    1
    76    24    25    2
    77    23    22    1
    78    62    61    1
    79    62    63    1
    80    61    60    1
    81    57    60    1
    82    57    58    1
    83    19    18    2
    84    58    59    2
    85    22    18   am
    86    18    17    1
    87    17    16    1
    88    17    20    1
    89    20    21    1
