@<TRIPOS>MOLECULE
tmp/3mmtD00.pdb
 165 152 0 0 0
SMALL
GASTEIGER

@<TRIPOS>ATOM
      1  N          1.2430  -22.9720   11.0370 N.3    22  ALA22      -0.1245
      2  CA         2.0680  -21.8910   10.4890 C.3    22  ALA22       0.1562
      3  C          2.6270  -22.3020    9.1240 C.2    22  ALA22       0.2260
      4  O          3.7060  -22.8690    9.0460 O.2    22  ALA22      -0.2867
      5  CB         3.2310  -21.5580   11.4740 C.3    22  ALA22       0.0290
      6  N          3.1050  -20.1060    6.5420 N.3    24  ASP24      -0.1225
      7  CA         3.4000  -18.8030    5.9390 C.3    24  ASP24       0.1805
      8  C          4.8660  -18.6000    5.5170 C.2    24  ASP24       0.2598
      9  O          5.3080  -17.4730    5.3500 O.2    24  ASP24      -0.2718
     10  CB         3.0460  -17.7000    6.9440 C.3    24  ASP24       0.1424
     11  CG         3.8740  -17.7830    8.2170 C.2    24  ASP24       0.3668
     12  OD1        3.7780  -18.8320    8.9040 O.co2  24  ASP24      -0.2456
     13  OD2        4.6100  -16.8110    8.5300 O.co2  24  ASP24      -0.2456
     14  N          5.6300  -19.6710    5.3630 N.am   25  GLU25      -0.1965
     15  CA         7.0250  -19.5310    4.9560 C.3    25  GLU25       0.1733
     16  C          7.0980  -18.7510    3.6380 C.2    25  GLU25       0.2617
     17  O          6.3620  -19.0440    2.6890 O.2    25  GLU25      -0.2715
     18  CB         7.6940  -20.9020    4.7750 C.3    25  GLU25       0.0429
     19  CG         7.6300  -21.8550    5.9930 C.3    25  GLU25       0.1163
     20  CD         6.4410  -22.8210    5.9600 C.2    25  GLU25       0.3649
     21  OE1        5.4360  -22.5420    5.2600 O.co2  25  GLU25      -0.2457
     22  OE2        6.5110  -23.8590    6.6630 O.co2  25  GLU25      -0.2457
     23  N          7.9830  -17.7580    3.5950 N.am   26  SER26      -0.1950
     24  CA         8.2340  -16.9940    2.3840 C.3    26  SER26       0.1924
     25  C          8.9750  -17.8190    1.3390 C.2    26  SER26       0.2314
     26  O          9.3960  -18.9350    1.5990 O.2    26  SER26      -0.2863
     27  CB         8.9940  -15.6960    2.6900 C.3    26  SER26       0.2116
     28  OG        10.1780  -15.9300    3.4220 O.3    26  SER26      -0.2180
     29  N         12.3280  -19.0280    2.3610 N.3    29  THR29      -0.1218
     30  CA        12.2720  -19.9590    3.4900 C.3    29  THR29       0.1862
     31  C         11.7550  -21.3310    3.0630 C.2    29  THR29       0.2287
     32  O         12.3560  -22.3480    3.3900 O.2    29  THR29      -0.2866
     33  CB        11.4480  -19.3950    4.6750 C.3    29  THR29       0.1770
     34  OG1       12.1350  -18.2580    5.2280 O.3    29  THR29      -0.2211
     35  CG2       11.2710  -20.4660    5.7670 C.3    29  THR29       0.0375
     36  N         13.5830  -25.3180    2.8230 N.3    33  ARG33      -0.1245
     37  CA        12.9430  -26.5440    3.3050 C.3    33  ARG33       0.1563
     38  C         12.8520  -27.5910    2.1910 C.2    33  ARG33       0.2260
     39  O         13.1420  -28.7630    2.3990 O.2    33  ARG33      -0.2867
     40  CB        11.5230  -26.2480    3.8250 C.3    33  ARG33       0.0307
     41  CG        11.4240  -25.1900    4.9260 C.3    33  ARG33       0.0489
     42  CD        12.0130  -25.6640    6.2400 C.3    33  ARG33       0.2205
     43  NE        12.4660  -24.5490    7.0680 N.pl3  33  ARG33      -0.0865
     44  CZ        11.6860  -23.8210    7.8590 C.cat  33  ARG33       0.5346
     45  NH1       10.3830  -24.0590    7.9370 N.pl3  33  ARG33       0.1354
     46  NH2       12.2140  -22.8380    8.5760 N.pl3  33  ARG33       0.1354
     47  N          0.5170  -13.6650    7.1240 N.3    98  LYS98      -0.1245
     48  CA         1.7570  -13.0320    7.5480 C.3    98  LYS98       0.1561
     49  C          1.9540  -11.7720    6.7230 C.2    98  LYS98       0.2260
     50  O          1.8260  -11.8220    5.4960 O.2    98  LYS98      -0.2867
     51  CB         2.9250  -13.9670    7.3340 C.3    98  LYS98       0.0271
     52  CG         4.2840  -13.4280    7.7950 C.3    98  LYS98       0.0035
     53  CD         5.2190  -13.1320    6.6270 C.3    98  LYS98       0.0206
     54  CE         5.6950  -14.4320    5.9270 C.3    98  LYS98       0.1093
     55  NZ         6.5740  -15.3590    6.7770 N.3    98  LYS98      -0.1314
     56  N          4.6900   -9.2730    7.4230 N.3   100  ASP100     -0.1239
     57  CA         6.0440   -8.7350    7.4250 C.3   100  ASP100      0.1674
     58  C          6.7830   -9.0680    6.1300 C.2   100  ASP100      0.2266
     59  O          6.4890  -10.0620    5.4560 O.2   100  ASP100     -0.2867
     60  CB         6.8360   -9.1320    8.6980 C.3   100  ASP100      0.1410
     61  CG         7.3250  -10.5730    8.7010 C.2   100  ASP100      0.3668
     62  OD1        8.3010  -10.8990    7.9860 O.co2 100  ASP100     -0.2456
     63  OD2        6.7820  -11.3700    9.4950 O.co2 100  ASP100     -0.2456
     64  N         10.1690   -9.4560    6.1210 N.3   102  GLY102     -0.1225
     65  CA        11.4330  -10.1250    6.4710 C.3   102  GLY102      0.1811
     66  C         12.2870   -9.4310    7.5250 C.2   102  GLY102      0.2280
     67  O         12.1920   -8.2220    7.7500 O.2   102  GLY102     -0.2866
     68  N          0.1060  -12.0150   11.1330 N.3   137  LYS137     -0.1245
     69  CA         1.2960  -12.4140   11.8730 C.3   137  LYS137      0.1561
     70  C          2.4990  -11.5660   11.4700 C.2   137  LYS137      0.2260
     71  O          2.6420  -11.1780   10.3070 O.2   137  LYS137     -0.2867
     72  CB         1.6060  -13.8800   11.6280 C.3   137  LYS137      0.0271
     73  CG         2.5650  -14.4730   12.6620 C.3   137  LYS137      0.0035
     74  CD         3.5470  -15.4340   12.0400 C.3   137  LYS137      0.0206
     75  CE         4.7060  -14.7180   11.3440 C.3   137  LYS137      0.1093
     76  NZ         5.7720  -15.7140   10.9570 N.3   137  LYS137     -0.1314
     77  N          6.7860  -11.4300   12.5170 N.3   139  ARG139     -0.1245
     78  CA         7.8810  -12.0690   13.2310 C.3   139  ARG139      0.1563
     79  C          9.0540  -11.1160   13.4780 C.2   139  ARG139      0.2260
     80  O          9.6700  -10.5960   12.5460 O.2   139  ARG139     -0.2867
     81  CB         8.3640  -13.3030   12.4480 C.3   139  ARG139      0.0307
     82  CG         9.5220  -14.0870   13.1260 C.3   139  ARG139      0.0489
     83  CD         9.9330  -15.2680   12.2760 C.3   139  ARG139      0.2205
     84  NE        10.9320  -16.1500   12.8720 N.pl3 139  ARG139     -0.0865
     85  CZ        12.0930  -16.4970   12.3070 C.cat 139  ARG139      0.5346
     86  NH1       12.4550  -16.0260   11.1280 N.pl3 139  ARG139      0.1354
     87  NH2       12.9120  -17.3400   12.9240 N.pl3 139  ARG139      0.1354
     88  N          4.7570  -12.2540   17.2250 N.3   179  GLU179     -0.1245
     89  CA         5.7820  -13.2960   17.2910 C.3   179  GLU179      0.1567
     90  C          7.1680  -12.7440   17.5140 C.2   179  GLU179      0.2260
     91  O          7.8560  -12.3910   16.5450 O.2   179  GLU179     -0.2867
     92  CB         5.8030  -14.1140   16.0030 C.3   179  GLU179      0.0388
     93  CG         6.8540  -15.2160   15.9800 C.3   179  GLU179      0.1160
     94  CD         6.8390  -16.0060   14.6890 C.2   179  GLU179      0.3649
     95  OE1        6.1340  -15.5890   13.7380 O.co2 179  GLU179     -0.2457
     96  OE2        7.5450  -17.0380   14.6280 O.co2 179  GLU179     -0.2457
     97  N         10.6670  -13.9540   18.4760 N.3   181  GLU181     -0.1245
     98  CA        11.3860  -15.2070   18.6380 C.3   181  GLU181      0.1567
     99  C         12.8170  -14.9850   19.0750 C.2   181  GLU181      0.2260
    100  O         13.6140  -14.4660   18.3100 O.2   181  GLU181     -0.2867
    101  CB        11.4110  -16.0110   17.3310 C.3   181  GLU181      0.0388
    102  CG        12.1990  -17.3380   17.4680 C.3   181  GLU181      0.1160
    103  CD        12.0880  -18.2640   16.2560 C.2   181  GLU181      0.3649
    104  OE1       11.4470  -17.8760   15.2470 O.co2 181  GLU181     -0.2457
    105  OE2       12.6690  -19.3900   16.3070 O.co2 181  GLU181     -0.2457
    106  N          2.8770  -15.3730   20.0830 N.3   224  LYS224     -0.1245
    107  CA         3.5930  -16.5290   19.5910 C.3   224  LYS224      0.1561
    108  C          5.0780  -16.4030   19.9480 C.2   224  LYS224      0.2260
    109  O          5.8800  -15.9290   19.1390 O.2   224  LYS224     -0.2867
    110  CB         3.3930  -16.6700   18.0860 C.3   224  LYS224      0.0271
    111  CG         4.1950  -17.7860   17.4590 C.3   224  LYS224      0.0035
    112  CD         4.0200  -17.8280   15.9800 C.3   224  LYS224      0.0206
    113  CE         4.8800  -18.9050   15.4090 C.3   224  LYS224      0.1093
    114  NZ         4.7460  -19.0340   13.9470 N.3   224  LYS224     -0.1314
    115  N          5.8730  -21.1510   19.0100 N.3   264  LEU264     -0.1231
    116  CA         6.6110  -21.5580   17.8100 C.3   264  LEU264      0.1693
    117  C          7.4690  -22.7460   18.1940 C.2   264  LEU264      0.2593
    118  O          7.8380  -22.8840   19.3600 O.2   264  LEU264     -0.2718
    119  CB         7.4910  -20.4120   17.3220 C.3   264  LEU264      0.0284
    120  CG         8.5370  -19.8440   18.2900 C.3   264  LEU264      0.0019
    121  CD1        9.8730  -20.4770   18.0190 C.3   264  LEU264      0.0001
    122  CD2        8.6240  -18.3060   18.1630 C.3   264  LEU264      0.0001
    123  N          7.7800  -23.6160   17.2360 N.am  265  SER265     -0.1938
    124  CA         8.5750  -24.8160   17.5410 C.3   265  SER265      0.2055
    125  C         10.0650  -24.5080   17.4670 C.2   265  SER265      0.2643
    126  O         10.8610  -25.1090   18.1790 O.2   265  SER265     -0.2714
    127  CB         8.1800  -26.0070   16.6460 C.3   265  SER265      0.2130
    128  OG         8.4780  -25.7990   15.2760 O.3   265  SER265     -0.2179
    129  N         10.4360  -23.5780   16.5950 N.am  266  GLY266     -0.1954
    130  CA        11.7170  -22.8860   16.6860 C.3   266  GLY266      0.1869
    131  C         12.9900  -23.6680   16.4390 C.2   266  GLY266      0.2309
    132  O         14.0660  -23.1780   16.7530 O.2   266  GLY266     -0.2863
    133  N          1.5010  -22.8540   17.4990 N.3   293  SER293     -0.1202
    134  CA         1.5330  -22.2640   16.1580 C.3   293  SER293      0.2020
    135  C          2.7660  -22.8180   15.4560 C.2   293  SER293      0.2619
    136  O          3.7660  -22.1200   15.2530 O.2   293  SER293     -0.2717
    137  CB         1.5780  -20.7310   16.2350 C.3   293  SER293      0.2103
    138  OG         1.7810  -20.1270   14.9680 O.3   293  SER293     -0.2182
    139  N          2.6970  -24.0970   15.1010 N.am  294  TYR294     -0.1961
    140  CA         3.8860  -24.8170   14.6160 C.3   294  TYR294      0.1771
    141  C          4.0050  -24.7890   13.0980 C.2   294  TYR294      0.2620
    142  O          3.0160  -24.9120   12.3880 O.2   294  TYR294     -0.2715
    143  CB         3.9220  -26.2670   15.1320 C.3   294  TYR294      0.0574
    144  CG         4.1030  -26.4080   16.6290 C.ar  294  TYR294     -0.0198
    145  CD1        4.5530  -25.3450   17.4190 C.ar  294  TYR294     -0.0009
    146  CD2        3.8540  -27.6340   17.2630 C.ar  294  TYR294     -0.0009
    147  CE1        4.7240  -25.4930   18.7910 C.ar  294  TYR294      0.0417
    148  CE2        4.0240  -27.7820   18.6340 C.ar  294  TYR294      0.0417
    149  CZ         4.4550  -26.7120   19.3920 C.ar  294  TYR294      0.1957
    150  OH         4.6290  -26.8610   20.7610 O.3   294  TYR294     -0.2866
    151  N          5.2380  -24.5690   12.6470 N.am  295  GLY295     -0.1940
    152  CA         5.6170  -24.6590   11.2550 C.3   295  GLY295      0.2014
    153  C          6.3390  -25.9710   11.0770 C.2   295  GLY295      0.2638
    154  O          5.7370  -26.9740   10.6720 O.2   295  GLY295     -0.2714
    155  N          7.6210  -25.9920   11.4250 N.am  296  ARG296     -0.1977
    156  CA         8.4200  -27.2000   11.2510 C.3   296  ARG296      0.1597
    157  C          7.8600  -28.3840   12.0320 C.2   296  ARG296      0.2287
    158  O          7.8200  -29.4930   11.5070 O.2   296  ARG296     -0.2864
    159  CB         9.8840  -26.9550   11.6260 C.3   296  ARG296      0.0334
    160  CG        10.6340  -26.0840   10.6200 C.3   296  ARG296      0.0492
    161  CD        11.8790  -25.4280   11.2490 C.3   296  ARG296      0.2205
    162  NE        11.5720  -24.2710   12.0930 N.pl3 296  ARG296     -0.0865
    163  CZ        12.4860  -23.5370   12.7470 C.cat 296  ARG296      0.5346
    164  NH1       13.7960  -23.8220   12.6710 N.pl3 296  ARG296      0.1354
    165  NH2       12.0890  -22.5130   13.4900 N.pl3 296  ARG296      0.1354
@<TRIPOS>BOND
     1    25    26    2
     2    25    24    1
     3    38    39    2
     4    38    37    1
     5    29    30    1
     6    24    27    1
     7    24    23    1
     8    17    16    2
     9    27    28    1
    10    36    37    1
    11    31    32    2
    12    31    30    1
    13    37    40    1
    14    30    33    1
    15    23    16   am
    16    16    15    1
    17    40    41    1
    18    33    34    1
    19    33    35    1
    20    18    15    1
    21    18    19    1
    22    41    42    1
    23    15    14    1
    24    21    20   ar
    25     9     8    2
    26    14     8   am
    27    59    58    2
    28    50    49    2
    29     8     7    1
    30    54    53    1
    31    54    55    1
    32     7     6    1
    33     7    10    1
    34    20    19    1
    35    20    22   ar
    36    64    65    1
    37    58    57    1
    38    42    43    1
    39    65    66    1
    40    53    52    1
    41    49    48    1
    42    10    11    1
    43    43    44    2
    44    47    48    1
    45    51    48    1
    46    51    52    1
    47    56    57    1
    48    57    60    1
    49    66    67    2
    50    44    45    1
    51    44    46    1
    52    62    61   ar
    53    11    13   ar
    54    11    12   ar
    55    60    61    1
    56    61    63   ar
    57     4     3    2
    58     3     2    1
    59    71    70    2
    60     2     1    1
    61     2     5    1
    62   160   161    1
    63   160   159    1
    64   154   153    2
    65    76    75    1
    66   153   152    1
    67   153   155   am
    68    86    85    1
    69    68    69    1
    70   161   162    1
    71   156   155    1
    72   156   159    1
    73   156   157    1
    74   152   151    1
    75    75    74    1
    76    70    69    1
    77   158   157    2
    78    72    69    1
    79    72    73    1
    80    74    73    1
    81   162   163    2
    82    83    84    1
    83    83    82    1
    84    85    84    2
    85    85    87    1
    86   142   141    2
    87    81    82    1
    88    81    78    1
    89    77    78    1
    90    80    79    2
    91   151   141   am
    92   164   163    1
    93   163   165    1
    94   141   140    1
    95    78    79    1
    96    95    94   ar
    97   114   113    1
    98   140   139    1
    99   140   143    1
   100    96    94   ar
   101    94    93    1
   102   138   137    1
   103   139   135   am
   104   143   144    1
   105   104   103   ar
   106   136   135    2
   107   128   127    1
   108   113   112    1
   109   135   134    1
   110   112   111    1
   111    93    92    1
   112    92    89    1
   113   134   137    1
   114   134   133    1
   115   103   105   ar
   116   103   102    1
   117   131   130    1
   118   131   132    2
   119    91    90    2
   120   129   130    1
   121   129   125   am
   122   144   146   ar
   123   144   145   ar
   124   127   124    1
   125    88    89    1
   126   123   124    1
   127   123   117   am
   128   146   148   ar
   129    89    90    1
   130   119   116    1
   131   119   120    1
   132   101   102    1
   133   101    98    1
   134   145   147   ar
   135   111   110    1
   136   125   124    1
   137   125   126    2
   138   116   117    1
   139   116   115    1
   140   121   120    1
   141   110   107    1
   142   122   120    1
   143   117   118    2
   144   100    99    2
   145    97    98    1
   146   148   149   ar
   147    98    99    1
   148   147   149   ar
   149   109   108    2
   150   149   150    1
   151   107   108    1
   152   107   106    1
