@<TRIPOS>MOLECULE
tmp/3mmxA00.pdb
 83 80 0 0 0
SMALL
GASTEIGER

@<TRIPOS>ATOM
      1  N        -53.4440    4.9830    5.1270 N.3     8  GLY8       -0.1210
      2  CA       -52.5680    3.8870    4.7720 C.3     8  GLY8        0.1956
      3  C        -52.8950    2.6520    5.5840 C.2     8  GLY8        0.2612
      4  O        -53.5650    2.7370    6.6190 O.2     8  GLY8       -0.2717
      5  N        -52.4530    1.4880    5.1130 N.am    9  GLY9       -0.1942
      6  CA       -52.6760    0.2500    5.8400 C.3     9  GLY9        0.2014
      7  C        -52.4060   -0.9370    4.9530 C.2     9  GLY9        0.2640
      8  O        -52.2330   -0.7970    3.7330 O.2     9  GLY9       -0.2714
      9  N        -52.3650   -2.1220    5.5510 N.am   10  THR10      -0.1936
     10  CA       -52.2390   -3.3470    4.7520 C.3    10  THR10       0.2028
     11  C        -53.5480   -3.6660    4.0530 C.2    10  THR10       0.2642
     12  O        -53.5400   -4.2030    2.9600 O.2    10  THR10      -0.2714
     13  CB       -51.8240   -4.5430    5.6020 C.3    10  THR10       0.1808
     14  OG1      -52.8310   -4.7740    6.5880 O.3    10  THR10      -0.2208
     15  CG2      -50.4910   -4.2930    6.2750 C.3    10  THR10       0.0379
     16  N        -54.6600   -3.3090    4.6780 N.am   11  PHE11      -0.1973
     17  CA       -55.9820   -3.6550    4.1680 C.3    11  PHE11       0.1639
     18  C        -56.0320   -5.1420    3.8520 C.2    11  PHE11       0.2290
     19  O        -56.4500   -5.5640    2.7740 O.2    11  PHE11      -0.2864
     20  CB       -56.3360   -2.8030    2.9540 C.3    11  PHE11       0.0560
     21  CG       -56.2990   -1.3360    3.2360 C.ar   11  PHE11      -0.0200
     22  CD1      -55.2160   -0.5680    2.8250 C.ar   11  PHE11      -0.0042
     23  CD2      -57.3390   -0.7240    3.9440 C.ar   11  PHE11      -0.0042
     24  CE1      -55.1600    0.8190    3.1020 C.ar   11  PHE11      -0.0003
     25  CE2      -57.3130    0.6480    4.2250 C.ar   11  PHE11      -0.0003
     26  CZ       -56.2080    1.4300    3.8080 C.ar   11  PHE11      -0.0000
     27  N        -61.5370   -3.1510    6.6700 N.3    15  HIS15      -0.1241
     28  CA       -62.5720   -3.3820    7.6530 C.3    15  HIS15       0.1621
     29  C        -63.3060   -2.1100    8.0570 C.2    15  HIS15       0.2264
     30  O        -62.9510   -0.9990    7.6310 O.2    15  HIS15      -0.2867
     31  CB       -61.9850   -4.0590    8.8840 C.3    15  HIS15       0.0745
     32  CG       -60.8060   -3.3420    9.4570 C.ar   15  HIS15       0.0817
     33  ND1      -60.9130   -2.1190   10.0750 N.ar   15  HIS15      -0.2268
     34  CD2      -59.4930   -3.6800    9.5090 C.ar   15  HIS15       0.1154
     35  CE1      -59.7150   -1.7270   10.4710 C.ar   15  HIS15       0.1986
     36  NE2      -58.8360   -2.6560   10.1460 N.ar   15  HIS15      -0.2212
     37  N        -61.5010    1.0960    9.1210 N.3    18  HIS18      -0.1241
     38  CA       -61.0110    1.9570    8.0560 C.3    18  HIS18       0.1621
     39  C        -62.0980    2.9120    7.5730 C.2    18  HIS18       0.2264
     40  O        -61.8900    4.1220    7.4430 O.2    18  HIS18      -0.2867
     41  CB       -60.5230    1.1130    6.8670 C.3    18  HIS18       0.0745
     42  CG       -59.3480    0.2540    7.1900 C.ar   18  HIS18       0.0817
     43  ND1      -59.3460   -1.1080    6.9850 N.ar   18  HIS18      -0.2268
     44  CD2      -58.1360    0.5610    7.7160 C.ar   18  HIS18       0.1154
     45  CE1      -58.1750   -1.6020    7.3510 C.ar   18  HIS18       0.1986
     46  NE2      -57.4240   -0.6110    7.8010 N.ar   18  HIS18      -0.2212
     47  N        -50.2880   -0.6760    1.7180 N.3    39  ASN39      -0.1240
     48  CA       -48.8840   -1.0090    1.9680 C.3    39  ASN39       0.1653
     49  C        -48.3650   -2.1270    1.0920 C.2    39  ASN39       0.2266
     50  O        -49.1410   -2.9510    0.5960 O.2    39  ASN39      -0.2867
     51  CB       -48.7270   -1.5780    3.3820 C.3    39  ASN39       0.1155
     52  CG       -48.8680   -0.5450    4.4460 C.2    39  ASN39       0.2627
     53  OD1      -48.4890    0.6110    4.2550 O.2    39  ASN39      -0.2716
     54  ND2      -49.4050   -0.9490    5.5970 N.am   39  ASN39      -0.0877
     55  N        -58.6850   -4.5090   13.8210 N.3   147  SER147     -0.1202
     56  CA       -57.5090   -4.4110   12.9430 C.3   147  SER147      0.2020
     57  C        -57.4480   -5.6030   12.0080 C.2   147  SER147      0.2619
     58  O        -58.0360   -6.6410   12.3000 O.2   147  SER147     -0.2717
     59  CB       -56.2450   -4.3780   13.7970 C.3   147  SER147      0.2103
     60  OG       -56.1450   -5.5930   14.5440 O.3   147  SER147     -0.2182
     61  N        -56.7240   -5.4640   10.9010 N.am  148  SER148     -0.1937
     62  CA       -56.5780   -6.5660    9.9280 C.3   148  SER148      0.2055
     63  C        -56.0660   -7.8260   10.5970 C.2   148  SER148      0.2643
     64  O        -56.6250   -8.9150   10.4140 O.2   148  SER148     -0.2714
     65  CB       -55.6590   -6.1790    8.7860 C.3   148  SER148      0.2130
     66  OG       -56.1900   -5.0970    8.0570 O.3   148  SER148     -0.2179
     67  N        -55.0150   -7.6870   11.3970 N.am  149  SER149     -0.1949
     68  CA       -54.4110   -8.8550   12.0070 C.3   149  SER149      0.1924
     69  C        -55.3580   -9.5610   12.9610 C.2   149  SER149      0.2314
     70  O        -55.3520  -10.7930   13.0510 O.2   149  SER149     -0.2863
     71  CB       -53.1260   -8.4830   12.7330 C.3   149  SER149      0.2116
     72  OG       -53.4260   -7.6510   13.8380 O.3   149  SER149     -0.2180
     73  N        -57.6320  -11.5840   10.7770 N.3   152  ARG152     -0.1245
     74  CA       -56.9430  -12.7480   10.2050 C.3   152  ARG152      0.1563
     75  C        -56.9220  -13.8820   11.2180 C.2   152  ARG152      0.2260
     76  O        -57.2260  -15.0360   10.8930 O.2   152  ARG152     -0.2867
     77  CB       -55.5220  -12.3990    9.7260 C.3   152  ARG152      0.0307
     78  CG       -55.4920  -11.5610    8.4660 C.3   152  ARG152      0.0489
     79  CD       -54.1330  -11.5720    7.8130 C.3   152  ARG152      0.2205
     80  NE       -53.0940  -11.1600    8.7480 N.pl3 152  ARG152     -0.0865
     81  CZ       -52.7090   -9.9020    8.9480 C.cat 152  ARG152      0.5346
     82  NH1      -53.2720   -8.8890    8.2770 N.pl3 152  ARG152      0.1354
     83  NH2      -51.7510   -9.6580    9.8370 N.pl3 152  ARG152      0.1354
@<TRIPOS>BOND
     1    50    49    2
     2    49    48    1
     3    47    48    1
     4    48    51    1
     5    19    18    2
     6    22    24   ar
     7    22    21   ar
     8    20    21    1
     9    20    17    1
    10    12    11    2
    11    24    26   ar
    12    21    23   ar
    13    51    52    1
    14     8     7    2
    15    26    25   ar
    16    18    17    1
    17    23    25   ar
    18    11    16   am
    19    11    10    1
    20    17    16    1
    21    53    52    2
    22    52    54   am
    23    10     9    1
    24    10    13    1
    25     2     1    1
    26     2     3    1
    27     7     9   am
    28     7     6    1
    29     5     3   am
    30     5     6    1
    31     3     4    2
    32    13    15    1
    33    13    14    1
    34    27    28    1
    35    41    42    1
    36    41    38    1
    37    43    42   ar
    38    43    45   ar
    39    42    44   ar
    40    45    46   ar
    41    40    39    2
    42    39    38    1
    43    30    29    2
    44    28    29    1
    45    28    31    1
    46    44    46   ar
    47    79    78    1
    48    79    80    1
    49    38    37    1
    50    66    65    1
    51    82    81    1
    52    78    77    1
    53    80    81    2
    54    65    62    1
    55    31    32    1
    56    81    83    1
    57    32    34   ar
    58    32    33   ar
    59    34    36   ar
    60    77    74    1
    61    62    63    1
    62    62    61    1
    63    33    35   ar
    64    36    35   ar
    65    74    73    1
    66    74    75    1
    67    64    63    2
    68    63    67   am
    69    76    75    2
    70    61    57   am
    71    67    68    1
    72    68    71    1
    73    68    69    1
    74    57    58    2
    75    57    56    1
    76    71    72    1
    77    56    59    1
    78    56    55    1
    79    69    70    2
    80    59    60    1
