@<TRIPOS>MOLECULE
tmp/3mmyC00.pdb
 111 106 0 0 0
SMALL
GASTEIGER

@<TRIPOS>ATOM
      1  N         26.1390  -23.6290   40.1520 N.3    85  SER85      -0.1202
      2  CA        25.8120  -24.4300   41.3290 C.3    85  SER85       0.2020
      3  C         24.5790  -23.8170   41.9930 C.2    85  SER85       0.2619
      4  O         24.3190  -22.6180   41.8470 O.2    85  SER85      -0.2717
      5  CB        26.9900  -24.4500   42.3100 C.3    85  SER85       0.2103
      6  OG        27.2250  -23.1580   42.8450 O.3    85  SER85      -0.2182
      7  N         23.8370  -24.6330   42.7390 N.am   86  ASP86      -0.1959
      8  CA        22.5800  -24.1990   43.3540 C.3    86  ASP86       0.1840
      9  C         22.7490  -23.0290   44.3160 C.2    86  ASP86       0.2622
     10  O         21.8350  -22.2140   44.4680 O.2    86  ASP86      -0.2715
     11  CB        21.8940  -25.3710   44.0660 C.3    86  ASP86       0.1450
     12  CG        22.6580  -25.8360   45.3060 C.2    86  ASP86       0.3671
     13  OD1       23.6090  -26.6430   45.1610 O.co2  86  ASP86      -0.2456
     14  OD2       22.3010  -25.3970   46.4270 O.co2  86  ASP86      -0.2456
     15  N         23.9070  -22.9440   44.9700 N.am   87  ASP87      -0.1971
     16  CA        24.1600  -21.8510   45.9270 C.3    87  ASP87       0.1709
     17  C         24.7140  -20.5790   45.2800 C.2    87  ASP87       0.2293
     18  O         24.9260  -19.5720   45.9650 O.2    87  ASP87      -0.2864
     19  CB        25.0160  -22.3060   47.1310 C.3    87  ASP87       0.1436
     20  CG        26.4940  -22.4730   46.8000 C.2    87  ASP87       0.3671
     21  OD1       26.9170  -22.4180   45.6170 O.co2  87  ASP87      -0.2456
     22  OD2       27.2580  -22.6760   47.7590 O.co2  87  ASP87      -0.2456
     23  N         27.5880  -19.8980   44.0150 N.3    89  SER89      -0.1202
     24  CA        28.9990  -19.6060   44.2190 C.3    89  SER89       0.2020
     25  C         29.8550  -20.0160   43.0230 C.2    89  SER89       0.2618
     26  O         30.9110  -19.4220   42.8020 O.2    89  SER89      -0.2717
     27  CB        29.5190  -20.2830   45.4950 C.3    89  SER89       0.2103
     28  OG        29.5270  -21.6980   45.3480 O.3    89  SER89      -0.2182
     29  N         29.4050  -21.0210   42.2630 N.am   90  LYS90      -0.1979
     30  CA        30.2140  -21.6090   41.2020 C.3    90  LYS90       0.1596
     31  C         29.5120  -21.5420   39.8580 C.2    90  LYS90       0.2287
     32  O         28.2960  -21.6750   39.7820 O.2    90  LYS90      -0.2864
     33  CB        30.5550  -23.0800   41.5000 C.3    90  LYS90       0.0298
     34  CG        31.2340  -23.3460   42.8570 C.3    90  LYS90       0.0038
     35  CD        32.6960  -22.8940   42.8280 C.3    90  LYS90       0.0206
     36  CE        33.4710  -23.3490   44.0590 C.3    90  LYS90       0.1093
     37  NZ        32.8360  -22.8810   45.3190 N.3    90  LYS90      -0.1314
     38  N         29.9700  -23.5750   36.1940 N.3    92  PHE92      -0.1241
     39  CA        30.6030  -24.7240   35.5620 C.3    92  PHE92       0.1605
     40  C         30.5740  -24.5030   34.0670 C.2    92  PHE92       0.2264
     41  O         29.6110  -23.9570   33.5570 O.2    92  PHE92      -0.2867
     42  CB        29.8890  -26.0310   35.9410 C.3    92  PHE92       0.0534
     43  CG        29.8790  -26.3050   37.4240 C.ar   92  PHE92      -0.0203
     44  CD1       28.7570  -26.0320   38.1930 C.ar   92  PHE92      -0.0042
     45  CD2       31.0040  -26.8220   38.0490 C.ar   92  PHE92      -0.0042
     46  CE1       28.7520  -26.2710   39.5720 C.ar   92  PHE92      -0.0003
     47  CE2       31.0090  -27.0600   39.4200 C.ar   92  PHE92      -0.0003
     48  CZ        29.8850  -26.7830   40.1810 C.ar   92  PHE92      -0.0000
     49  N         35.2890  -25.6200   36.9640 N.3   102  MET102     -0.1245
     50  CA        34.5090  -25.0160   38.0130 C.3   102  MET102      0.1570
     51  C         35.1250  -23.6480   38.3300 C.2   102  MET102      0.2261
     52  O         36.3100  -23.5500   38.6760 O.2   102  MET102     -0.2867
     53  CB        34.5000  -25.9030   39.2570 C.3   102  MET102      0.0387
     54  CG        33.8730  -25.2380   40.4670 C.3   102  MET102      0.0595
     55  SD        33.7340  -26.3180   41.9030 S.3   102  MET102     -0.1393
     56  CE        35.4570  -26.6770   42.2690 C.3   102  MET102      0.0692
     57  N         24.4130  -29.2090   37.0160 N.3   125  TRP125     -0.1241
     58  CA        24.6470  -29.4190   38.4300 C.3   125  TRP125      0.1605
     59  C         23.4760  -30.2190   38.9650 C.2   125  TRP125      0.2264
     60  O         22.3300  -29.8370   38.7590 O.2   125  TRP125     -0.2867
     61  CB        24.7520  -28.0660   39.1390 C.3   125  TRP125      0.0550
     62  CG        24.9140  -28.1540   40.6230 C.ar  125  TRP125      0.0003
     63  CD1       24.0110  -27.7660   41.5740 C.ar  125  TRP125      0.0946
     64  CD2       26.0490  -28.6700   41.3250 C.ar  125  TRP125      0.0152
     65  NE1       24.5270  -27.9950   42.8420 N.ar  125  TRP125     -0.2442
     66  CE2       25.7750  -28.5560   42.7100 C.ar  125  TRP125      0.0810
     67  CE3       27.2780  -29.2150   40.9190 C.ar  125  TRP125      0.0012
     68  CZ2       26.6820  -28.9700   43.6820 C.ar  125  TRP125      0.0191
     69  CZ3       28.1760  -29.6230   41.8840 C.ar  125  TRP125      0.0001
     70  CH2       27.8710  -29.4990   43.2550 C.ar  125  TRP125      0.0015
     71  N         21.7520  -31.4540   42.3890 N.3   127  LYS127     -0.1245
     72  CA        21.6290  -31.4140   43.8360 C.3   127  LYS127      0.1561
     73  C         20.5450  -32.4030   44.2780 C.2   127  LYS127      0.2260
     74  O         19.3540  -32.1110   44.1740 O.2   127  LYS127     -0.2867
     75  CB        21.3070  -29.9950   44.3130 C.3   127  LYS127      0.0271
     76  CG        21.5190  -29.7820   45.8090 C.3   127  LYS127      0.0035
     77  CD        20.6930  -28.6220   46.3240 C.3   127  LYS127      0.0206
     78  CE        20.8690  -28.4680   47.8320 C.3   127  LYS127      0.1093
     79  NZ        19.9780  -27.4080   48.3970 N.3   127  LYS127     -0.1314
     80  N         25.6580  -34.4980   45.6720 N.3   132  SER132     -0.1217
     81  CA        25.7200  -33.3960   44.7170 C.3   132  SER132      0.1889
     82  C         26.8550  -33.6650   43.7570 C.2   132  SER132      0.2288
     83  O         27.9430  -34.0670   44.1730 O.2   132  SER132     -0.2866
     84  CB        25.9440  -32.0580   45.4250 C.3   132  SER132      0.2089
     85  OG        24.7470  -31.5840   46.0140 O.3   132  SER132     -0.2183
     86  N         32.5090  -35.1620   41.3900 N.3   147  ASP147     -0.1225
     87  CA        32.3150  -34.5430   42.7010 C.3   147  ASP147      0.1805
     88  C         33.0030  -33.1800   42.8320 C.2   147  ASP147      0.2598
     89  O         32.8520  -32.5130   43.8500 O.2   147  ASP147     -0.2718
     90  CB        32.6920  -35.4960   43.8600 C.3   147  ASP147      0.1424
     91  CG        34.1660  -35.9040   43.8600 C.2   147  ASP147      0.3668
     92  OD1       34.9300  -35.5380   42.9400 O.co2 147  ASP147     -0.2456
     93  OD2       34.5630  -36.6110   44.8060 O.co2 147  ASP147     -0.2456
     94  N         33.7240  -32.7730   41.7790 N.am  148  THR148     -0.1939
     95  CA        34.4940  -31.5010   41.7080 C.3   148  THR148      0.2028
     96  C         35.7980  -31.5240   42.5340 C.2   148  THR148      0.2642
     97  O         36.5650  -30.5520   42.5200 O.2   148  THR148     -0.2714
     98  CB        33.6660  -30.2000   42.0350 C.3   148  THR148      0.1808
     99  OG1       33.5400  -30.0340   43.4520 O.3   148  THR148     -0.2208
    100  CG2       32.2800  -30.2160   41.3990 C.3   148  THR148      0.0379
    101  N         36.0430  -32.6390   43.2250 N.am  149  ARG149     -0.1977
    102  CA        37.2070  -32.7900   44.0920 C.3   149  ARG149      0.1597
    103  C         38.2580  -33.7560   43.5310 C.2   149  ARG149      0.2287
    104  O         39.4540  -33.4430   43.5290 O.2   149  ARG149     -0.2864
    105  CB        36.7650  -33.2030   45.5030 C.3   149  ARG149      0.0334
    106  CG        36.3140  -32.0270   46.3650 C.3   149  ARG149      0.0492
    107  CD        35.6400  -32.4650   47.6590 C.3   149  ARG149      0.2205
    108  NE        34.2160  -32.7520   47.4690 N.pl3 149  ARG149     -0.0865
    109  CZ        33.6660  -33.9670   47.5210 C.cat 149  ARG149      0.5346
    110  NH1       34.4090  -35.0410   47.7710 N.pl3 149  ARG149      0.1354
    111  NH2       32.3600  -34.1080   47.3290 N.pl3 149  ARG149      0.1354
@<TRIPOS>BOND
     1    41    40    2
     2    40    39    1
     3    39    42    1
     4    39    38    1
     5    42    43    1
     6    49    50    1
     7    57    58    1
     8    43    45   ar
     9    43    44   ar
    10    50    51    1
    11    50    53    1
    12    45    47   ar
    13    44    46   ar
    14    51    52    2
    15    58    59    1
    16    58    61    1
    17    60    59    2
    18    61    62    1
    19    53    54    1
    20    47    48   ar
    21    46    48   ar
    22    32    31    2
    23    31    30    1
    24     1     2    1
    25    54    55    1
    26    62    64   ar
    27    62    63   ar
    28    67    64   ar
    29    67    69   ar
    30    30    33    1
    31    30    29    1
    32    64    66   ar
    33     2     3    1
    34     2     5    1
    35    86    87    1
    36   100    98    1
    37    33    34    1
    38    63    65   ar
    39    95    94    1
    40    95    98    1
    41    95    96    1
    42    94    88   am
    43     4     3    2
    44    69    70   ar
    45    55    56    1
    46     3     7   am
    47    98    99    1
    48    29    25   am
    49     5     6    1
    50    71    72    1
    51    97    96    2
    52    96   101   am
    53    87    88    1
    54    87    90    1
    55    66    65   ar
    56    66    68   ar
    57     7     8    1
    58    26    25    2
    59    35    34    1
    60    35    36    1
    61    88    89    2
    62    92    91   ar
    63    25    24    1
    64   101   102    1
    65    70    68   ar
    66     8    11    1
    67     8     9    1
    68   104   103    2
    69   103   102    1
    70    82    83    2
    71    82    81    1
    72    72    73    1
    73    72    75    1
    74    90    91    1
    75    91    93   ar
    76    23    24    1
    77    36    37    1
    78    11    12    1
    79   102   105    1
    80    74    73    2
    81    24    27    1
    82    75    76    1
    83     9    10    2
    84     9    15   am
    85    81    84    1
    86    81    80    1
    87    15    16    1
    88    13    12   ar
    89    17    16    1
    90    17    18    2
    91    12    14   ar
    92    28    27    1
    93    84    85    1
    94   105   106    1
    95    21    20   ar
    96    76    77    1
    97    16    19    1
    98    77    78    1
    99   106   107    1
   100    20    19    1
   101    20    22   ar
   102   111   109    1
   103   108   109    2
   104   108   107    1
   105   109   110    1
   106    78    79    1
