@<TRIPOS>MOLECULE
tmp/3mn8B01.pdb
 131 124 0 0 0
SMALL
GASTEIGER

@<TRIPOS>ATOM
      1  N         19.1290  -49.1900   -9.2310 N.3    74  HIS74      -0.1241
      2  CA        19.5460  -50.2810  -10.0900 C.3    74  HIS74       0.1621
      3  C         18.2600  -50.9510  -10.5780 C.2    74  HIS74       0.2264
      4  O         17.5740  -51.6610   -9.8400 O.2    74  HIS74      -0.2867
      5  CB        20.4790  -51.2470   -9.3530 C.3    74  HIS74       0.0745
      6  CG        21.8230  -50.6640   -9.0230 C.ar   74  HIS74       0.0817
      7  ND1       22.2310  -50.4190   -7.7310 N.ar   74  HIS74      -0.2268
      8  CD2       22.8470  -50.2660   -9.8170 C.ar   74  HIS74       0.1154
      9  CE1       23.4520  -49.9130   -7.7390 C.ar   74  HIS74       0.1986
     10  NE2       23.8450  -49.8040   -8.9940 N.ar   74  HIS74      -0.2212
     11  N         17.0750  -54.2330   -9.5140 N.3    77  GLU77      -0.1245
     12  CA        16.8870  -54.4900   -8.0800 C.3    77  GLU77       0.1567
     13  C         15.5550  -53.8950   -7.6520 C.2    77  GLU77       0.2260
     14  O         15.4490  -52.6900   -7.4420 O.2    77  GLU77      -0.2867
     15  CB        18.0420  -53.8900   -7.2840 C.3    77  GLU77       0.0388
     16  CG        19.4470  -54.3070   -7.8130 C.3    77  GLU77       0.1160
     17  CD        20.5870  -53.5820   -7.1140 C.2    77  GLU77       0.3649
     18  OE1       20.3250  -52.9180   -6.0930 O.co2  77  GLU77      -0.2457
     19  OE2       21.7400  -53.6680   -7.5810 O.co2  77  GLU77      -0.2457
     20  N         20.5730  -52.7740  -15.1550 N.3   138  ARG138     -0.1245
     21  CA        21.1480  -52.2390  -13.9190 C.3   138  ARG138      0.1563
     22  C         21.4480  -50.7510  -14.0930 C.2   138  ARG138      0.2260
     23  O         20.9460  -49.9150  -13.3490 O.2   138  ARG138     -0.2867
     24  CB        22.4160  -53.0080  -13.5180 C.3   138  ARG138      0.0307
     25  CG        23.0730  -52.4980  -12.2230 C.3   138  ARG138      0.0489
     26  CD        24.2900  -53.3330  -11.8360 C.3   138  ARG138      0.2205
     27  NE        25.2950  -52.5920  -11.0680 N.pl3 138  ARG138     -0.0865
     28  CZ        25.3780  -52.5730   -9.7390 C.cat 138  ARG138      0.5346
     29  NH1       24.5030  -53.2460   -8.9960 N.pl3 138  ARG138      0.1354
     30  NH2       26.3400  -51.8720   -9.1460 N.pl3 138  ARG138      0.1354
     31  N         24.9080  -45.4870   -9.5300 N.3   147  ASN147     -0.1225
     32  CA        25.5220  -45.4820   -8.1890 C.3   147  ASN147      0.1785
     33  C         27.0470  -45.2700   -8.2280 C.2   147  ASN147      0.2597
     34  O         27.7420  -45.4970   -7.2450 O.2   147  ASN147     -0.2718
     35  CB        25.1490  -46.7370   -7.3820 C.3   147  ASN147      0.1169
     36  CG        25.2280  -46.5150   -5.8660 C.2   147  ASN147      0.2627
     37  OD1       25.0360  -45.4000   -5.3870 O.2   147  ASN147     -0.2716
     38  ND2       25.4910  -47.5850   -5.1100 N.am  147  ASN147     -0.0877
     39  N         27.5580  -44.8340   -9.3740 N.am  148  ARG148     -0.1979
     40  CA        28.9450  -44.3800   -9.4780 C.3   148  ARG148      0.1597
     41  C         28.9550  -42.9870  -10.0820 C.2   148  ARG148      0.2287
     42  O         30.0200  -42.4440  -10.3520 O.2   148  ARG148     -0.2864
     43  CB        29.7860  -45.2840  -10.3870 C.3   148  ARG148      0.0334
     44  CG        29.6430  -46.7960  -10.1850 C.3   148  ARG148      0.0492
     45  CD        30.4490  -47.3470   -9.0170 C.3   148  ARG148      0.2205
     46  NE        29.5320  -47.8620   -8.0290 N.pl3 148  ARG148     -0.0865
     47  CZ        29.3180  -49.1320   -7.7150 C.cat 148  ARG148      0.5346
     48  NH1       30.0010  -50.1420   -8.2480 N.pl3 148  ARG148      0.1354
     49  NH2       28.4030  -49.3720   -6.8030 N.pl3 148  ARG148      0.1354
     50  N         18.3950  -51.5430   -2.5090 N.3   183  HIS183     -0.1226
     51  CA        19.0900  -52.3190   -3.5130 C.3   183  HIS183      0.1752
     52  C         18.7490  -53.7860   -3.3240 C.2   183  HIS183      0.2596
     53  O         18.0400  -54.1600   -2.3800 O.2   183  HIS183     -0.2718
     54  CB        20.6080  -52.1170   -3.3990 C.3   183  HIS183      0.0759
     55  CG        21.0630  -50.7500   -3.7920 C.ar  183  HIS183      0.0818
     56  ND1       21.7400  -50.4980   -4.9720 N.ar  183  HIS183     -0.2268
     57  CD2       20.9200  -49.5510   -3.1730 C.ar  183  HIS183      0.1154
     58  CE1       22.0000  -49.2030   -5.0550 C.ar  183  HIS183      0.1986
     59  NE2       21.5150  -48.6070   -3.9750 N.ar  183  HIS183     -0.2212
     60  N         19.2560  -54.6140   -4.2290 N.am  184  GLY184     -0.1957
     61  CA        19.0470  -56.0390   -4.1430 C.3   184  GLY184      0.1869
     62  C         20.3570  -56.7310   -4.4160 C.2   184  GLY184      0.2309
     63  O         21.3080  -56.0820   -4.8480 O.2   184  GLY184     -0.2863
     64  N         23.7680  -51.3180    4.9450 N.3   190  SER190     -0.1217
     65  CA        25.0430  -50.6710    4.6440 C.3   190  SER190      0.1889
     66  C         25.0150  -49.1600    4.8760 C.2   190  SER190      0.2288
     67  O         24.0060  -48.5010    4.5900 O.2   190  SER190     -0.2866
     68  CB        25.4660  -50.9790    3.2090 C.3   190  SER190      0.2089
     69  OG        26.7660  -50.4740    2.9500 O.3   190  SER190     -0.2183
     70  N         31.5330  -45.3390    1.6550 N.3   194  ASP194     -0.1239
     71  CA        31.6260  -46.4140    0.6800 C.3   194  ASP194      0.1674
     72  C         33.0230  -46.4860    0.0880 C.2   194  ASP194      0.2266
     73  O         33.3790  -47.4680   -0.5650 O.2   194  ASP194     -0.2867
     74  CB        30.5980  -46.2150   -0.4340 C.3   194  ASP194      0.1410
     75  CG        29.2060  -46.7130   -0.0550 C.2   194  ASP194      0.3668
     76  OD1       29.0570  -47.3390    1.0180 O.co2 194  ASP194     -0.2456
     77  OD2       28.2580  -46.4840   -0.8450 O.co2 194  ASP194     -0.2456
     78  N         30.0170  -49.7040    4.0480 N.3   245  GLY245     -0.1225
     79  CA        30.1540  -49.7660    2.6140 C.3   245  GLY245      0.1811
     80  C         31.5470  -50.2510    2.2800 C.2   245  GLY245      0.2280
     81  O         31.7220  -51.3720    1.8050 O.2   245  GLY245     -0.2866
     82  N         32.6860  -53.7590    3.0790 N.3   248  TRP248     -0.1227
     83  CA        32.1610  -54.7390    2.1520 C.3   248  TRP248      0.1737
     84  C         33.0560  -54.7110    0.9210 C.2   248  TRP248      0.2595
     85  O         33.8610  -55.6170    0.6960 O.2   248  TRP248     -0.2718
     86  CB        30.7450  -54.3640    1.7640 C.3   248  TRP248      0.0564
     87  CG        30.0920  -55.3670    0.9060 C.ar  248  TRP248      0.0003
     88  CD1       30.6370  -56.5270    0.4390 C.ar  248  TRP248      0.0946
     89  CD2       28.7560  -55.3180    0.4160 C.ar  248  TRP248      0.0152
     90  NE1       29.7180  -57.2020   -0.3200 N.ar  248  TRP248     -0.2442
     91  CE2       28.5530  -56.4800   -0.3490 C.ar  248  TRP248      0.0810
     92  CE3       27.7100  -54.4020    0.5480 C.ar  248  TRP248      0.0012
     93  CZ2       27.3510  -56.7490   -0.9850 C.ar  248  TRP248      0.0191
     94  CZ3       26.5180  -54.6710   -0.0800 C.ar  248  TRP248      0.0001
     95  CH2       26.3470  -55.8380   -0.8410 C.ar  248  TRP248      0.0015
     96  N         32.9030  -53.6520    0.1300 N.am  249  TYR249     -0.1976
     97  CA        33.8410  -53.3060   -0.9370 C.3   249  TYR249      0.1639
     98  C         33.6620  -51.8410   -1.3160 C.2   249  TYR249      0.2290
     99  O         32.5480  -51.3220   -1.3120 O.2   249  TYR249     -0.2864
    100  CB        33.6360  -54.1840   -2.1620 C.3   249  TYR249      0.0560
    101  CG        32.2380  -54.1370   -2.7260 C.ar  249  TYR249     -0.0198
    102  CD1       31.8440  -53.1240   -3.5830 C.ar  249  TYR249     -0.0009
    103  CD2       31.3140  -55.1250   -2.4100 C.ar  249  TYR249     -0.0009
    104  CE1       30.5590  -53.0900   -4.1060 C.ar  249  TYR249      0.0417
    105  CE2       30.0390  -55.1050   -2.9260 C.ar  249  TYR249      0.0417
    106  CZ        29.6630  -54.0860   -3.7760 C.ar  249  TYR249      0.1957
    107  OH        28.3840  -54.0710   -4.2900 O.3   249  TYR249     -0.2866
    108  N         33.3890  -48.3290   -3.3990 N.3   251  LEU251     -0.1245
    109  CA        32.8880  -47.8700   -4.6740 C.3   251  LEU251      0.1561
    110  C         32.8730  -46.3660   -4.5990 C.2   251  LEU251      0.2260
    111  O         32.8680  -45.8000   -3.5050 O.2   251  LEU251     -0.2867
    112  CB        31.4860  -48.4180   -4.9500 C.3   251  LEU251      0.0270
    113  CG        30.3740  -47.9910   -3.9950 C.3   251  LEU251      0.0019
    114  CD1       29.6160  -46.7710   -4.5050 C.3   251  LEU251      0.0001
    115  CD2       29.4430  -49.1510   -3.8090 C.3   251  LEU251      0.0001
    116  N         22.3500  -47.2880    2.8780 N.3   269  THR269     -0.1218
    117  CA        22.1010  -48.1610    1.7460 C.3   269  THR269      0.1862
    118  C         21.5510  -49.4660    2.2990 C.2   269  THR269      0.2287
    119  O         22.1650  -50.0850    3.1760 O.2   269  THR269     -0.2866
    120  CB        23.3860  -48.4460    0.9550 C.3   269  THR269      0.1770
    121  OG1       24.0630  -47.2120    0.6900 O.3   269  THR269     -0.2211
    122  CG2       23.0550  -49.1490   -0.3600 C.3   269  THR269      0.0375
    123  N         20.0690  -53.3070    1.3830 N.3   271  GLU271     -0.1245
    124  CA        19.9340  -54.4660    0.5060 C.3   271  GLU271      0.1567
    125  C         18.7980  -55.3480    1.0030 C.2   271  GLU271      0.2260
    126  O         18.8110  -55.8030    2.1530 O.2   271  GLU271     -0.2867
    127  CB        21.2280  -55.2610    0.5080 C.3   271  GLU271      0.0388
    128  CG        22.4090  -54.4700    0.0350 C.3   271  GLU271      0.1160
    129  CD        22.4350  -54.3310   -1.4740 C.2   271  GLU271      0.3649
    130  OE1       23.3350  -53.6310   -1.9980 O.co2 271  GLU271     -0.2457
    131  OE2       21.5550  -54.9300   -2.1340 O.co2 271  GLU271     -0.2457
@<TRIPOS>BOND
     1    20    21    1
     2    22    21    1
     3    22    23    2
     4    21    24    1
     5    24    25    1
     6    25    26    1
     7    26    27    1
     8    27    28    2
     9     3     2    1
    10     3     4    2
    11    43    44    1
    12    43    40    1
    13    42    41    2
    14    44    45    1
    15     2     5    1
    16     2     1    1
    17    41    40    1
    18     8     6   ar
    19     8    10   ar
    20    28    30    1
    21    28    29    1
    22    31    32    1
    23    11    12    1
    24    40    39    1
    25    39    33   am
    26     5     6    1
    27     6     7   ar
    28    45    46    1
    29    10     9   ar
    30    48    47    1
    31    33    32    1
    32    33    34    2
    33    32    35    1
    34    12    13    1
    35    12    15    1
    36    46    47    2
    37    16    15    1
    38    16    17    1
    39     9     7   ar
    40    47    49    1
    41    13    14    2
    42    19    17   ar
    43    35    36    1
    44    17    18   ar
    45    36    37    2
    46    36    38   am
    47    58    56   ar
    48    58    59   ar
    49    56    55   ar
    50   112   109    1
    51   112   113    1
    52    63    62    2
    53   109   110    1
    54   109   108    1
    55   110   111    2
    56   114   113    1
    57    62    61    1
    58   107   106    1
    59    60    61    1
    60    60    52   am
    61   104   106   ar
    62   104   102   ar
    63   113   115    1
    64    59    57   ar
    65    55    54    1
    66    55    57   ar
    67   106   105   ar
    68   102   101   ar
    69    51    54    1
    70    51    52    1
    71    51    50    1
    72    52    53    2
    73   105   103   ar
    74   101   103   ar
    75   101   100    1
    76   100    97    1
    77   131   129   ar
    78   130   129   ar
    79   129   128    1
    80    98    99    2
    81    98    97    1
    82    93    95   ar
    83    93    91   ar
    84    97    96    1
    85    77    75   ar
    86    95    94   ar
    87    73    72    2
    88    74    75    1
    89    74    71    1
    90   122   120    1
    91    91    90   ar
    92    91    89   ar
    93    90    88   ar
    94    94    92   ar
    95    75    76   ar
    96   128   127    1
    97    72    71    1
    98    96    84   am
    99    89    92   ar
   100    89    87   ar
   101    88    87   ar
   102   124   127    1
   103   124   125    1
   104   124   123    1
   105    71    70    1
   106   121   120    1
   107    85    84    2
   108    87    86    1
   109    84    83    1
   110   120   117    1
   111   125   126    2
   112   117   118    1
   113   117   116    1
   114    86    83    1
   115    81    80    2
   116    83    82    1
   117    80    79    1
   118   118   119    2
   119    79    78    1
   120    69    68    1
   121    68    65    1
   122    67    66    2
   123    65    66    1
   124    65    64    1
