@<TRIPOS>MOLECULE
tmp/3mnpA01.pdb
 189 177 0 0 0
SMALL
GASTEIGER

@<TRIPOS>ATOM
      1  N        -36.0400   14.3510   37.5200 N.3    41  MET41      -0.1245
      2  CA       -34.8850   14.5070   36.6260 C.3    41  MET41       0.1570
      3  C        -33.8890   13.3410   36.7500 C.2    41  MET41       0.2261
      4  O        -33.4560   12.7970   35.7480 O.2    41  MET41      -0.2867
      5  CB       -34.2080   15.8690   36.8520 C.3    41  MET41       0.0387
      6  CG       -35.0960   17.0050   36.3510 C.3    41  MET41       0.0595
      7  SD       -34.1910   18.6310   36.5050 S.3    41  MET41      -0.1393
      8  CE       -34.6390   19.1330   38.0880 C.3    41  MET41       0.0692
      9  N        -35.3850   10.2830   35.0940 N.3    44  LEU44      -0.1231
     10  CA       -35.3260   10.3970   33.6380 C.3    44  LEU44       0.1693
     11  C        -33.9150   10.1230   33.1330 C.2    44  LEU44       0.2592
     12  O        -33.7240    9.4410   32.1100 O.2    44  LEU44      -0.2718
     13  CB       -35.7940   11.7770   33.1440 C.3    44  LEU44       0.0284
     14  CG       -37.1980   12.2100   33.5670 C.3    44  LEU44       0.0019
     15  CD1      -37.4480   13.6060   32.9730 C.3    44  LEU44       0.0001
     16  CD2      -38.2730   11.2250   33.1040 C.3    44  LEU44       0.0001
     17  N        -32.9030   10.6270   33.8250 N.am   45  ASN45      -0.1974
     18  CA       -31.5460   10.3540   33.3950 C.3    45  ASN45       0.1688
     19  C        -31.1730    8.8560   33.4530 C.2    45  ASN45       0.2292
     20  O        -30.4590    8.3580   32.5820 O.2    45  ASN45      -0.2864
     21  CB       -30.5370   11.1720   34.2040 C.3    45  ASN45       0.1181
     22  CG       -30.6160   12.6390   33.8940 C.2    45  ASN45       0.2629
     23  OD1      -30.8560   13.0250   32.7570 O.2    45  ASN45      -0.2716
     24  ND2      -30.3470   13.4740   34.9020 N.am   45  ASN45      -0.0877
     25  N        -33.2360    6.3570   33.1070 N.3    47  LEU47      -0.1231
     26  CA       -33.9160    5.7370   31.9580 C.3    47  LEU47       0.1693
     27  C        -33.1490    6.0800   30.6730 C.2    47  LEU47       0.2592
     28  O        -32.9100    5.2310   29.7850 O.2    47  LEU47      -0.2718
     29  CB       -35.3610    6.2140   31.8700 C.3    47  LEU47       0.0284
     30  CG       -36.1070    5.8400   30.5860 C.3    47  LEU47       0.0019
     31  CD1      -36.2170    4.2920   30.4920 C.3    47  LEU47       0.0001
     32  CD2      -37.4810    6.5250   30.6550 C.3    47  LEU47       0.0001
     33  N        -32.7630    7.3490   30.5660 N.am   48  GLY48      -0.1957
     34  CA       -32.0170    7.8400   29.4200 C.3    48  GLY48       0.1869
     35  C        -30.7350    7.0650   29.1690 C.2    48  GLY48       0.2309
     36  O        -30.4150    6.7540   28.0230 O.2    48  GLY48      -0.2863
     37  N        -31.6760    3.9230   27.5080 N.3    51  GLN51      -0.1245
     38  CA       -32.1080    4.1230   26.1210 C.3    51  GLN51       0.1566
     39  C        -30.9270    4.4170   25.1970 C.2    51  GLN51       0.2260
     40  O        -30.9100    3.9930   24.0370 O.2    51  GLN51      -0.2867
     41  CB       -33.1140    5.2730   26.0170 C.3    51  GLN51       0.0367
     42  CG       -34.4400    5.0430   26.7280 C.3    51  GLN51       0.0905
     43  CD       -35.2520    6.3230   26.7950 C.2    51  GLN51       0.2608
     44  OE1      -34.7650    7.3920   26.4150 O.2    51  GLN51      -0.2717
     45  NE2      -36.4880    6.2270   27.2710 N.am   51  GLN51      -0.0878
     46  N        -27.1420   11.9280   20.2770 N.3    81  TRP81      -0.1227
     47  CA       -27.9460   11.1910   21.2610 C.3    81  TRP81       0.1737
     48  C        -29.1920   11.9300   21.7700 C.2    81  TRP81       0.2595
     49  O        -30.2830   11.3420   21.8430 O.2    81  TRP81      -0.2718
     50  CB       -27.0930   10.6590   22.4410 C.3    81  TRP81       0.0564
     51  CG       -26.7150   11.6910   23.4300 C.ar   81  TRP81       0.0003
     52  CD1      -25.6910   12.5820   23.3130 C.ar   81  TRP81       0.0946
     53  CD2      -27.4560   12.0730   24.6100 C.ar   81  TRP81       0.0152
     54  NE1      -25.6710   13.4200   24.4130 N.ar   81  TRP81      -0.2442
     55  CE2      -26.7700   13.1600   25.1940 C.ar   81  TRP81       0.0810
     56  CE3      -28.6620   11.6430   25.1810 C.ar   81  TRP81       0.0012
     57  CZ2      -27.2370   13.8100   26.3440 C.ar   81  TRP81       0.0191
     58  CZ3      -29.0870   12.2400   26.3850 C.ar   81  TRP81       0.0001
     59  CH2      -28.3420   13.2930   26.9650 C.ar   81  TRP81       0.0015
     60  N        -29.0590   13.2170   22.0390 N.am   82  MET82      -0.1979
     61  CA       -30.2320   13.9540   22.5200 C.3    82  MET82       0.1605
     62  C        -31.3220   14.0220   21.4510 C.2    82  MET82       0.2287
     63  O        -32.5200   13.9640   21.7700 O.2    82  MET82      -0.2864
     64  CB       -29.8460   15.3690   23.0650 C.3    82  MET82       0.0413
     65  CG       -31.0340   16.1630   23.6860 C.3    82  MET82       0.0598
     66  SD       -31.6700   15.4540   25.1900 S.3    82  MET82      -0.1393
     67  CE       -30.3130   16.0220   26.3630 C.3    82  MET82       0.0692
     68  N        -33.0230   10.6170   21.4480 N.3    85  MET85      -0.1230
     69  CA       -33.8760   10.4100   22.6260 C.3    85  MET85       0.1702
     70  C        -35.1370   11.2550   22.6230 C.2    85  MET85       0.2592
     71  O        -36.2230   10.7660   22.9600 O.2    85  MET85      -0.2718
     72  CB       -33.1090   10.7340   23.9190 C.3    85  MET85       0.0401
     73  CG       -31.8470    9.8740   24.1250 C.3    85  MET85       0.0596
     74  SD       -32.3410    8.0980   24.2280 S.3    85  MET85      -0.1393
     75  CE       -31.8300    7.5770   22.7660 C.3    85  MET85       0.0692
     76  N        -35.0080   12.5270   22.2360 N.am   86  VAL86      -0.1980
     77  CA       -36.1710   13.4190   22.2190 C.3    86  VAL86       0.1595
     78  C        -37.1340   13.0510   21.1110 C.2    86  VAL86       0.2287
     79  O        -38.3540   13.1360   21.2710 O.2    86  VAL86      -0.2864
     80  CB       -35.7140   14.8800   22.0920 C.3    86  VAL86       0.0276
     81  CG1      -36.9050   15.8150   21.9140 C.3    86  VAL86       0.0022
     82  CG2      -34.9360   15.2460   23.3250 C.3    86  VAL86       0.0022
     83  N        -39.0150    9.9990   22.2850 N.3    89  LEU89      -0.1245
     84  CA       -39.9500   10.4330   23.3260 C.3    89  LEU89       0.1561
     85  C        -41.1630   11.1160   22.6400 C.2    89  LEU89       0.2260
     86  O        -42.3280   10.9320   23.0380 O.2    89  LEU89      -0.2867
     87  CB       -39.2160   11.4260   24.2230 C.3    89  LEU89       0.0270
     88  CG       -40.1140   12.2130   25.1850 C.3    89  LEU89       0.0019
     89  CD1      -40.7910   11.2640   26.2080 C.3    89  LEU89       0.0001
     90  CD2      -39.2560   13.2680   25.9020 C.3    89  LEU89       0.0001
     91  N        -43.4440    8.3040   21.1040 N.3    92  ARG92      -0.1245
     92  CA       -44.2580    7.6360   22.1490 C.3    92  ARG92       0.1563
     93  C        -45.3700    8.5570   22.6290 C.2    92  ARG92       0.2260
     94  O        -46.5180    8.1290   22.8040 O.2    92  ARG92      -0.2867
     95  CB       -43.3940    7.1930   23.3190 C.3    92  ARG92       0.0307
     96  CG       -42.3690    6.2030   22.9130 C.3    92  ARG92       0.0489
     97  CD       -41.6350    5.6440   24.1230 C.3    92  ARG92       0.2205
     98  NE       -40.9230    6.6370   24.9340 N.pl3  92  ARG92      -0.0865
     99  CZ       -39.6550    7.0070   24.7480 C.cat  92  ARG92       0.5346
    100  NH1      -38.9720    6.5710   23.6860 N.pl3  92  ARG92       0.1354
    101  NH2      -39.0800    7.8500   25.6250 N.pl3  92  ARG92       0.1354
    102  N        -42.5690    8.8780   28.7540 N.3   104  PHE104     -0.1241
    103  CA       -41.1850    8.4330   28.8110 C.3   104  PHE104      0.1605
    104  C        -41.0730    6.9370   28.6560 C.2   104  PHE104      0.2264
    105  O        -40.1380    6.4160   28.0270 O.2   104  PHE104     -0.2867
    106  CB       -40.4810    8.9170   30.0980 C.3   104  PHE104      0.0534
    107  CG       -40.1420   10.3830   30.0790 C.ar  104  PHE104     -0.0203
    108  CD1      -41.0460   11.3160   30.5630 C.ar  104  PHE104     -0.0042
    109  CD2      -38.9680   10.8430   29.4720 C.ar  104  PHE104     -0.0042
    110  CE1      -40.7560   12.6820   30.5350 C.ar  104  PHE104     -0.0003
    111  CE2      -38.7030   12.2190   29.4290 C.ar  104  PHE104     -0.0003
    112  CZ       -39.5890   13.1090   29.9530 C.ar  104  PHE104     -0.0000
    113  N        -38.7170   22.9380   31.1450 N.3   123  GLN123     -0.1245
    114  CA       -38.0890   21.8150   30.4350 C.3   123  GLN123      0.1566
    115  C        -39.1180   20.8950   29.7890 C.2   123  GLN123      0.2260
    116  O        -38.9100   20.3890   28.6760 O.2   123  GLN123     -0.2867
    117  CB       -37.1510   21.0420   31.3480 C.3   123  GLN123      0.0367
    118  CG       -37.8050   20.3560   32.5580 C.3   123  GLN123      0.0905
    119  CD       -36.7490   19.7170   33.4500 C.2   123  GLN123      0.2608
    120  OE1      -36.0420   18.8060   33.0260 O.2   123  GLN123     -0.2717
    121  NE2      -36.6330   20.1960   34.6930 N.am  123  GLN123     -0.0878
    122  N        -39.4760   19.5310   26.0100 N.3   127  MET127     -0.1245
    123  CA       -39.4840   18.0800   25.7170 C.3   127  MET127      0.1570
    124  C        -40.7080   17.6110   24.9480 C.2   127  MET127      0.2261
    125  O        -40.6200   16.6370   24.1840 O.2   127  MET127     -0.2867
    126  CB       -39.3390   17.2560   26.9900 C.3   127  MET127      0.0387
    127  CG       -37.9680   17.3800   27.6240 C.3   127  MET127      0.0595
    128  SD       -37.6470   16.2060   28.9550 S.3   127  MET127     -0.1393
    129  CE       -38.4610   17.0560   30.3290 C.3   127  MET127      0.0692
    130  N        -32.7680   21.7970   25.2640 N.3   213  LEU213     -0.1245
    131  CA       -32.6190   20.6570   26.1630 C.3   213  LEU213      0.1561
    132  C        -31.1920   20.4250   26.6260 C.2   213  LEU213      0.2260
    133  O        -30.9910   20.0260   27.7780 O.2   213  LEU213     -0.2867
    134  CB       -33.2240   19.4180   25.4920 C.3   213  LEU213      0.0270
    135  CG       -34.7190   19.6220   25.2490 C.3   213  LEU213      0.0019
    136  CD1      -35.3030   18.4530   24.4400 C.3   213  LEU213      0.0001
    137  CD2      -35.5310   19.9380   26.5120 C.3   213  LEU213      0.0001
    138  N        -30.3080   22.4500   29.7070 N.3   216  TYR216     -0.1227
    139  CA       -30.6470   21.7710   30.9760 C.3   216  TYR216      0.1736
    140  C        -29.7360   20.5870   31.2830 C.2   216  TYR216      0.2595
    141  O        -29.2820   20.4030   32.4090 O.2   216  TYR216     -0.2718
    142  CB       -32.1130   21.2780   30.9410 C.3   216  TYR216      0.0548
    143  CG       -33.0700   22.3620   31.2920 C.ar  216  TYR216     -0.0200
    144  CD1      -33.3420   22.6480   32.6390 C.ar  216  TYR216     -0.0009
    145  CD2      -33.6230   23.1680   30.3190 C.ar  216  TYR216     -0.0009
    146  CE1      -34.2380   23.6480   32.9730 C.ar  216  TYR216      0.0417
    147  CE2      -34.5340   24.1870   30.6330 C.ar  216  TYR216      0.0417
    148  CZ       -34.8070   24.4300   31.9710 C.ar  216  TYR216      0.1957
    149  OH       -35.6250   25.4810   32.3200 O.3   216  TYR216     -0.2866
    150  N        -29.4930   19.7440   30.2860 N.am  217  CYS217     -0.1970
    151  CA       -28.7070   18.5580   30.5140 C.3   217  CYS217      0.1712
    152  C        -27.3210   18.9380   31.0040 C.2   217  CYS217      0.2296
    153  O        -26.8430   18.3950   32.0050 O.2   217  CYS217     -0.2864
    154  CB       -28.5810   17.8060   29.1790 C.3   217  CYS217      0.0983
    155  SG       -27.5800   16.3400   29.2790 S.3   217  CYS217     -0.0798
    156  N        -27.4430   20.7370   34.6670 N.3   220  THR220     -0.1218
    157  CA       -27.7430   19.7950   35.7530 C.3   220  THR220      0.1862
    158  C        -26.6290   18.7710   35.9210 C.2   220  THR220      0.2287
    159  O        -26.4360   18.2240   37.0120 O.2   220  THR220     -0.2866
    160  CB       -29.1300   19.1350   35.5590 C.3   220  THR220      0.1770
    161  OG1      -29.1420   18.3770   34.3200 O.3   220  THR220     -0.2211
    162  CG2      -30.2330   20.1970   35.4660 C.3   220  THR220      0.0375
    163  N        -28.4370   16.0910   40.9880 N.3   228  ILE228     -0.1245
    164  CA       -29.1880   15.3660   39.9470 C.3   228  ILE228      0.1561
    165  C        -28.1860   14.3920   39.4400 C.2   228  ILE228      0.2260
    166  O        -27.0750   14.7760   39.0680 O.2   228  ILE228     -0.2867
    167  CB       -29.6790   16.3180   38.8510 C.3   228  ILE228      0.0252
    168  CG1      -30.7880   17.2010   39.4250 C.3   228  ILE228      0.0019
    169  CG2      -30.2090   15.5260   37.6260 C.3   228  ILE228      0.0019
    170  CD1      -31.0670   18.4220   38.5450 C.3   228  ILE228      0.0001
    171  N        -26.6910   11.1370   37.0350 N.3   230  PHE230     -0.1241
    172  CA       -26.6620   10.6110   35.6710 C.3   230  PHE230      0.1605
    173  C        -25.9420    9.2540   35.7200 C.2   230  PHE230      0.2264
    174  O        -24.9440    9.0800   36.4390 O.2   230  PHE230     -0.2867
    175  CB       -25.8310   11.5250   34.7870 C.3   230  PHE230      0.0534
    176  CG       -26.5150   12.8170   34.4450 C.ar  230  PHE230     -0.0203
    177  CD1      -26.5550   13.8570   35.3610 C.ar  230  PHE230     -0.0042
    178  CD2      -27.0940   13.0010   33.1950 C.ar  230  PHE230     -0.0042
    179  CE1      -27.1430   15.0600   35.0390 C.ar  230  PHE230     -0.0003
    180  CE2      -27.6960   14.2290   32.8720 C.ar  230  PHE230     -0.0003
    181  CZ       -27.7140   15.2410   33.7980 C.ar  230  PHE230     -0.0000
    182  N        -24.1620    7.8920   30.1960 N.3   234  LEU234     -0.1245
    183  CA       -24.5560    9.2550   29.8800 C.3   234  LEU234      0.1561
    184  C        -23.5340   10.2490   30.3850 C.2   234  LEU234      0.2260
    185  O        -23.1890   11.2040   29.6790 O.2   234  LEU234     -0.2867
    186  CB       -25.9090    9.5680   30.4830 C.3   234  LEU234      0.0270
    187  CG       -27.0330   10.0360   29.5700 C.3   234  LEU234      0.0019
    188  CD1      -27.2170    9.1090   28.3860 C.3   234  LEU234      0.0001
    189  CD2      -28.3230   10.1930   30.3530 C.3   234  LEU234      0.0001
@<TRIPOS>BOND
     1    46    47    1
     2    91    92    1
     3    78    79    2
     4    78    77    1
     5    47    48    1
     6    47    50    1
     7    68    69    1
     8    62    63    2
     9    62    61    1
    10    48    49    2
    11    48    60   am
    12    81    80    1
    13    60    61    1
    14    80    77    1
    15    80    82    1
    16    92    93    1
    17    92    95    1
    18    77    76    1
    19    76    70   am
    20    83    84    1
    21    50    51    1
    22    61    64    1
    23    70    69    1
    24    70    71    2
    25    69    72    1
    26    93    94    2
    27    85    86    2
    28    85    84    1
    29    75    74    1
    30    96    95    1
    31    96    97    1
    32    64    65    1
    33    52    51   ar
    34    52    54   ar
    35    84    87    1
    36    51    53   ar
    37   100    99    1
    38    65    66    1
    39    72    73    1
    40    40    39    2
    41    97    98    1
    42    73    74    1
    43   125   124    2
    44    87    88    1
    45    54    55   ar
    46   136   135    1
    47    53    56   ar
    48    53    55   ar
    49    99    98    2
    50    99   101    1
    51   124   123    1
    52    56    58   ar
    53    88    90    1
    54    88    89    1
    55    66    67    1
    56    55    57   ar
    57    39    38    1
    58   135   134    1
    59   135   137    1
    60   130   131    1
    61   134   131    1
    62   123   122    1
    63   123   126    1
    64    41    38    1
    65    41    42    1
    66    38    37    1
    67   131   132    1
    68    57    59   ar
    69    58    59   ar
    70    44    43    2
    71   132   133    2
    72    42    43    1
    73    43    45   am
    74   126   127    1
    75   127   128    1
    76    36    35    2
    77   105   104    2
    78   188   187    1
    79   104   103    1
    80   116   115    2
    81   102   103    1
    82   103   106    1
    83   128   129    1
    84    35    34    1
    85   154   155    1
    86   154   151    1
    87    34    33    1
    88   111   109   ar
    89   111   112   ar
    90   109   107   ar
    91   187   189    1
    92   187   186    1
    93   185   184    2
    94   138   139    1
    95    28    27    2
    96   115   114    1
    97   183   182    1
    98   183   184    1
    99   183   186    1
   100   112   110   ar
   101   107   106    1
   102   107   108   ar
   103   150   151    1
   104   150   140   am
   105   145   147   ar
   106   145   143   ar
   107   114   113    1
   108   114   117    1
   109    31    30    1
   110   151   152    1
   111   110   108   ar
   112    33    27   am
   113    30    32    1
   114    30    29    1
   115   147   148   ar
   116    27    26    1
   117   142   139    1
   118   142   143    1
   119   139   140    1
   120   152   153    2
   121   140   141    2
   122   143   144   ar
   123   117   118    1
   124    29    26    1
   125    26    25    1
   126   148   149    1
   127   148   146   ar
   128    12    11    2
   129   118   119    1
   130    20    19    2
   131   144   146   ar
   132    23    22    2
   133   180   178   ar
   134   180   181   ar
   135    15    14    1
   136   120   119    2
   137    16    14    1
   138    11    10    1
   139    11    17   am
   140    13    14    1
   141    13    10    1
   142   178   176   ar
   143    18    19    1
   144    18    17    1
   145    18    21    1
   146   119   121   am
   147    10     9    1
   148   181   179   ar
   149    22    21    1
   150    22    24   am
   151   161   160    1
   152   176   175    1
   153   176   177   ar
   154   156   157    1
   155   175   172    1
   156   179   177   ar
   157   162   160    1
   158   160   157    1
   159   172   173    1
   160   172   171    1
   161   173   174    2
   162     4     3    2
   163   157   158    1
   164   158   159    2
   165     6     7    1
   166     6     5    1
   167     7     8    1
   168     2     3    1
   169     2     5    1
   170     2     1    1
   171   169   167    1
   172   170   168    1
   173   167   168    1
   174   167   164    1
   175   166   165    2
   176   165   164    1
   177   164   163    1
