@<TRIPOS>MOLECULE
tmp/3mnqA01.pdb
 80 76 0 0 0
SMALL
GASTEIGER

@<TRIPOS>ATOM
      1  N         58.6820   48.9880  -29.1960 N.3   229  LYS229     -0.1231
      2  CA        57.7000   48.3090  -28.3760 C.3   229  LYS229      0.1693
      3  C         56.8060   47.4180  -29.2330 C.2   229  LYS229      0.2593
      4  O         56.2100   47.8820  -30.2050 O.2   229  LYS229     -0.2718
      5  CB        56.8170   49.3250  -27.6380 C.3   229  LYS229      0.0285
      6  CG        55.6460   48.6850  -26.9140 C.3   229  LYS229      0.0035
      7  CD        54.5270   49.6750  -26.6290 C.3   229  LYS229      0.0206
      8  CE        53.3700   48.9850  -25.9130 C.3   229  LYS229      0.1093
      9  NZ        52.1840   49.8640  -25.7450 N.3   229  LYS229     -0.1314
     10  N         56.7420   46.1320  -28.8950 N.am  230  THR230     -0.1939
     11  CA        55.8370   45.2250  -29.5960 C.3   230  THR230      0.2028
     12  C         54.8900   44.7870  -28.4820 C.2   230  THR230      0.2642
     13  O         55.0740   45.1700  -27.3210 O.2   230  THR230     -0.2714
     14  CB        56.5340   43.9560  -30.1860 C.3   230  THR230      0.1808
     15  OG1       56.9610   43.1050  -29.1210 O.3   230  THR230     -0.2208
     16  CG2       57.7400   44.3400  -31.0660 C.3   230  THR230      0.0379
     17  N         53.8850   43.9930  -28.8270 N.am  231  THR231     -0.1950
     18  CA        52.9300   43.5100  -27.8410 C.3   231  THR231      0.1897
     19  C         53.5570   42.5030  -26.8740 C.2   231  THR231      0.2313
     20  O         52.9530   42.1600  -25.8650 O.2   231  THR231     -0.2863
     21  CB        51.7460   42.8240  -28.5230 C.3   231  THR231      0.1794
     22  OG1       52.2410   41.7780  -29.3690 O.3   231  THR231     -0.2208
     23  CG2       50.9690   43.8190  -29.3690 C.3   231  THR231      0.0378
     24  N         58.3420   45.6630  -24.3700 N.3   234  ASN234     -0.1240
     25  CA        58.4500   47.1160  -24.4870 C.3   234  ASN234      0.1653
     26  C         59.7600   47.5680  -25.1130 C.2   234  ASN234      0.2266
     27  O         59.8590   48.6880  -25.6030 O.2   234  ASN234     -0.2867
     28  CB        58.3170   47.7790  -23.1140 C.3   234  ASN234      0.1155
     29  CG        56.9160   47.6970  -22.5660 C.2   234  ASN234      0.2627
     30  OD1       55.9480   47.6960  -23.3220 O.2   234  ASN234     -0.2716
     31  ND2       56.7970   47.6410  -21.2430 N.am  234  ASN234     -0.0877
     32  N         48.7370   49.2780  -30.6510 N.3   274  THR274     -0.1218
     33  CA        49.4060   49.3130  -29.3480 C.3   274  THR274      0.1862
     34  C         50.9320   49.1650  -29.3750 C.2   274  THR274      0.2287
     35  O         51.5630   49.1590  -28.3170 O.2   274  THR274     -0.2866
     36  CB        48.9190   48.1920  -28.3870 C.3   274  THR274      0.1770
     37  OG1       49.5820   46.9640  -28.6990 O.3   274  THR274     -0.2211
     38  CG2       47.4080   47.9950  -28.5000 C.3   274  THR274      0.0375
     39  N         55.0610   53.0220  -20.6640 N.3   316  LYS316     -0.1245
     40  CA        54.9740   53.2270  -19.2230 C.3   316  LYS316      0.1561
     41  C         56.3410   53.1010  -18.5680 C.2   316  LYS316      0.2260
     42  O         57.0530   52.1280  -18.7930 O.2   316  LYS316     -0.2867
     43  CB        54.0180   52.2110  -18.5940 C.3   316  LYS316      0.0271
     44  CG        53.8180   52.3980  -17.0910 C.3   316  LYS316      0.0035
     45  CD        53.1300   53.7270  -16.7790 C.3   316  LYS316      0.0206
     46  CE        53.0030   53.9590  -15.2770 C.3   316  LYS316      0.1093
     47  NZ        54.3380   54.0770  -14.6100 N.3   316  LYS316     -0.1314
     48  N         52.6090   38.7500  -19.7210 N.3   661  LYS661     -0.1231
     49  CA        52.0610   40.0350  -19.3150 C.3   661  LYS661      0.1693
     50  C         53.1490   41.0090  -18.8740 C.2   661  LYS661      0.2592
     51  O         52.8500   42.1100  -18.4120 O.2   661  LYS661     -0.2718
     52  CB        51.0660   39.8170  -18.1780 C.3   661  LYS661      0.0285
     53  CG        49.9520   38.8530  -18.5410 C.3   661  LYS661      0.0035
     54  CD        49.3050   38.2420  -17.3140 C.3   661  LYS661      0.0206
     55  CE        48.3540   37.1180  -17.7100 C.3   661  LYS661      0.1093
     56  NZ        47.9500   36.2940  -16.5350 N.3   661  LYS661     -0.1314
     57  N         54.4080   40.6090  -19.0270 N.am  662  GLN662     -0.1966
     58  CA        55.5330   41.4540  -18.6270 C.3   662  GLN662      0.1733
     59  C         55.3940   41.9110  -17.1730 C.2   662  GLN662      0.2616
     60  O         55.7390   43.0400  -16.8250 O.2   662  GLN662     -0.2715
     61  CB        55.6450   42.6620  -19.5670 C.3   662  GLN662      0.0408
     62  CG        56.1720   42.2930  -20.9470 C.3   662  GLN662      0.0908
     63  CD        56.1180   43.4350  -21.9380 C.2   662  GLN662      0.2608
     64  OE1       55.0980   43.6520  -22.5960 O.2   662  GLN662     -0.2717
     65  NE2       57.2190   44.1800  -22.0480 N.am  662  GLN662     -0.0878
     66  N         54.9040   41.0060  -16.3280 N.am  663  LEU663     -0.1964
     67  CA        54.6990   41.2770  -14.9080 C.3   663  LEU663      0.1713
     68  C         55.6510   40.5030  -13.9850 C.2   663  LEU663      0.2458
     69  O         55.9810   39.3410  -14.2310 O.2   663  LEU663     -0.2730
     70  CB        53.2570   40.9390  -14.5130 C.3   663  LEU663      0.0310
     71  CG        52.0960   41.7570  -15.0910 C.3   663  LEU663      0.0022
     72  CD1       50.7760   41.1420  -14.6290 C.3   663  LEU663      0.0001
     73  CD2       52.1880   43.2030  -14.6380 C.3   663  LEU663      0.0001
     74  N         56.1000   41.1440  -12.8980 N.am  664  PRO664     -0.2727
     75  CA        57.0030   40.4750  -11.9620 C.3   664  PRO664      0.1402
     76  C         56.2140   39.5640  -11.0170 C.2   664  PRO664      0.2269
     77  O         54.9870   39.5670  -11.0150 O.2   664  PRO664     -0.2865
     78  CB        57.6520   41.6410  -11.2270 C.3   664  PRO664      0.0296
     79  CG        56.5120   42.6260  -11.1270 C.3   664  PRO664      0.0237
     80  CD        55.8870   42.5560  -12.5180 C.3   664  PRO664      0.0939
@<TRIPOS>BOND
     1    16    14    1
     2    32    33    1
     3     4     3    2
     4    14    11    1
     5    14    15    1
     6    11    10    1
     7    11    12    1
     8    34    33    1
     9    34    35    2
    10    23    21    1
    11    22    21    1
    12    33    36    1
    13     3    10   am
    14     3     2    1
    15     1     2    1
    16    17    12   am
    17    17    18    1
    18    37    36    1
    19    21    18    1
    20    38    36    1
    21    12    13    2
    22     2     5    1
    23    18    19    1
    24     5     6    1
    25     6     7    1
    26    19    20    2
    27     7     8    1
    28     8     9    1
    29    27    26    2
    30    26    25    1
    31    25    24    1
    32    25    28    1
    33    30    29    2
    34    28    29    1
    35    64    63    2
    36    29    31   am
    37    65    63   am
    38    63    62    1
    39    62    61    1
    40    39    40    1
    41    48    49    1
    42    61    58    1
    43    49    50    1
    44    49    52    1
    45    40    43    1
    46    40    41    1
    47    57    50   am
    48    57    58    1
    49    50    51    2
    50    42    41    2
    51    58    59    1
    52    43    44    1
    53    53    52    1
    54    53    54    1
    55    55    54    1
    56    55    56    1
    57    59    60    2
    58    59    66   am
    59    44    45    1
    60    45    46    1
    61    66    67    1
    62    46    47    1
    63    71    73    1
    64    71    72    1
    65    71    70    1
    66    67    70    1
    67    67    68    1
    68    69    68    2
    69    68    74   am
    70    74    80    1
    71    74    75    1
    72    80    79    1
    73    75    78    1
    74    75    76    1
    75    78    79    1
    76    76    77    2
