@<TRIPOS>MOLECULE
tmp/3mnrA00.pdb
 184 174 0 0 0
SMALL
GASTEIGER

@<TRIPOS>ATOM
      1  N         -1.4500   -8.4310  -19.4830 N.3    36  ASN36      -0.1225
      2  CA        -1.0550   -8.7000  -20.8870 C.3    36  ASN36       0.1785
      3  C         -2.2720   -8.7230  -21.8200 C.2    36  ASN36       0.2597
      4  O         -2.2790   -8.0760  -22.8800 O.2    36  ASN36      -0.2718
      5  CB        -0.3010  -10.0360  -21.0120 C.3    36  ASN36       0.1169
      6  CG         1.0770  -10.0240  -20.3490 C.2    36  ASN36       0.2627
      7  OD1        1.7170   -8.9620  -20.1750 O.2    36  ASN36      -0.2716
      8  ND2        1.5550  -11.2180  -19.9880 N.am   36  ASN36      -0.0877
      9  N         -3.2910   -9.4850  -21.4270 N.am   37  SER37      -0.1952
     10  CA        -4.5450   -9.5520  -22.1780 C.3    37  SER37       0.1924
     11  C         -5.1790   -8.1690  -22.3470 C.2    37  SER37       0.2314
     12  O         -5.5730   -7.7910  -23.4490 O.2    37  SER37      -0.2863
     13  CB        -5.5300  -10.4910  -21.4730 C.3    37  SER37       0.2116
     14  OG        -5.0890  -11.8440  -21.5720 O.3    37  SER37      -0.2180
     15  N         -3.7880   -5.1900  -22.2600 N.3    39  ASP39      -0.1225
     16  CA        -2.9740   -4.3750  -23.1810 C.3    39  ASP39       0.1805
     17  C         -3.2160   -4.7870  -24.6480 C.2    39  ASP39       0.2597
     18  O         -3.3700   -3.9300  -25.5390 O.2    39  ASP39      -0.2718
     19  CB        -1.4830   -4.5220  -22.8360 C.3    39  ASP39       0.1424
     20  CG        -1.0850   -3.7870  -21.5500 C.2    39  ASP39       0.3668
     21  OD1       -1.9050   -3.0450  -20.9640 O.co2  39  ASP39      -0.2456
     22  OD2        0.0730   -3.9660  -21.1270 O.co2  39  ASP39      -0.2456
     23  N         -3.2610   -6.0970  -24.8890 N.am   40  ALA40      -0.1979
     24  CA        -3.6070   -6.6570  -26.2080 C.3    40  ALA40       0.1597
     25  C         -5.0070   -6.2380  -26.6980 C.2    40  ALA40       0.2287
     26  O         -5.1980   -5.9170  -27.8780 O.2    40  ALA40      -0.2864
     27  CB        -3.5010   -8.1770  -26.1730 C.3    40  ALA40       0.0319
     28  N         -5.0190   -2.5980  -27.6550 N.3    43  LYS43      -0.1245
     29  CA        -4.3570   -2.4360  -28.9600 C.3    43  LYS43       0.1561
     30  C         -5.2820   -2.7010  -30.1400 C.2    43  LYS43       0.2260
     31  O         -5.3550   -1.8880  -31.0690 O.2    43  LYS43      -0.2867
     32  CB        -3.0980   -3.3160  -29.0510 C.3    43  LYS43       0.0271
     33  CG        -2.1930   -3.0340  -30.2650 C.3    43  LYS43       0.0035
     34  CD        -0.7720   -3.5560  -30.0060 C.3    43  LYS43       0.0206
     35  CE         0.1410   -3.2900  -31.1840 C.3    43  LYS43       0.1093
     36  NZ         1.5630   -3.7050  -30.9300 N.3    43  LYS43      -0.1314
     37  N         -8.0750  -14.4310  -24.4280 N.3    78  ASP78      -0.1239
     38  CA        -8.5650  -13.0990  -24.7680 C.3    78  ASP78       0.1674
     39  C         -8.8080  -12.9610  -26.2630 C.2    78  ASP78       0.2266
     40  O         -8.3010  -13.7560  -27.0630 O.2    78  ASP78      -0.2867
     41  CB        -7.6190  -12.0050  -24.2430 C.3    78  ASP78       0.1410
     42  CG        -6.2740  -11.9840  -24.9650 C.2    78  ASP78       0.3668
     43  OD1       -6.2510  -11.6590  -26.1770 O.co2  78  ASP78      -0.2456
     44  OD2       -5.2430  -12.2850  -24.3160 O.co2  78  ASP78      -0.2456
     45  N         -5.3310   -8.3190  -29.7360 N.3    81  ILE81      -0.1231
     46  CA        -4.6680   -8.1140  -31.0170 C.3    81  ILE81       0.1692
     47  C         -4.0220   -9.4030  -31.5460 C.2    81  ILE81       0.2593
     48  O         -3.8920   -9.5960  -32.7560 O.2    81  ILE81      -0.2718
     49  CB        -3.6060   -6.9580  -30.8990 C.3    81  ILE81       0.0266
     50  CG1       -2.9790   -6.6080  -32.2570 C.3    81  ILE81       0.0019
     51  CG2       -2.5560   -7.2610  -29.8190 C.3    81  ILE81       0.0020
     52  CD1       -3.9230   -5.8190  -33.1740 C.3    81  ILE81       0.0001
     53  N         -3.6250  -10.2710  -30.6250 N.am   82  GLY82      -0.1942
     54  CA        -2.8490  -11.4670  -30.9730 C.3    82  GLY82       0.2014
     55  C         -1.4320  -11.1100  -31.3720 C.2    82  GLY82       0.2638
     56  O         -1.0460   -9.9430  -31.3420 O.2    82  GLY82      -0.2714
     57  N         -0.6590  -12.1250  -31.7570 N.am   83  MET83      -0.1976
     58  CA         0.7550  -11.9540  -32.0540 C.3    83  MET83       0.1605
     59  C          1.1270  -12.6290  -33.3760 C.2    83  MET83       0.2287
     60  O          0.7370  -13.7650  -33.6350 O.2    83  MET83      -0.2864
     61  CB         1.6010  -12.5340  -30.9170 C.3    83  MET83       0.0413
     62  CG         1.5100  -11.7540  -29.6010 C.3    83  MET83       0.0598
     63  SD         2.2550  -12.6180  -28.2080 S.3    83  MET83      -0.1393
     64  CE         0.9130  -13.7040  -27.7140 C.3    83  MET83       0.0692
     65  N          6.2390  -11.1560  -33.7290 N.3    87  ASP87      -0.1225
     66  CA         5.9320  -10.7920  -32.3400 C.3    87  ASP87       0.1805
     67  C          6.3750  -11.9090  -31.3900 C.2    87  ASP87       0.2597
     68  O          7.0430  -11.6450  -30.3840 O.2    87  ASP87      -0.2718
     69  CB         4.4310  -10.5560  -32.1490 C.3    87  ASP87       0.1424
     70  CG         3.9350   -9.2970  -32.8260 C.2    87  ASP87       0.3668
     71  OD1        4.6810   -8.2930  -32.8930 O.co2  87  ASP87      -0.2456
     72  OD2        2.7710   -9.3120  -33.2800 O.co2  87  ASP87      -0.2456
     73  N          6.0050  -13.1540  -31.7180 N.am   88  LEU88      -0.1979
     74  CA         6.2760  -14.3150  -30.8520 C.3    88  LEU88       0.1596
     75  C          7.7500  -14.6280  -30.6600 C.2    88  LEU88       0.2287
     76  O          8.1870  -14.9850  -29.5650 O.2    88  LEU88      -0.2864
     77  CB         5.6090  -15.5750  -31.4120 C.3    88  LEU88       0.0297
     78  CG         4.1780  -15.9280  -31.0550 C.3    88  LEU88       0.0022
     79  CD1        3.8160  -17.2220  -31.7700 C.3    88  LEU88       0.0001
     80  CD2        3.9800  -16.0650  -29.5420 C.3    88  LEU88       0.0001
     81  N          8.5970   -9.0090  -29.1800 N.3    92  LEU92      -0.1231
     82  CA         8.3040   -8.9140  -27.7420 C.3    92  LEU92       0.1693
     83  C          9.5250   -9.3010  -26.9050 C.2    92  LEU92       0.2592
     84  O          9.7590   -8.7250  -25.8390 O.2    92  LEU92      -0.2718
     85  CB         7.0810   -9.7610  -27.3720 C.3    92  LEU92       0.0284
     86  CG         5.7710   -9.1850  -27.9180 C.3    92  LEU92       0.0019
     87  CD1        4.6750  -10.2400  -27.9220 C.3    92  LEU92       0.0001
     88  CD2        5.3340   -7.9430  -27.1420 C.3    92  LEU92       0.0001
     89  N         10.2960  -10.2650  -27.4110 N.am   93  GLY93      -0.1957
     90  CA        11.5530  -10.6990  -26.7950 C.3    93  GLY93       0.1869
     91  C         12.6170   -9.6160  -26.7260 C.2    93  GLY93       0.2309
     92  O         13.3530   -9.5330  -25.7440 O.2    93  GLY93      -0.2863
     93  N         11.9840   -6.3180  -26.5640 N.3    95  ILE95      -0.1231
     94  CA        11.5140   -5.4160  -25.5080 C.3    95  ILE95       0.1692
     95  C         11.7390   -6.0230  -24.1160 C.2    95  ILE95       0.2591
     96  O         12.1350   -5.3200  -23.1800 O.2    95  ILE95      -0.2718
     97  CB        10.0120   -5.0550  -25.6830 C.3    95  ILE95       0.0266
     98  CG1        9.7340   -4.5190  -27.0940 C.3    95  ILE95       0.0019
     99  CG2        9.5660   -4.0520  -24.6200 C.3    95  ILE95       0.0020
    100  CD1       10.4580   -3.2390  -27.4590 C.3    95  ILE95       0.0001
    101  N         11.5060   -7.3270  -23.9940 N.am   96  ALA96      -0.1980
    102  CA        11.6680   -8.0320  -22.7240 C.3    96  ALA96       0.1597
    103  C         13.1310   -8.0830  -22.2480 C.2    96  ALA96       0.2287
    104  O         13.3930   -8.1530  -21.0460 O.2    96  ALA96      -0.2864
    105  CB        11.0860   -9.4330  -22.8190 C.3    96  ALA96       0.0319
    106  N          7.5670   -4.6040  -17.8010 N.3   120  GLY120     -0.1210
    107  CA         7.0580   -5.1230  -19.0630 C.3   120  GLY120      0.1956
    108  C          7.2610   -6.6050  -19.3050 C.2   120  GLY120      0.2611
    109  O          6.9380   -7.0940  -20.3850 O.2   120  GLY120     -0.2717
    110  N          7.7700   -7.3170  -18.2960 N.am  121  VAL121     -0.1979
    111  CA         8.1000   -8.7450  -18.4090 C.3   121  VAL121      0.1595
    112  C          7.2310   -9.6320  -17.4950 C.2   121  VAL121      0.2287
    113  O          7.5990  -10.7700  -17.1550 O.2   121  VAL121     -0.2864
    114  CB         9.6190   -9.0060  -18.1600 C.3   121  VAL121      0.0276
    115  CG1       10.4430   -8.3700  -19.2590 C.3   121  VAL121      0.0022
    116  CG2       10.0660   -8.4750  -16.7920 C.3   121  VAL121      0.0022
    117  N          4.7270  -11.3710  -18.1510 N.3   123  PHE123     -0.1227
    118  CA         4.3570  -12.6760  -18.7390 C.3   123  PHE123      0.1736
    119  C          5.1090  -13.8190  -18.0540 C.2   123  PHE123      0.2595
    120  O          4.5500  -14.8790  -17.8060 O.2   123  PHE123     -0.2718
    121  CB         4.6090  -12.7410  -20.2530 C.3   123  PHE123      0.0547
    122  CG         4.5070  -14.1430  -20.8200 C.ar  123  PHE123     -0.0202
    123  CD1        3.2630  -14.7160  -21.0780 C.ar  123  PHE123     -0.0042
    124  CD2        5.6550  -14.9080  -21.0470 C.ar  123  PHE123     -0.0042
    125  CE1        3.1580  -16.0140  -21.5700 C.ar  123  PHE123     -0.0003
    126  CE2        5.5580  -16.2130  -21.5540 C.ar  123  PHE123     -0.0003
    127  CZ         4.3060  -16.7610  -21.8130 C.ar  123  PHE123     -0.0000
    128  N          6.3800  -13.5930  -17.7600 N.am  124  TYR124     -0.1976
    129  CA         7.2390  -14.6590  -17.2520 C.3   124  TYR124      0.1639
    130  C          6.9180  -15.0450  -15.8070 C.2   124  TYR124      0.2290
    131  O          7.3780  -16.0720  -15.3190 O.2   124  TYR124     -0.2864
    132  CB         8.7210  -14.2980  -17.4670 C.3   124  TYR124      0.0560
    133  CG         9.0670  -14.3020  -18.9410 C.ar  124  TYR124     -0.0198
    134  CD1        9.3140  -15.5090  -19.6150 C.ar  124  TYR124     -0.0009
    135  CD2        9.0780  -13.1220  -19.6780 C.ar  124  TYR124     -0.0009
    136  CE1        9.5930  -15.5310  -20.9800 C.ar  124  TYR124      0.0417
    137  CE2        9.3560  -13.1330  -21.0600 C.ar  124  TYR124      0.0417
    138  CZ         9.6170  -14.3390  -21.6960 C.ar  124  TYR124      0.1957
    139  OH         9.9030  -14.3560  -23.0470 O.3   124  TYR124     -0.2866
    140  N          1.3020  -21.0810  -25.5180 N.3   135  VAL135     -0.1245
    141  CA         0.6340  -19.8710  -26.0020 C.3   135  VAL135      0.1561
    142  C          0.1270  -20.0780  -27.4180 C.2   135  VAL135      0.2260
    143  O          0.9140  -20.2540  -28.3500 O.2   135  VAL135     -0.2867
    144  CB         1.5620  -18.6140  -25.9250 C.3   135  VAL135      0.0252
    145  CG1        0.8470  -17.3670  -26.4600 C.3   135  VAL135      0.0019
    146  CG2        1.9950  -18.3790  -24.4880 C.3   135  VAL135      0.0019
    147  N         -3.1340  -13.4920  -34.8960 N.3   139  HIS139     -0.1241
    148  CA        -3.1440  -12.0860  -35.2830 C.3   139  HIS139      0.1621
    149  C         -3.8000  -11.9890  -36.6570 C.2   139  HIS139      0.2264
    150  O         -3.6690  -12.9090  -37.4780 O.2   139  HIS139     -0.2867
    151  CB        -1.6960  -11.5760  -35.3410 C.3   139  HIS139      0.0745
    152  CG        -1.5610  -10.0920  -35.5040 C.ar  139  HIS139      0.0817
    153  ND1       -1.7990   -9.4450  -36.6990 N.ar  139  HIS139     -0.2268
    154  CD2       -1.1490   -9.1370  -34.6370 C.ar  139  HIS139      0.1154
    155  CE1       -1.5720   -8.1500  -36.5500 C.ar  139  HIS139      0.1986
    156  NE2       -1.1770   -7.9370  -35.3070 N.ar  139  HIS139     -0.2212
    157  N          3.1690  -21.3190  -29.4100 N.3   147  TRP147     -0.1241
    158  CA         4.4860  -21.1250  -28.7690 C.3   147  TRP147      0.1605
    159  C          4.4790  -21.9800  -27.5090 C.2   147  TRP147      0.2264
    160  O          3.4360  -22.1060  -26.8550 O.2   147  TRP147     -0.2867
    161  CB         4.6200  -19.6460  -28.3970 C.3   147  TRP147      0.0550
    162  CG         5.8450  -19.1780  -27.6170 C.ar  147  TRP147      0.0003
    163  CD1        6.9190  -18.5010  -28.1200 C.ar  147  TRP147      0.0946
    164  CD2        6.0730  -19.2860  -26.1970 C.ar  147  TRP147      0.0152
    165  NE1        7.8060  -18.1980  -27.1100 N.ar  147  TRP147     -0.2442
    166  CE2        7.3070  -18.6600  -25.9220 C.ar  147  TRP147      0.0810
    167  CE3        5.3490  -19.8450  -25.1310 C.ar  147  TRP147      0.0012
    168  CZ2        7.8450  -18.5860  -24.6240 C.ar  147  TRP147      0.0191
    169  CZ3        5.8810  -19.7680  -23.8420 C.ar  147  TRP147      0.0001
    170  CH2        7.1180  -19.1420  -23.6030 C.ar  147  TRP147      0.0015
    171  N         -5.4810  -14.5670  -28.1460 N.3   169  THR169     -0.1218
    172  CA        -4.4270  -15.3570  -27.5280 C.3   169  THR169      0.1862
    173  C         -4.9820  -16.2200  -26.3950 C.2   169  THR169      0.2287
    174  O         -5.8360  -15.7720  -25.6120 O.2   169  THR169     -0.2866
    175  CB        -3.2970  -14.4270  -26.9930 C.3   169  THR169      0.1770
    176  OG1       -2.7510  -13.6780  -28.0860 O.3   169  THR169     -0.2211
    177  CG2       -2.1630  -15.2320  -26.3260 C.3   169  THR169      0.0375
    178  N         -3.2990  -18.3480  -23.2220 N.3   171  VAL171     -0.1245
    179  CA        -2.1260  -18.7480  -22.4460 C.3   171  VAL171      0.1561
    180  C         -2.5220  -19.9270  -21.5520 C.2   171  VAL171      0.2260
    181  O         -3.3290  -19.7850  -20.6250 O.2   171  VAL171     -0.2867
    182  CB        -1.5550  -17.5670  -21.6360 C.3   171  VAL171      0.0252
    183  CG1       -0.3910  -18.0030  -20.7610 C.3   171  VAL171      0.0019
    184  CG2       -1.1260  -16.4370  -22.5880 C.3   171  VAL171      0.0019
@<TRIPOS>BOND
     1   150   149    2
     2   153   155   ar
     3   153   152   ar
     4   149   148    1
     5   155   156   ar
     6   152   151    1
     7   152   154   ar
     8   151   148    1
     9   156   154   ar
    10   148   147    1
    11    65    66    1
    12    60    59    2
    13    59    58    1
    14    72    70   ar
    15    52    50    1
    16    71    70   ar
    17    70    69    1
    18    48    47    2
    19    66    69    1
    20    66    67    1
    21    50    49    1
    22    58    57    1
    23    58    61    1
    24    79    78    1
    25    57    55   am
    26    73    67   am
    27    73    74    1
    28    47    46    1
    29    47    53   am
    30    77    78    1
    31    77    74    1
    32    67    68    2
    33    55    56    2
    34    55    54    1
    35    35    36    1
    36    35    34    1
    37    31    30    2
    38    78    80    1
    39    46    49    1
    40    46    45    1
    41    54    53    1
    42    61    62    1
    43    49    51    1
    44    74    75    1
    45    75    76    2
    46    33    34    1
    47    33    32    1
    48    30    29    1
    49    62    63    1
    50   157   158    1
    51    81    82    1
    52    32    29    1
    53    29    28    1
    54   158   161    1
    55   158   159    1
    56   161   162    1
    57   143   142    2
    58    63    64    1
    59   171   172    1
    60   163   162   ar
    61   163   165   ar
    62   176   175    1
    63    87    86    1
    64    86    85    1
    65    86    88    1
    66    26    25    2
    67    82    85    1
    68    82    83    1
    69   162   164   ar
    70   172   175    1
    71   172   173    1
    72   159   160    2
    73   100    98    1
    74   142   141    1
    75    89    83   am
    76    89    90    1
    77   165   166   ar
    78    98    97    1
    79    40    39    2
    80   175   177    1
    81    83    84    2
    82    90    91    1
    83    91    92    2
    84    25    24    1
    85    93    94    1
    86   145   144    1
    87   173   174    2
    88    39    38    1
    89    24    27    1
    90    24    23    1
    91   164   166   ar
    92   164   167   ar
    93    43    42   ar
    94   141   144    1
    95   141   140    1
    96   144   146    1
    97   166   168   ar
    98    97    94    1
    99    97    99    1
   100    18    17    2
   101    94    95    1
   102   167   169   ar
   103    42    44   ar
   104    42    41    1
   105    23    17   am
   106    38    37    1
   107    38    41    1
   108    17    16    1
   109   168   170   ar
   110    95   101   am
   111    95    96    2
   112   101   102    1
   113   169   170   ar
   114    12    11    2
   115   178   179    1
   116    16    19    1
   117    16    15    1
   118   139   138    1
   119     4     3    2
   120    19    20    1
   121   105   102    1
   122   102   103    1
   123   184   182    1
   124   179   182    1
   125   179   180    1
   126    11    10    1
   127   103   104    2
   128    10    13    1
   129    10     9    1
   130     3     9   am
   131     3     2    1
   132   127   125   ar
   133   127   126   ar
   134   138   137   ar
   135   138   136   ar
   136   182   183    1
   137    14    13    1
   138   125   123   ar
   139   126   124   ar
   140   180   181    2
   141    20    22   ar
   142    20    21   ar
   143   123   122   ar
   144   137   135   ar
   145   124   122   ar
   146     5     2    1
   147     5     6    1
   148   136   134   ar
   149     2     1    1
   150   122   121    1
   151   109   108    2
   152     6     7    2
   153     6     8   am
   154   121   118    1
   155   135   133   ar
   156   134   133   ar
   157   108   107    1
   158   108   110   am
   159   115   114    1
   160   107   106    1
   161   133   132    1
   162   118   117    1
   163   118   119    1
   164   111   110    1
   165   111   114    1
   166   111   112    1
   167   114   116    1
   168   119   120    2
   169   119   128   am
   170   128   129    1
   171   112   113    2
   172   132   129    1
   173   129   130    1
   174   130   131    2
