@<TRIPOS>MOLECULE
tmp/3mnuA01.pdb
 114 113 0 0 0
SMALL
GASTEIGER

@<TRIPOS>ATOM
      1  N        -12.6680    6.2270   11.1330 N.3    89  GLN89      -0.1245
      2  CA       -12.3040    5.0740   10.3110 C.3    89  GLN89       0.1566
      3  C        -12.4410    3.7760   11.0820 C.2    89  GLN89       0.2260
      4  O        -12.5270    3.7850   12.3060 O.2    89  GLN89      -0.2867
      5  CB       -10.8460    5.1950    9.8400 C.3    89  GLN89       0.0367
      6  CG        -9.8120    5.2160   10.9890 C.3    89  GLN89       0.0905
      7  CD        -8.9560    3.9540   11.0680 C.2    89  GLN89       0.2608
      8  OE1       -9.4640    2.8360   11.0190 O.2    89  GLN89      -0.2717
      9  NE2       -7.6500    4.1360   11.2070 N.am   89  GLN89      -0.0878
     10  N        -11.0960   -0.5960   10.8250 N.3    91  HIS91      -0.1241
     11  CA       -10.2420   -1.5690   10.1660 C.3    91  HIS91       0.1621
     12  C        -10.2910   -2.8250   11.0080 C.2    91  HIS91       0.2264
     13  O        -10.9400   -2.8470   12.0540 O.2    91  HIS91      -0.2867
     14  CB        -8.8030   -1.0680   10.1090 C.3    91  HIS91       0.0745
     15  CG        -8.2400   -0.7340   11.4550 C.ar   91  HIS91       0.0817
     16  ND1       -8.4210    0.4940   12.0510 N.ar   91  HIS91      -0.2268
     17  CD2       -7.5450   -1.4850   12.3410 C.ar   91  HIS91       0.1154
     18  CE1       -7.8610    0.4870   13.2480 C.ar   91  HIS91       0.1986
     19  NE2       -7.3230   -0.7030   13.4480 N.ar   91  HIS91      -0.2212
     20  N         -8.0160   -6.6300   12.3100 N.3    93  HIS93      -0.1241
     21  CA        -6.7640   -7.3150   12.5840 C.3    93  HIS93       0.1621
     22  C         -7.2060   -8.7710   12.4830 C.2    93  HIS93       0.2264
     23  O         -8.2250   -9.1460   13.0650 O.2    93  HIS93      -0.2867
     24  CB        -6.2750   -7.0100   14.0030 C.3    93  HIS93       0.0745
     25  CG        -5.8910   -5.5800   14.2130 C.ar   93  HIS93       0.0817
     26  ND1       -4.6220   -5.1030   13.9580 N.ar   93  HIS93      -0.2268
     27  CD2       -6.6190   -4.5130   14.6200 C.ar   93  HIS93       0.1154
     28  CE1       -4.5860   -3.8040   14.2020 C.ar   93  HIS93       0.1986
     29  NE2       -5.7840   -3.4220   14.6040 N.ar   93  HIS93      -0.2212
     30  N        -11.9140   -2.6510   14.6660 N.3   116  HIS116     -0.1241
     31  CA       -11.6440   -1.4410   15.4290 C.3   116  HIS116      0.1621
     32  C        -12.3050   -0.2160   14.7970 C.2   116  HIS116      0.2264
     33  O        -11.9410    0.2000   13.6980 O.2   116  HIS116     -0.2867
     34  CB       -10.1300   -1.2150   15.5280 C.3   116  HIS116      0.0745
     35  CG        -9.4370   -2.1710   16.4490 C.ar  116  HIS116      0.0817
     36  ND1       -8.0650   -2.2950   16.5040 N.ar  116  HIS116     -0.2268
     37  CD2       -9.9290   -3.0420   17.3610 C.ar  116  HIS116      0.1154
     38  CE1       -7.7430   -3.2020   17.4090 C.ar  116  HIS116      0.1986
     39  NE2       -8.8550   -3.6690   17.9450 N.ar  116  HIS116     -0.2212
     40  N        -12.5970    3.5180   15.1050 N.3   118  VAL118     -0.1245
     41  CA       -11.8560    4.6300   15.7040 C.3   118  VAL118      0.1561
     42  C        -12.6120    5.9580   15.7550 C.2   118  VAL118      0.2260
     43  O        -13.1340    6.4200   14.7400 O.2   118  VAL118     -0.2867
     44  CB       -10.5300    4.8470   14.9350 C.3   118  VAL118      0.0252
     45  CG1       -9.6400    5.8370   15.6700 C.3   118  VAL118      0.0019
     46  CG2       -9.8210    3.5200   14.7460 C.3   118  VAL118      0.0019
     47  N         -8.5500   14.9190   14.6720 N.3   127  PHE127     -0.1241
     48  CA        -7.8110   13.7280   15.0640 C.3   127  PHE127      0.1605
     49  C         -6.3690   14.0360   15.4480 C.2   127  PHE127      0.2264
     50  O         -5.8420   13.4690   16.4090 O.2   127  PHE127     -0.2867
     51  CB        -7.8410   12.6900   13.9350 C.3   127  PHE127      0.0534
     52  CG        -7.1800   11.3910   14.2970 C.ar  127  PHE127     -0.0203
     53  CD1       -5.8030   11.2460   14.2140 C.ar  127  PHE127     -0.0042
     54  CD2       -7.9360   10.3270   14.7800 C.ar  127  PHE127     -0.0042
     55  CE1       -5.1860   10.0640   14.6100 C.ar  127  PHE127     -0.0003
     56  CE2       -7.3270    9.1400   15.1800 C.ar  127  PHE127     -0.0003
     57  CZ        -5.9500    9.0110   15.0940 C.ar  127  PHE127     -0.0000
     58  N        -11.7940    3.7760   20.9360 N.3   139  VAL139     -0.1245
     59  CA       -11.8810    2.7460   19.9180 C.3   139  VAL139      0.1561
     60  C        -12.8420    1.6710   20.3940 C.2   139  VAL139      0.2260
     61  O        -12.7110    1.1440   21.5010 O.2   139  VAL139     -0.2867
     62  CB       -10.5040    2.1140   19.6080 C.3   139  VAL139      0.0252
     63  CG1      -10.6420    1.1030   18.4730 C.3   139  VAL139      0.0019
     64  CG2       -9.5120    3.1950   19.2020 C.3   139  VAL139      0.0019
     65  N         -2.8880    3.0090   21.0460 N.3   194  LEU194     -0.1231
     66  CA        -3.0580    2.5320   19.6860 C.3   194  LEU194      0.1693
     67  C         -2.2720    1.2220   19.7400 C.2   194  LEU194      0.2593
     68  O         -1.2700    1.1370   20.4540 O.2   194  LEU194     -0.2718
     69  CB        -2.3920    3.4850   18.6890 C.3   194  LEU194      0.0284
     70  CG        -2.9140    4.9180   18.5870 C.3   194  LEU194      0.0019
     71  CD1       -2.0870    5.6800   17.5630 C.3   194  LEU194      0.0001
     72  CD2       -4.3870    4.9010   18.1920 C.3   194  LEU194      0.0001
     73  N         -2.7160    0.2030   19.0100 N.am  195  THR195     -0.1939
     74  CA        -2.0220   -1.0840   19.0180 C.3   195  THR195      0.2028
     75  C         -0.9990   -1.1850   17.8910 C.2   195  THR195      0.2643
     76  O         -0.3540   -2.2210   17.7130 O.2   195  THR195     -0.2714
     77  CB        -3.0020   -2.2610   18.8770 C.3   195  THR195      0.1808
     78  OG1       -3.6170   -2.2070   17.5820 O.3   195  THR195     -0.2208
     79  CG2       -4.0710   -2.2040   19.9730 C.3   195  THR195      0.0379
     80  N         -0.8670   -0.1080   17.1270 N.am  196  THR196     -0.1937
     81  CA         0.0940   -0.0530   16.0360 C.3   196  THR196      0.2013
     82  C          0.9430    1.2010   16.2150 C.2   196  THR196      0.2484
     83  O          0.4850    2.1880   16.7930 O.2   196  THR196     -0.2729
     84  CB        -0.6060    0.0370   14.6550 C.3   196  THR196      0.1807
     85  OG1       -1.4280    1.2100   14.6110 O.3   196  THR196     -0.2208
     86  CG2       -1.4640   -1.1880   14.4040 C.3   196  THR196      0.0379
     87  N          2.2030    1.1690   15.7570 N.am  197  PRO197     -0.2715
     88  CA         3.0320    2.3680   15.9050 C.3   197  PRO197      0.1521
     89  C          2.2270    3.5310   15.3320 C.2   197  PRO197      0.2440
     90  O          1.5300    3.3600   14.3300 O.2   197  PRO197     -0.2731
     91  CB         4.2530    2.0320   15.0610 C.3   197  PRO197      0.0310
     92  CG         4.4270    0.5630   15.3340 C.3   197  PRO197      0.0237
     93  CD         2.9940    0.0390   15.2340 C.3   197  PRO197      0.0939
     94  N          2.3470    4.7360   15.9150 N.am  198  PRO198     -0.2727
     95  CA         3.1660    5.1540   17.0590 C.3   198  PRO198      0.1402
     96  C          2.7710    4.6870   18.4640 C.2   198  PRO198      0.2269
     97  O          3.3860    5.1120   19.4440 O.2   198  PRO198     -0.2865
     98  CB         3.1610    6.6740   16.9370 C.3   198  PRO198      0.0296
     99  CG         1.7940    6.9490   16.4200 C.3   198  PRO198      0.0237
    100  CD         1.6320    5.8950   15.3420 C.3   198  PRO198      0.0939
    101  N        -10.4620    2.2990   25.5420 N.3   205  TRP205     -0.1241
    102  CA       -10.9410    1.1340   24.8250 C.3   205  TRP205      0.1605
    103  C        -12.2830    0.6550   25.3310 C.2   205  TRP205      0.2264
    104  O        -12.5180    0.5840   26.5340 O.2   205  TRP205     -0.2867
    105  CB        -9.9320   -0.0220   24.9220 C.3   205  TRP205      0.0550
    106  CG        -8.8000    0.0940   23.9650 C.ar  205  TRP205      0.0003
    107  CD1       -7.5840    0.6710   24.1910 C.ar  205  TRP205      0.0946
    108  CD2       -8.7940   -0.3390   22.6030 C.ar  205  TRP205      0.0152
    109  NE1       -6.8200    0.6260   23.0490 N.ar  205  TRP205     -0.2442
    110  CE2       -7.5390    0.0110   22.0580 C.ar  205  TRP205      0.0810
    111  CE3       -9.7310   -0.9900   21.7860 C.ar  205  TRP205      0.0012
    112  CZ2       -7.1930   -0.2670   20.7330 C.ar  205  TRP205      0.0191
    113  CZ3       -9.3870   -1.2670   20.4670 C.ar  205  TRP205      0.0001
    114  CH2       -8.1280   -0.9040   19.9550 C.ar  205  TRP205      0.0015
@<TRIPOS>BOND
     1     5     2    1
     2     5     6    1
     3    14    11    1
     4    14    15    1
     5    11    10    1
     6    11    12    1
     7     2     3    1
     8     2     1    1
     9     6     7    1
    10    12    13    2
    11     8     7    2
    12     7     9   am
    13     3     4    2
    14    15    16   ar
    15    15    17   ar
    16    16    18   ar
    17    20    21    1
    18    17    19   ar
    19    22    21    1
    20    22    23    2
    21    21    24    1
    22    18    19   ar
    23    33    32    2
    24    51    52    1
    25    51    48    1
    26    26    28   ar
    27    26    25   ar
    28    24    25    1
    29    28    29   ar
    30    25    27   ar
    31    53    52   ar
    32    53    55   ar
    33    52    54   ar
    34    90    89    2
    35    86    84    1
    36    29    27   ar
    37    55    57   ar
    38    85    84    1
    39    84    81    1
    40    30    31    1
    41    47    48    1
    42    43    42    2
    43    46    44    1
    44    54    56   ar
    45    32    31    1
    46    44    45    1
    47    44    41    1
    48    91    92    1
    49    91    88    1
    50    48    49    1
    51    57    56   ar
    52    40    41    1
    53    93    92    1
    54    93    87    1
    55    89    88    1
    56    89    94   am
    57   100    94    1
    58   100    99    1
    59    31    34    1
    60    49    50    2
    61    34    35    1
    62    41    42    1
    63    87    88    1
    64    87    82   am
    65    94    95    1
    66    81    82    1
    67    81    80    1
    68    82    83    2
    69    99    98    1
    70    35    36   ar
    71    35    37   ar
    72    36    38   ar
    73    98    95    1
    74    95    96    1
    75    80    75   am
    76    37    39   ar
    77    38    39   ar
    78    71    70    1
    79    78    77    1
    80    76    75    2
    81    75    74    1
    82    72    70    1
    83    96    97    2
    84    63    62    1
    85    70    69    1
    86    69    66    1
    87    77    74    1
    88    77    79    1
    89    73    74    1
    90    73    67   am
    91    64    62    1
    92    62    59    1
    93    66    67    1
    94    66    65    1
    95    67    68    2
    96    59    60    1
    97    59    58    1
    98   114   113   ar
    99   114   112   ar
   100    60    61    2
   101   113   111   ar
   102   112   110   ar
   103   111   108   ar
   104   110   108   ar
   105   110   109   ar
   106   108   106   ar
   107   109   107   ar
   108   106   107   ar
   109   106   105    1
   110   102   105    1
   111   102   103    1
   112   102   101    1
   113   103   104    2
