@<TRIPOS>MOLECULE
tmp/3mo0B01.pdb
 147 141 0 0 0
SMALL
GASTEIGER

@<TRIPOS>ATOM
      1  N         -0.4820  -14.9270   59.8080 N.3   138  ASP138     -0.1239
      2  CA        -0.1290  -14.9370   61.2250 C.3   138  ASP138      0.1674
      3  C         -0.3180  -16.3490   61.7620 C.2   138  ASP138      0.2266
      4  O          0.2680  -16.7380   62.7760 O.2   138  ASP138     -0.2867
      5  CB        -1.0260  -13.9560   61.9900 C.3   138  ASP138      0.1410
      6  CG        -0.6510  -13.8320   63.4580 C.2   138  ASP138      0.3668
      7  OD1       -1.2500  -12.9770   64.1440 O.co2 138  ASP138     -0.2456
      8  OD2        0.2350  -14.5800   63.9290 O.co2 138  ASP138     -0.2456
      9  N          2.5590  -18.6870   60.2560 N.3   141  ALA141     -0.1231
     10  CA         3.7550  -18.2170   60.9400 C.3   141  ALA141      0.1694
     11  C          4.0910  -19.0790   62.1560 C.2   141  ALA141      0.2592
     12  O          5.2610  -19.3480   62.4380 O.2   141  ALA141     -0.2718
     13  CB         3.5640  -16.7640   61.3630 C.3   141  ALA141      0.0304
     14  N          3.0640  -19.5100   62.8790 N.am  142  ASP142     -0.1960
     15  CA         3.2840  -20.3330   64.0550 C.3   142  ASP142      0.1840
     16  C          3.5530  -21.7710   63.6250 C.2   142  ASP142      0.2622
     17  O          3.9720  -22.6070   64.4230 O.2   142  ASP142     -0.2715
     18  CB         2.0660  -20.2750   64.9740 C.3   142  ASP142      0.1450
     19  CG         2.4520  -20.2200   66.4370 C.2   142  ASP142      0.3671
     20  OD1        3.1960  -21.1150   66.8890 O.co2 142  ASP142     -0.2456
     21  OD2        2.0170  -19.2790   67.1340 O.co2 142  ASP142     -0.2456
     22  N          3.3170  -22.0440   62.3460 N.am  143  VAL143     -0.1963
     23  CA         3.5270  -23.3710   61.7860 C.3   143  VAL143      0.1727
     24  C          5.0070  -23.6380   61.5260 C.2   143  VAL143      0.2616
     25  O          5.5840  -24.5680   62.0850 O.2   143  VAL143     -0.2715
     26  CB         2.7630  -23.5400   60.4460 C.3   143  VAL143      0.0290
     27  CG1        2.9670  -24.9470   59.8980 C.3   143  VAL143      0.0023
     28  CG2        1.2840  -23.2460   60.6470 C.3   143  VAL143      0.0023
     29  N          5.6150  -22.8080   60.6830 N.am  144  ARG144     -0.1963
     30  CA         7.0190  -22.9610   60.3090 C.3   144  ARG144      0.1729
     31  C          7.9990  -23.0130   61.4710 C.2   144  ARG144      0.2616
     32  O          7.9140  -22.2300   62.4220 O.2   144  ARG144     -0.2715
     33  CB         7.4130  -21.8520   59.3370 C.3   144  ARG144      0.0348
     34  CG         6.3790  -21.6860   58.2450 C.3   144  ARG144      0.0492
     35  CD         6.8580  -20.8710   57.0720 C.3   144  ARG144      0.2205
     36  NE         5.7890  -20.7670   56.0900 N.pl3 144  ARG144     -0.0865
     37  CZ         5.9690  -20.4400   54.8170 C.cat 144  ARG144      0.5346
     38  NH1        7.1880  -20.1810   54.3590 N.pl3 144  ARG144      0.1354
     39  NH2        4.9280  -20.3810   54.0000 N.pl3 144  ARG144      0.1354
     40  N          8.9340  -23.9540   61.3770 N.am  145  GLU145     -0.1977
     41  CA         9.9430  -24.1480   62.4070 C.3   145  GLU145      0.1602
     42  C         11.0610  -23.1230   62.2810 C.2   145  GLU145      0.2287
     43  O         11.4830  -22.5420   63.2820 O.2   145  GLU145     -0.2864
     44  CB        10.5110  -25.5630   62.3230 C.3   145  GLU145      0.0415
     45  CG         9.3810  -26.5850   62.3460 C.3   145  GLU145      0.1163
     46  CD         8.7740  -26.8240   63.7020 C.2   145  GLU145      0.3649
     47  OE1        9.2400  -26.2000   64.6570 O.co2 145  GLU145     -0.2457
     48  OE2        7.8160  -27.6500   63.8160 O.co2 145  GLU145     -0.2457
     49  N         12.0380  -19.7340   61.6050 N.3   147  ASP147     -0.1239
     50  CA        11.4620  -18.3970   61.5710 C.3   147  ASP147      0.1674
     51  C         12.5390  -17.3190   61.5200 C.2   147  ASP147      0.2266
     52  O         12.2480  -16.1240   61.5840 O.2   147  ASP147     -0.2867
     53  CB        10.5970  -18.2080   62.8150 C.3   147  ASP147      0.1410
     54  CG        11.3720  -18.4410   64.1000 C.2   147  ASP147      0.3668
     55  OD1       12.3130  -19.2640   64.0790 O.co2 147  ASP147     -0.2456
     56  OD2       11.0370  -17.8160   65.1290 O.co2 147  ASP147     -0.2456
     57  N         11.8000  -14.0680   59.0810 N.3   150  LEU150     -0.1231
     58  CA        10.4740  -13.4740   59.0370 C.3   150  LEU150      0.1693
     59  C         10.4660  -11.9660   59.2220 C.2   150  LEU150      0.2592
     60  O         11.4220  -11.3740   59.7270 O.2   150  LEU150     -0.2718
     61  CB         9.5810  -14.1270   60.0980 C.3   150  LEU150      0.0284
     62  CG         8.9830  -15.4860   59.7290 C.3   150  LEU150      0.0019
     63  CD1        8.6120  -16.2740   60.9660 C.3   150  LEU150      0.0001
     64  CD2        7.7650  -15.2590   58.8590 C.3   150  LEU150      0.0001
     65  N          9.3700  -11.3510   58.7990 N.am  151  PHE151     -0.1962
     66  CA         9.1960   -9.9170   58.9270 C.3   151  PHE151      0.1771
     67  C          7.6940   -9.6900   59.1150 C.2   151  PHE151      0.2619
     68  O          6.9260   -9.7890   58.1560 O.2   151  PHE151     -0.2715
     69  CB         9.6880   -9.2210   57.6580 C.3   151  PHE151      0.0574
     70  CG        10.0890   -7.7860   57.8620 C.ar  151  PHE151     -0.0200
     71  CD1       11.4180   -7.4500   58.0870 C.ar  151  PHE151     -0.0042
     72  CD2        9.1380   -6.7720   57.8410 C.ar  151  PHE151     -0.0042
     73  CE1       11.7890   -6.1270   58.2880 C.ar  151  PHE151     -0.0003
     74  CE2        9.5020   -5.4530   58.0420 C.ar  151  PHE151     -0.0003
     75  CZ        10.8290   -5.1290   58.2660 C.ar  151  PHE151     -0.0000
     76  N          7.2790   -9.4020   60.3510 N.am  152  ASP152     -0.1971
     77  CA         5.8640   -9.1790   60.6620 C.3   152  ASP152      0.1709
     78  C          5.3480   -7.8810   60.0490 C.2   152  ASP152      0.2293
     79  O          6.0950   -6.9100   59.9260 O.2   152  ASP152     -0.2864
     80  CB         5.6380   -9.1350   62.1780 C.3   152  ASP152      0.1436
     81  CG         5.9920  -10.4400   62.8690 C.2   152  ASP152      0.3671
     82  OD1        7.1910  -10.7730   62.9350 O.co2 152  ASP152     -0.2456
     83  OD2        5.0680  -11.1310   63.3460 O.co2 152  ASP152     -0.2456
     84  N         -3.0610   -9.3100   60.8800 N.3   160  VAL160     -0.1245
     85  CA        -1.6360   -9.6260   60.8280 C.3   160  VAL160      0.1561
     86  C         -1.2310  -10.4540   59.6060 C.2   160  VAL160      0.2260
     87  O         -2.0640  -11.0510   58.9180 O.2   160  VAL160     -0.2867
     88  CB        -1.1760  -10.3610   62.1270 C.3   160  VAL160      0.0252
     89  CG1        0.3130  -10.6800   62.0680 C.3   160  VAL160      0.0019
     90  CG2       -1.4660   -9.4920   63.3400 C.3   160  VAL160      0.0019
     91  N          2.8800  -11.7860   57.5040 N.3   162  CYS162     -0.1235
     92  CA         4.3310  -11.8270   57.5830 C.3   162  CYS162      0.1677
     93  C          4.9590  -11.8800   56.1990 C.2   162  CYS162      0.2270
     94  O          4.2750  -11.8020   55.1780 O.2   162  CYS162     -0.2867
     95  CB         4.7860  -13.0570   58.3770 C.3   162  CYS162      0.0956
     96  SG         4.4570  -13.0170   60.1460 S.3   162  CYS162     -0.0801
     97  N         16.0990   -5.8070   63.6290 N.3   218  TYR218     -0.1241
     98  CA        15.2450   -6.9830   63.5840 C.3   218  TYR218      0.1605
     99  C         13.9730   -6.8870   64.4410 C.2   218  TYR218      0.2264
    100  O         12.9740   -7.5440   64.1410 O.2   218  TYR218     -0.2867
    101  CB        16.0680   -8.2210   63.9910 C.3   218  TYR218      0.0534
    102  CG        16.9080   -8.8420   62.8780 C.ar  218  TYR218     -0.0201
    103  CD1       17.3560   -8.0790   61.7870 C.ar  218  TYR218     -0.0009
    104  CD2       17.2700  -10.1920   62.9260 C.ar  218  TYR218     -0.0009
    105  CE1       18.1410   -8.6510   60.7770 C.ar  218  TYR218      0.0417
    106  CE2       18.0560  -10.7710   61.9230 C.ar  218  TYR218      0.0417
    107  CZ        18.4860   -9.9970   60.8560 C.ar  218  TYR218      0.1957
    108  OH        19.2670  -10.5690   59.8820 O.3   218  TYR218     -0.2866
    109  N         10.1360   -8.8920   69.0410 N.3   221  ARG221     -0.1231
    110  CA         9.5470  -10.2160   68.8770 C.3   221  ARG221      0.1694
    111  C         10.6640  -11.1640   68.4930 C.2   221  ARG221      0.2592
    112  O         10.8010  -12.2390   69.0760 O.2   221  ARG221     -0.2718
    113  CB         8.4760  -10.2070   67.7920 C.3   221  ARG221      0.0321
    114  CG         7.7750  -11.5600   67.6020 C.3   221  ARG221      0.0489
    115  CD         6.5790  -11.4770   66.6520 C.3   221  ARG221      0.2205
    116  NE         5.5150  -10.6440   67.2120 N.pl3 221  ARG221     -0.0865
    117  CZ         5.3160   -9.3690   66.8960 C.cat 221  ARG221      0.5346
    118  NH1        6.0810   -8.7920   65.9770 N.pl3 221  ARG221      0.1354
    119  NH2        4.3270   -8.6780   67.4720 N.pl3 221  ARG221      0.1354
    120  N         11.4790  -10.7420   67.5300 N.am  222  PHE222     -0.1976
    121  CA        12.5940  -11.5540   67.0630 C.3   222  PHE222      0.1639
    122  C         13.5350  -12.0150   68.1720 C.2   222  PHE222      0.2290
    123  O         13.7910  -13.2140   68.3090 O.2   222  PHE222     -0.2864
    124  CB        13.4230  -10.8040   66.0220 C.3   222  PHE222      0.0560
    125  CG        14.6070  -11.5890   65.5360 C.ar  222  PHE222     -0.0200
    126  CD1       14.4610  -12.5370   64.5300 C.ar  222  PHE222     -0.0042
    127  CD2       15.8480  -11.4460   66.1490 C.ar  222  PHE222     -0.0042
    128  CE1       15.5320  -13.3370   64.1460 C.ar  222  PHE222     -0.0003
    129  CE2       16.9220  -12.2380   65.7740 C.ar  222  PHE222     -0.0003
    130  CZ        16.7630  -13.1880   64.7700 C.ar  222  PHE222     -0.0000
    131  N         12.4080  -14.0570   71.0330 N.3   225  ILE225     -0.1231
    132  CA        12.2940  -15.4520   70.5990 C.3   225  ILE225      0.1692
    133  C         13.6230  -16.1310   70.2510 C.2   225  ILE225      0.2591
    134  O         13.6980  -17.3600   70.2220 O.2   225  ILE225     -0.2718
    135  CB        11.3750  -15.5840   69.3560 C.3   225  ILE225      0.0266
    136  CG1        9.9550  -15.1410   69.7020 C.3   225  ILE225      0.0019
    137  CG2       11.3700  -17.0170   68.8490 C.3   225  ILE225      0.0020
    138  CD1        8.9670  -15.3320   68.5720 C.3   225  ILE225      0.0001
    139  N         14.6640  -15.3440   69.9840 N.am  226  LYS226     -0.1980
    140  CA        15.9610  -15.9120   69.6070 C.3   226  LYS226      0.1596
    141  C         17.1290  -15.5420   70.5230 C.2   226  LYS226      0.2287
    142  O         18.2100  -16.1270   70.4180 O.2   226  LYS226     -0.2864
    143  CB        16.2940  -15.5230   68.1590 C.3   226  LYS226      0.0298
    144  CG        15.3680  -15.9970   67.0400 C.3   226  LYS226      0.0038
    145  CD        15.5220  -17.5060   67.0600 C.3   226  LYS226      0.0206
    146  CE        15.2590  -18.0300   65.6940 C.3   226  LYS226      0.1093
    147  NZ        15.2500  -19.5210   65.5990 N.3   226  LYS226     -0.1314
@<TRIPOS>BOND
     1    39    37    1
     2    38    37    1
     3    37    36    2
     4    94    93    2
     5    36    35    1
     6    93    92    1
     7    35    34    1
     8    91    92    1
     9    92    95    1
    10    69    70    1
    11    69    66    1
    12    72    70   ar
    13    72    74   ar
    14    70    71   ar
    15    74    75   ar
    16    71    73   ar
    17    68    67    2
    18    34    33    1
    19    75    73   ar
    20    95    96    1
    21    65    66    1
    22    65    59   am
    23    64    62    1
    24    87    86    2
    25    66    67    1
    26    58    57    1
    27    58    59    1
    28    58    61    1
    29    67    76   am
    30    59    60    2
    31    33    30    1
    32    86    85    1
    33    62    61    1
    34    62    63    1
    35     1     2    1
    36   108   107    1
    37    27    26    1
    38    79    78    2
    39    78    77    1
    40     9    10    1
    41    30    29    1
    42    30    31    1
    43    76    77    1
    44    26    28    1
    45    26    23    1
    46    77    80    1
    47    29    24   am
    48   105   107   ar
    49   105   103   ar
    50    85    84    1
    51    85    88    1
    52   107   106   ar
    53    10    13    1
    54    10    11    1
    55     2     3    1
    56     2     5    1
    57    40    31   am
    58    40    41    1
    59    31    32    2
    60    51    50    1
    61    51    52    2
    62    24    23    1
    63    24    25    2
    64    50    49    1
    65    50    53    1
    66     3     4    2
    67    23    22    1
    68   103   102   ar
    69   106   104   ar
    70     5     6    1
    71    89    88    1
    72    88    90    1
    73    11    12    2
    74    11    14   am
    75    80    81    1
    76    42    41    1
    77    42    43    2
    78    44    45    1
    79    44    41    1
    80    22    16   am
    81    45    46    1
    82    53    54    1
    83    81    82   ar
    84    81    83   ar
    85   102   104   ar
    86   102   101    1
    87    14    15    1
    88     6     8   ar
    89     6     7   ar
    90    98    97    1
    91    98   101    1
    92    98    99    1
    93    16    15    1
    94    16    17    2
    95    46    48   ar
    96    46    47   ar
    97    15    18    1
    98    55    54   ar
    99    54    56   ar
   100   100    99    2
   101   128   126   ar
   102   128   130   ar
   103   126   125   ar
   104   130   129   ar
   105    18    19    1
   106   125   124    1
   107   125   127   ar
   108   147   146    1
   109   146   145    1
   110   129   127   ar
   111   118   117    1
   112   124   121    1
   113    19    20   ar
   114    19    21   ar
   115   115   116    1
   116   115   114    1
   117   117   116    2
   118   117   119    1
   119   144   145    1
   120   144   143    1
   121   121   120    1
   122   121   122    1
   123   120   111   am
   124   114   113    1
   125   113   110    1
   126   143   140    1
   127   122   123    2
   128   111   110    1
   129   111   112    2
   130   138   136    1
   131   137   135    1
   132   110   109    1
   133   135   136    1
   134   135   132    1
   135   140   139    1
   136   140   141    1
   137   139   133   am
   138   134   133    2
   139   133   132    1
   140   142   141    2
   141   132   131    1
