@<TRIPOS>MOLECULE
tmp/3mo2C01.pdb
 207 201 0 0 0
SMALL
GASTEIGER

@<TRIPOS>ATOM
      1  N        -20.7680   16.4930   -2.6540 N.3   150  TYR150     -0.1241
      2  CA       -22.0220   17.0250   -3.1900 C.3   150  TYR150      0.1605
      3  C        -22.6210   15.8650   -3.9720 C.2   150  TYR150      0.2264
      4  O        -22.1970   15.5800   -5.0940 O.2   150  TYR150     -0.2867
      5  CB       -21.7840   18.1990   -4.1380 C.3   150  TYR150      0.0534
      6  CG       -23.0610   18.9140   -4.4950 C.ar  150  TYR150     -0.0201
      7  CD1      -23.6320   19.8360   -3.6120 C.ar  150  TYR150     -0.0009
      8  CD2      -23.7230   18.6490   -5.6980 C.ar  150  TYR150     -0.0009
      9  CE1      -24.8320   20.4820   -3.9150 C.ar  150  TYR150      0.0417
     10  CE2      -24.9240   19.2840   -6.0130 C.ar  150  TYR150      0.0417
     11  CZ       -25.4760   20.2020   -5.1190 C.ar  150  TYR150      0.1957
     12  OH       -26.6590   20.8470   -5.4230 O.3   150  TYR150     -0.2866
     13  N        -26.4110   17.3570  -19.7460 N.3   157  ASP157     -0.1239
     14  CA       -26.6040   18.7860  -19.9080 C.3   157  ASP157      0.1674
     15  C        -28.0190   19.0650  -20.4180 C.2   157  ASP157      0.2266
     16  O        -28.6780   20.0070  -19.9680 O.2   157  ASP157     -0.2867
     17  CB       -25.5770   19.3260  -20.9030 C.3   157  ASP157      0.1410
     18  CG       -25.6060   20.8320  -21.0020 C.2   157  ASP157      0.3668
     19  OD1      -25.4000   21.4920  -19.9610 O.co2 157  ASP157     -0.2456
     20  OD2      -25.8300   21.3560  -22.1160 O.co2 157  ASP157     -0.2456
     21  N        -30.5570   18.5000  -17.7300 N.3   160  ALA160     -0.1231
     22  CA       -30.4850   19.6310  -16.8060 C.3   160  ALA160      0.1694
     23  C        -31.1500   20.8580  -17.4190 C.2   160  ALA160      0.2592
     24  O        -31.7780   21.6440  -16.7230 O.2   160  ALA160     -0.2718
     25  CB       -29.0200   19.9500  -16.4630 C.3   160  ALA160      0.0304
     26  N        -31.0050   21.0030  -18.7300 N.am  161  ASP161     -0.1960
     27  CA       -31.5580   22.1400  -19.4380 C.3   161  ASP161      0.1840
     28  C        -33.0810   22.2140  -19.4330 C.2   161  ASP161      0.2622
     29  O        -33.6440   23.2640  -19.7300 O.2   161  ASP161     -0.2715
     30  CB       -31.0480   22.1540  -20.8800 C.3   161  ASP161      0.1450
     31  CG       -31.4240   23.4320  -21.6160 C.2   161  ASP161      0.3671
     32  OD1      -32.2280   23.3640  -22.5730 O.co2 161  ASP161     -0.2456
     33  OD2      -30.9150   24.5090  -21.2260 O.co2 161  ASP161     -0.2456
     34  N        -33.7560   21.1210  -19.0910 N.am  162  VAL162     -0.1963
     35  CA       -35.2170   21.1440  -19.0780 C.3   162  VAL162      0.1727
     36  C        -35.8390   20.9850  -17.6970 C.2   162  VAL162      0.2616
     37  O        -37.0120   20.6590  -17.5810 O.2   162  VAL162     -0.2715
     38  CB       -35.8140   20.0530  -20.0020 C.3   162  VAL162      0.0290
     39  CG1      -35.2520   20.1990  -21.4110 C.3   162  VAL162      0.0023
     40  CG2      -35.5330   18.6770  -19.4350 C.3   162  VAL162      0.0023
     41  N        -35.0700   21.2150  -16.6440 N.am  163  ARG163     -0.1963
     42  CA       -35.6360   21.0830  -15.3120 C.3   163  ARG163      0.1729
     43  C        -36.0600   22.4290  -14.7350 C.2   163  ARG163      0.2616
     44  O        -35.3060   23.4070  -14.7720 O.2   163  ARG163     -0.2715
     45  CB       -34.6500   20.3760  -14.3910 C.3   163  ARG163      0.0348
     46  CG       -34.3850   18.9690  -14.8530 C.3   163  ARG163      0.0492
     47  CD       -33.9640   18.0660  -13.7340 C.3   163  ARG163      0.2205
     48  NE       -33.9780   16.6830  -14.1920 N.pl3 163  ARG163     -0.0865
     49  CZ       -33.7070   15.6370  -13.4210 C.cat 163  ARG163      0.5346
     50  NH1      -33.3940   15.8110  -12.1420 N.pl3 163  ARG163      0.1354
     51  NH2      -33.7650   14.4160  -13.9290 N.pl3 163  ARG163      0.1354
     52  N        -37.2870   22.4720  -14.2270 N.am  164  GLU164     -0.1977
     53  CA       -37.8350   23.6900  -13.6510 C.3   164  GLU164      0.1602
     54  C        -36.9560   24.1540  -12.4950 C.2   164  GLU164      0.2287
     55  O        -36.2630   25.1710  -12.5970 O.2   164  GLU164     -0.2864
     56  CB       -39.2700   23.4410  -13.1640 C.3   164  GLU164      0.0415
     57  CG       -40.1980   22.7670  -14.1820 C.3   164  GLU164      0.1163
     58  CD       -40.4620   23.6020  -15.4280 C.2   164  GLU164      0.3649
     59  OE1      -40.4440   24.8460  -15.3510 O.co2 164  GLU164     -0.2457
     60  OE2      -40.7050   23.0130  -16.4940 O.co2 164  GLU164     -0.2457
     61  N        -33.9680   24.5860  -10.6090 N.3   166  ASP166     -0.1225
     62  CA       -32.5490   24.4800  -10.9010 C.3   166  ASP166      0.1805
     63  C        -31.6210   25.0020   -9.8130 C.2   166  ASP166      0.2598
     64  O        -30.4240   25.1730  -10.0510 O.2   166  ASP166     -0.2718
     65  CB       -32.2500   25.2070  -12.2030 C.3   166  ASP166      0.1424
     66  CG       -32.5360   26.6850  -12.1120 C.2   166  ASP166      0.3668
     67  OD1      -33.4210   27.0610  -11.3150 O.co2 166  ASP166     -0.2456
     68  OD2      -31.8880   27.4690  -12.8390 O.co2 166  ASP166     -0.2456
     69  N        -32.1520   25.2490   -8.6240 N.am  167  SER167     -0.1938
     70  CA       -31.3110   25.7540   -7.5510 C.3   167  SER167      0.2055
     71  C        -30.6160   24.6480   -6.7430 C.2   167  SER167      0.2643
     72  O        -30.0070   24.9140   -5.7070 O.2   167  SER167     -0.2714
     73  CB       -32.1260   26.6770   -6.6300 C.3   167  SER167      0.2130
     74  OG       -33.3000   26.0450   -6.1510 O.3   167  SER167     -0.2179
     75  N        -30.7010   23.4120   -7.2250 N.am  168  TYR168     -0.1959
     76  CA       -30.0630   22.2810   -6.5570 C.3   168  TYR168      0.1771
     77  C        -29.0840   21.5960   -7.5060 C.2   168  TYR168      0.2619
     78  O        -28.6560   20.4720   -7.2630 O.2   168  TYR168     -0.2715
     79  CB       -31.1110   21.2700   -6.0920 C.3   168  TYR168      0.0574
     80  CG       -31.9460   21.7490   -4.9330 C.ar  168  TYR168     -0.0198
     81  CD1      -31.4430   21.7320   -3.6330 C.ar  168  TYR168     -0.0009
     82  CD2      -33.2340   22.2410   -5.1340 C.ar  168  TYR168     -0.0009
     83  CE1      -32.2020   22.1950   -2.5580 C.ar  168  TYR168      0.0417
     84  CE2      -34.0020   22.7080   -4.0680 C.ar  168  TYR168      0.0417
     85  CZ       -33.4810   22.6830   -2.7840 C.ar  168  TYR168      0.1957
     86  OH       -34.2310   23.1570   -1.7320 O.3   168  TYR168     -0.2866
     87  N        -28.7360   22.2830   -8.5860 N.am  169  LEU169     -0.1963
     88  CA       -27.8220   21.7480   -9.5820 C.3   169  LEU169      0.1728
     89  C        -26.3550   22.0270   -9.2870 C.2   169  LEU169      0.2616
     90  O        -26.0250   22.7970   -8.3910 O.2   169  LEU169     -0.2715
     91  CB       -28.1560   22.3250  -10.9600 C.3   169  LEU169      0.0311
     92  CG       -29.4270   21.8310  -11.6480 C.3   169  LEU169      0.0022
     93  CD1      -29.6240   22.6000  -12.9510 C.3   169  LEU169      0.0001
     94  CD2      -29.3140   20.3310  -11.9170 C.3   169  LEU169      0.0001
     95  N        -25.4820   21.3840  -10.0540 N.am  170  PHE170     -0.1960
     96  CA       -24.0460   21.5740   -9.9280 C.3   170  PHE170      0.1771
     97  C        -23.4260   21.0860  -11.2240 C.2   170  PHE170      0.2619
     98  O        -23.5910   19.9260  -11.5890 O.2   170  PHE170     -0.2715
     99  CB       -23.4750   20.7740   -8.7550 C.3   170  PHE170      0.0574
    100  CG       -22.0940   21.2170   -8.3400 C.ar  170  PHE170     -0.0200
    101  CD1      -21.9150   22.0110   -7.2050 C.ar  170  PHE170     -0.0042
    102  CD2      -20.9730   20.8490   -9.0860 C.ar  170  PHE170     -0.0042
    103  CE1      -20.6420   22.4290   -6.8140 C.ar  170  PHE170     -0.0003
    104  CE2      -19.6980   21.2610   -8.7090 C.ar  170  PHE170     -0.0003
    105  CZ       -19.5310   22.0530   -7.5680 C.ar  170  PHE170     -0.0000
    106  N        -22.7250   21.9760  -11.9190 N.am  171  ASP171     -0.1971
    107  CA       -22.0910   21.6270  -13.1860 C.3   171  ASP171      0.1709
    108  C        -20.7280   21.0000  -13.0010 C.2   171  ASP171      0.2293
    109  O        -19.8540   21.5640  -12.3510 O.2   171  ASP171     -0.2864
    110  CB       -21.9410   22.8600  -14.0740 C.3   171  ASP171      0.1436
    111  CG       -23.2570   23.5220  -14.3640 C.2   171  ASP171      0.3671
    112  OD1      -24.2420   22.7950  -14.6180 O.co2 171  ASP171     -0.2456
    113  OD2      -23.3070   24.7660  -14.3490 O.co2 171  ASP171     -0.2456
    114  N        -21.2600   17.4940  -21.4620 N.3   176  VAL176     -0.1245
    115  CA       -21.0550   17.7110  -20.0350 C.3   176  VAL176      0.1561
    116  C        -22.2040   17.1560  -19.2080 C.2   176  VAL176      0.2260
    117  O        -23.2390   16.7660  -19.7410 O.2   176  VAL176     -0.2867
    118  CB       -20.8760   19.2090  -19.7030 C.3   176  VAL176      0.0252
    119  CG1      -19.8170   19.8150  -20.6170 C.3   176  VAL176      0.0019
    120  CG2      -22.2030   19.9440  -19.8200 C.3   176  VAL176      0.0019
    121  N        -24.2930   17.1520  -15.0470 N.3   178  CYS178     -0.1235
    122  CA       -24.5930   17.8540  -13.8180 C.3   178  CYS178      0.1677
    123  C        -25.0370   16.8940  -12.7390 C.2   178  CYS178      0.2270
    124  O        -25.3760   15.7390  -13.0020 O.2   178  CYS178     -0.2867
    125  CB       -25.7380   18.8480  -14.0290 C.3   178  CYS178      0.0956
    126  SG       -25.5110   20.0510  -15.3250 S.3   178  CYS178     -0.0801
    127  N        -27.1010   19.2700   -0.2060 N.3   189  ARG189     -0.1245
    128  CA       -28.1590   20.0050   -0.8810 C.3   189  ARG189      0.1563
    129  C        -28.6710   21.1600   -0.0400 C.2   189  ARG189      0.2260
    130  O        -29.3780   22.0210   -0.5470 O.2   189  ARG189     -0.2867
    131  CB       -29.3220   19.0710   -1.2450 C.3   189  ARG189      0.0307
    132  CG       -30.2610   18.7330   -0.0990 C.3   189  ARG189      0.0489
    133  CD       -31.2300   17.6140   -0.4940 C.3   189  ARG189      0.2205
    134  NE       -32.1520   17.9980   -1.5650 N.pl3 189  ARG189     -0.0865
    135  CZ       -33.2540   18.7170   -1.3830 C.cat 189  ARG189      0.5346
    136  NH1      -33.5880   19.1440   -0.1680 N.pl3 189  ARG189      0.1354
    137  NH2      -34.0350   18.9950   -2.4180 N.pl3 189  ARG189      0.1354
    138  N        -26.5580   23.1400    1.7710 N.3   191  ILE191     -0.1245
    139  CA       -25.4780   24.0810    1.9970 C.3   191  ILE191      0.1561
    140  C        -25.7290   25.3550    1.1990 C.2   191  ILE191      0.2260
    141  O        -25.8860   25.3190   -0.0280 O.2   191  ILE191     -0.2867
    142  CB       -24.1270   23.4710    1.6150 C.3   191  ILE191      0.0252
    143  CG1      -23.9040   22.1760    2.4060 C.3   191  ILE191      0.0019
    144  CG2      -23.0260   24.4580    1.9170 C.3   191  ILE191      0.0019
    145  CD1      -22.5790   21.4650    2.1200 C.3   191  ILE191      0.0001
    146  N        -20.4590   27.8010    0.5230 N.3   232  PHE232     -0.1241
    147  CA       -19.4920   27.8110   -0.5610 C.3   232  PHE232      0.1605
    148  C        -19.9790   28.7840   -1.6230 C.2   232  PHE232      0.2264
    149  O        -21.1300   29.2130   -1.5920 O.2   232  PHE232     -0.2867
    150  CB       -19.2830   26.3930   -1.1220 C.3   232  PHE232      0.0534
    151  CG       -20.4480   25.8430   -1.8970 C.ar  232  PHE232     -0.0203
    152  CD1      -20.4880   25.9430   -3.2840 C.ar  232  PHE232     -0.0042
    153  CD2      -21.4740   25.1620   -1.2490 C.ar  232  PHE232     -0.0042
    154  CE1      -21.5340   25.3610   -4.0180 C.ar  232  PHE232     -0.0003
    155  CE2      -22.5220   24.5800   -1.9720 C.ar  232  PHE232     -0.0003
    156  CZ       -22.5500   24.6770   -3.3580 C.ar  232  PHE232     -0.0000
    157  N        -21.4730   29.5960   -4.8550 N.3   234  TYR234     -0.1241
    158  CA       -22.2950   28.9930   -5.9100 C.3   234  TYR234      0.1605
    159  C        -21.7710   29.3040   -7.3020 C.2   234  TYR234      0.2264
    160  O        -21.9630   28.5200   -8.2220 O.2   234  TYR234     -0.2867
    161  CB       -23.7560   29.4640   -5.8130 C.3   234  TYR234      0.0534
    162  CG       -24.5670   28.8210   -4.7110 C.ar  234  TYR234     -0.0201
    163  CD1      -23.9470   28.1310   -3.6670 C.ar  234  TYR234     -0.0009
    164  CD2      -25.9550   28.9570   -4.6760 C.ar  234  TYR234     -0.0009
    165  CE1      -24.6840   27.5970   -2.6170 C.ar  234  TYR234      0.0417
    166  CE2      -26.7080   28.4300   -3.6300 C.ar  234  TYR234      0.0417
    167  CZ       -26.0650   27.7520   -2.5990 C.ar  234  TYR234      0.1957
    168  OH       -26.7910   27.2490   -1.5380 O.3   234  TYR234     -0.2866
    169  N        -22.6970   31.5110  -12.8980 N.3   237  ARG237     -0.1231
    170  CA       -23.9050   31.0690  -13.5830 C.3   237  ARG237      0.1694
    171  C        -25.1070   31.0850  -12.6480 C.2   237  ARG237      0.2592
    172  O        -26.2080   31.4470  -13.0570 O.2   237  ARG237     -0.2718
    173  CB       -23.7590   29.6700  -14.1750 C.3   237  ARG237      0.0321
    174  CG       -25.0950   29.1630  -14.7330 C.3   237  ARG237      0.0489
    175  CD       -24.9620   27.8920  -15.5410 C.3   237  ARG237      0.2205
    176  NE       -24.3380   28.1310  -16.8370 N.pl3 237  ARG237     -0.0865
    177  CZ       -23.8900   27.1620  -17.6250 C.cat 237  ARG237      0.5346
    178  NH1      -24.0020   25.8960  -17.2430 N.pl3 237  ARG237      0.1354
    179  NH2      -23.3270   27.4560  -18.7880 N.pl3 237  ARG237      0.1354
    180  N        -24.9090   30.6910  -11.3960 N.am  238  PHE238     -0.1976
    181  CA       -26.0190   30.6980  -10.4550 C.3   238  PHE238      0.1639
    182  C        -26.5620   32.1150  -10.3110 C.2   238  PHE238      0.2290
    183  O        -27.7260   32.3730  -10.5940 O.2   238  PHE238     -0.2864
    184  CB       -25.5830   30.1980   -9.0790 C.3   238  PHE238      0.0560
    185  CG       -26.6770   30.2510   -8.0410 C.ar  238  PHE238     -0.0200
    186  CD1      -27.4670   29.1340   -7.7800 C.ar  238  PHE238     -0.0042
    187  CD2      -26.9310   31.4260   -7.3360 C.ar  238  PHE238     -0.0042
    188  CE1      -28.4920   29.1830   -6.8360 C.ar  238  PHE238     -0.0003
    189  CE2      -27.9530   31.4870   -6.3910 C.ar  238  PHE238     -0.0003
    190  CZ       -28.7340   30.3670   -6.1400 C.ar  238  PHE238     -0.0000
    191  N        -28.3820   34.0110  -13.0400 N.3   241  ILE241     -0.1231
    192  CA       -29.7590   33.5600  -13.2130 C.3   241  ILE241      0.1692
    193  C        -30.6220   33.9890  -12.0280 C.2   241  ILE241      0.2591
    194  O        -31.5650   34.7630  -12.1820 O.2   241  ILE241     -0.2718
    195  CB       -29.8370   32.0180  -13.3360 C.3   241  ILE241      0.0266
    196  CG1      -29.0790   31.5480  -14.5750 C.3   241  ILE241      0.0019
    197  CG2      -31.2850   31.5680  -13.4120 C.3   241  ILE241      0.0020
    198  CD1      -29.1050   30.0400  -14.7690 C.3   241  ILE241      0.0001
    199  N        -30.2870   33.4840  -10.8460 N.am  242  LYS242     -0.1980
    200  CA       -31.0350   33.7940   -9.6320 C.3   242  LYS242      0.1596
    201  C        -30.8540   35.2250   -9.1270 C.2   242  LYS242      0.2287
    202  O        -31.6450   35.7040   -8.3100 O.2   242  LYS242     -0.2864
    203  CB       -30.6670   32.7970   -8.5290 C.3   242  LYS242      0.0298
    204  CG       -31.0100   31.3560   -8.8850 C.3   242  LYS242      0.0038
    205  CD       -32.4880   31.2170   -9.2520 C.3   242  LYS242      0.0206
    206  CE       -32.8150   29.8360   -9.8040 C.3   242  LYS242      0.1093
    207  NZ       -34.2480   29.7240  -10.2140 N.3   242  LYS242     -0.1314
@<TRIPOS>BOND
     1    32    31   ar
     2    20    18   ar
     3    31    33   ar
     4    31    30    1
     5   114   115    1
     6    39    38    1
     7    18    17    1
     8    18    19   ar
     9    17    14    1
    10    30    27    1
    11   119   118    1
    12    15    16    2
    13    15    14    1
    14   115   118    1
    15   115   116    1
    16    38    40    1
    17    38    35    1
    18    14    13    1
    19   120   118    1
    20   117   116    2
    21    29    28    2
    22    27    28    1
    23    27    26    1
    24    28    34   am
    25    34    35    1
    26    35    36    1
    27   179   177    1
    28    26    23   am
    29    21    22    1
    30    36    37    2
    31    36    41   am
    32   177   178    1
    33   177   176    2
    34    23    22    1
    35    23    24    2
    36   176   175    1
    37    22    25    1
    38    41    42    1
    39    60    58   ar
    40   175   174    1
    41    58    59   ar
    42    58    57    1
    43   126   125    1
    44    42    43    1
    45    42    45    1
    46   121   122    1
    47    46    45    1
    48    46    47    1
    49    44    43    2
    50   198   196    1
    51    43    52   am
    52   174   173    1
    53   112   111   ar
    54   196   195    1
    55   111   113   ar
    56   111   110    1
    57    52    53    1
    58    48    47    1
    59    48    49    2
    60    57    56    1
    61   173   170    1
    62   110   107    1
    63   125   122    1
    64    51    49    1
    65   122   123    1
    66    53    56    1
    67    53    54    1
    68   170   169    1
    69   170   171    1
    70    49    50    1
    71   197   195    1
    72   195   192    1
    73   192   191    1
    74   192   193    1
    75   107   108    1
    76   107   106    1
    77   172   171    2
    78   124   123    2
    79   108   109    2
    80    93    92    1
    81    68    66   ar
    82   171   180   am
    83    55    54    2
    84    65    66    1
    85    65    62    1
    86   194   193    2
    87    66    67   ar
    88   193   199   am
    89   106    97   am
    90    94    92    1
    91    92    91    1
    92    98    97    2
    93   180   181    1
    94    97    96    1
    95    91    88    1
    96    62    61    1
    97    62    63    1
    98   199   200    1
    99   183   182    2
   100   181   182    1
   101   181   184    1
   102   207   206    1
   103    95    96    1
   104    95    89   am
   105    64    63    2
   106    96    99    1
   107    63    69   am
   108   206   205    1
   109   200   201    1
   110   200   203    1
   111    88    89    1
   112    88    87    1
   113    89    90    2
   114   205   204    1
   115   201   202    2
   116   102   104   ar
   117   102   100   ar
   118   184   185    1
   119   204   203    1
   120    99   100    1
   121   104   105   ar
   122    69    70    1
   123    87    77   am
   124   100   101   ar
   125   160   159    2
   126   185   186   ar
   127   185   187   ar
   128   186   188   ar
   129   105   103   ar
   130    70    71    1
   131    70    73    1
   132    77    78    2
   133    77    76    1
   134   187   189   ar
   135   159   158    1
   136    75    71   am
   137    75    76    1
   138   101   103   ar
   139   188   190   ar
   140    71    72    2
   141    73    74    1
   142    76    79    1
   143   189   190   ar
   144    79    80    1
   145    10     8   ar
   146    10    11   ar
   147   158   161    1
   148   158   157    1
   149   161   162    1
   150     8     6   ar
   151    12    11    1
   152    82    80   ar
   153    82    84   ar
   154    11     9   ar
   155     4     3    2
   156    80    81   ar
   157   162   164   ar
   158   162   163   ar
   159   164   166   ar
   160     6     5    1
   161     6     7   ar
   162     5     2    1
   163    84    85   ar
   164   154   156   ar
   165   154   152   ar
   166     3     2    1
   167     9     7   ar
   168   163   165   ar
   169    81    83   ar
   170   166   167   ar
   171   156   155   ar
   172   152   151   ar
   173     2     1    1
   174    85    83   ar
   175    85    86    1
   176   165   167   ar
   177   167   168    1
   178   137   135    1
   179   155   153   ar
   180   151   153   ar
   181   151   150    1
   182   148   149    2
   183   148   147    1
   184   134   135    2
   185   134   133    1
   186   135   136    1
   187   131   128    1
   188   131   132    1
   189   150   147    1
   190   128   127    1
   191   128   129    1
   192   147   146    1
   193   130   129    2
   194   133   132    1
   195   141   140    2
   196   140   139    1
   197   142   144    1
   198   142   139    1
   199   142   143    1
   200   138   139    1
   201   145   143    1
