@<TRIPOS>MOLECULE
tmp/3mo4A00.pdb
 125 128 0 0 0
SMALL
GASTEIGER

@<TRIPOS>ATOM
      1  N         42.1180   16.9880   52.4400 N.3    26  PHE26      -0.1241
      2  CA        41.2720   17.5600   51.4040 C.3    26  PHE26       0.1605
      3  C         39.9420   17.8290   52.1190 C.2    26  PHE26       0.2264
      4  O         39.5280   17.0600   52.9840 O.2    26  PHE26      -0.2867
      5  CB        41.0580   16.5300   50.2920 C.3    26  PHE26       0.0534
      6  CG        41.0060   17.1120   48.8940 C.ar   26  PHE26      -0.0203
      7  CD1       40.5470   18.4000   48.6670 C.ar   26  PHE26      -0.0042
      8  CD2       41.3700   16.3330   47.8000 C.ar   26  PHE26      -0.0042
      9  CE1       40.4850   18.9160   47.3740 C.ar   26  PHE26      -0.0003
     10  CE2       41.3080   16.8390   46.5030 C.ar   26  PHE26      -0.0003
     11  CZ        40.8710   18.1350   46.2900 C.ar   26  PHE26      -0.0000
     12  N         36.1880   18.4530   51.0510 N.3    28  HIS28      -0.1241
     13  CA        35.1090   18.5700   50.0770 C.3    28  HIS28       0.1621
     14  C         33.8630   19.0850   50.7780 C.2    28  HIS28       0.2264
     15  O         33.2920   18.4170   51.6500 O.2    28  HIS28      -0.2867
     16  CB        34.8390   17.2320   49.3810 C.3    28  HIS28       0.0745
     17  CG        35.7660   16.9520   48.2380 C.ar   28  HIS28       0.0817
     18  ND1       37.0950   16.6490   48.4210 N.ar   28  HIS28      -0.2268
     19  CD2       35.5600   16.9420   46.8980 C.ar   28  HIS28       0.1154
     20  CE1       37.6700   16.4570   47.2440 C.ar   28  HIS28       0.1986
     21  NE2       36.7600   16.6310   46.3040 N.ar   28  HIS28      -0.2212
     22  N         28.0270   13.9660   42.2080 N.3    37  TRP37      -0.1241
     23  CA        28.0590   14.7400   40.9730 C.3    37  TRP37       0.1605
     24  C         26.8930   15.7210   40.9220 C.2    37  TRP37       0.2264
     25  O         25.7320   15.3090   40.8830 O.2    37  TRP37      -0.2867
     26  CB        28.0140   13.8110   39.7550 C.3    37  TRP37       0.0550
     27  CG        29.2760   13.0180   39.5390 C.ar   37  TRP37       0.0003
     28  CD1       30.4070   13.4310   38.8850 C.ar   37  TRP37       0.0946
     29  CD2       29.5310   11.6730   39.9680 C.ar   37  TRP37       0.0152
     30  NE1       31.3470   12.4280   38.8890 N.ar   37  TRP37      -0.2442
     31  CE2       30.8340   11.3390   39.5460 C.ar   37  TRP37       0.0810
     32  CE3       28.7840   10.7200   40.6710 C.ar   37  TRP37       0.0012
     33  CZ2       31.4060   10.0930   39.8060 C.ar   37  TRP37       0.0191
     34  CZ3       29.3540    9.4840   40.9270 C.ar   37  TRP37       0.0001
     35  CH2       30.6520    9.1820   40.4960 C.ar   37  TRP37       0.0015
     36  N         33.6650   23.2550   42.9410 N.3    73  HIS73      -0.1226
     37  CA        33.7040   21.9140   42.3790 C.3    73  HIS73       0.1752
     38  C         33.0430   21.8890   40.9880 C.2    73  HIS73       0.2596
     39  O         32.7730   22.9440   40.4190 O.2    73  HIS73      -0.2718
     40  CB        33.0780   20.9000   43.3310 C.3    73  HIS73       0.0759
     41  CG        33.6090   19.5180   43.1430 C.ar   73  HIS73       0.0818
     42  ND1       32.9580   18.5670   42.3890 N.ar   73  HIS73      -0.2268
     43  CD2       34.7510   18.9400   43.5770 C.ar   73  HIS73       0.1154
     44  CE1       33.6720   17.4550   42.3820 C.ar   73  HIS73       0.1986
     45  NE2       34.7650   17.6560   43.0940 N.ar   73  HIS73      -0.2212
     46  N         32.8170   20.7000   40.4300 N.am   74  HIS74      -0.1975
     47  CA        32.3910   20.5870   39.0330 C.3    74  HIS74       0.1656
     48  C         31.0660   21.3010   38.7910 C.2    74  HIS74       0.2291
     49  O         30.7660   21.7310   37.6710 O.2    74  HIS74      -0.2864
     50  CB        32.2090   19.1170   38.6270 C.3    74  HIS74       0.0771
     51  CG        33.4560   18.2850   38.7020 C.ar   74  HIS74       0.0820
     52  ND1       34.7190   18.7980   38.4990 N.ar   74  HIS74      -0.2267
     53  CD2       33.6200   16.9570   38.9140 C.ar   74  HIS74       0.1154
     54  CE1       35.6100   17.8260   38.6050 C.ar   74  HIS74       0.1986
     55  NE2       34.9690   16.6990   38.8570 N.ar   74  HIS74      -0.2212
     56  N         41.5670   23.8310   45.4240 N.3   119  TYR119     -0.1241
     57  CA        41.0900   23.1290   44.2460 C.3   119  TYR119      0.1605
     58  C         40.0190   23.9950   43.6070 C.2   119  TYR119      0.2264
     59  O         39.0250   24.3350   44.2520 O.2   119  TYR119     -0.2867
     60  CB        40.4800   21.7690   44.6090 C.3   119  TYR119      0.0534
     61  CG        39.7140   21.1150   43.4600 C.ar  119  TYR119     -0.0201
     62  CD1       40.3780   20.6880   42.3180 C.ar  119  TYR119     -0.0009
     63  CD2       38.3320   20.9300   43.5170 C.ar  119  TYR119     -0.0009
     64  CE1       39.7060   20.0860   41.2660 C.ar  119  TYR119      0.0417
     65  CE2       37.6470   20.3320   42.4600 C.ar  119  TYR119      0.0417
     66  CZ        38.3450   19.9070   41.3380 C.ar  119  TYR119      0.1957
     67  OH        37.6890   19.3000   40.2800 O.3   119  TYR119     -0.2866
     68  N         45.5670   22.1140   43.2210 N.3   158  TRP158     -0.1241
     69  CA        45.2510   20.7390   42.8530 C.3   158  TRP158      0.1605
     70  C         44.3360   20.7870   41.6360 C.2   158  TRP158      0.2264
     71  O         43.3920   21.5570   41.6080 O.2   158  TRP158     -0.2867
     72  CB        44.5470   20.0620   44.0350 C.3   158  TRP158      0.0550
     73  CG        44.6600   18.5600   44.0800 C.ar  158  TRP158      0.0003
     74  CD1       45.6300   17.8240   44.6910 C.ar  158  TRP158      0.0946
     75  CD2       43.7320   17.6220   43.5290 C.ar  158  TRP158      0.0152
     76  NE1       45.3720   16.4800   44.5430 N.ar  158  TRP158     -0.2442
     77  CE2       44.2120   16.3320   43.8310 C.ar  158  TRP158      0.0810
     78  CE3       42.5400   17.7500   42.8120 C.ar  158  TRP158      0.0012
     79  CZ2       43.5450   15.1740   43.4320 C.ar  158  TRP158      0.0191
     80  CZ3       41.8770   16.6060   42.4200 C.ar  158  TRP158      0.0001
     81  CH2       42.3860   15.3330   42.7250 C.ar  158  TRP158      0.0015
     82  N         42.2780   18.4310   38.5810 N.3   160  ASP160     -0.1239
     83  CA        41.9190   17.2660   37.7830 C.3   160  ASP160      0.1674
     84  C         41.5420   17.7270   36.3780 C.2   160  ASP160      0.2266
     85  O         41.5250   18.9220   36.0940 O.2   160  ASP160     -0.2867
     86  CB        40.7810   16.4920   38.4150 C.3   160  ASP160      0.1410
     87  CG        39.4460   17.1930   38.2440 C.2   160  ASP160      0.3668
     88  OD1       39.3870   18.4220   38.4600 O.co2 160  ASP160     -0.2456
     89  OD2       38.4700   16.5140   37.8700 O.co2 160  ASP160     -0.2456
     90  N         49.6910   12.0840   40.4640 N.3   201  TRP201     -0.1241
     91  CA        48.7000   11.1940   41.0570 C.3   201  TRP201      0.1605
     92  C         49.2830    9.7810   41.0910 C.2   201  TRP201      0.2264
     93  O         49.7040    9.2640   40.0580 O.2   201  TRP201     -0.2867
     94  CB        47.4260   11.2360   40.2270 C.3   201  TRP201      0.0550
     95  CG        46.4340   10.1850   40.5720 C.ar  201  TRP201      0.0003
     96  CD1       45.8970    9.9260   41.8040 C.ar  201  TRP201      0.0946
     97  CD2       45.8360    9.2520   39.6630 C.ar  201  TRP201      0.0152
     98  NE1       45.0040    8.8820   41.7140 N.ar  201  TRP201     -0.2442
     99  CE2       44.9490    8.4530   40.4110 C.ar  201  TRP201      0.0810
    100  CE3       45.9700    9.0150   38.2890 C.ar  201  TRP201      0.0012
    101  CZ2       44.1960    7.4310   39.8290 C.ar  201  TRP201      0.0191
    102  CZ3       45.2240    8.0020   37.7160 C.ar  201  TRP201      0.0001
    103  CH2       44.3470    7.2220   38.4860 C.ar  201  TRP201      0.0015
    104  N         45.8850    9.7710   47.0200 N.3   254  ASP254     -0.1239
    105  CA        44.7120   10.4680   47.5250 C.3   254  ASP254      0.1674
    106  C         43.5560    9.5050   47.7260 C.2   254  ASP254      0.2266
    107  O         43.2790    8.6510   46.8800 O.2   254  ASP254     -0.2867
    108  CB        44.3020   11.6100   46.5990 C.3   254  ASP254      0.1410
    109  CG        43.7530   11.1170   45.2930 C.2   254  ASP254      0.3668
    110  OD1       42.5630   10.7380   45.2590 O.co2 254  ASP254     -0.2456
    111  OD2       44.5080   11.1070   44.3000 O.co2 254  ASP254     -0.2456
    112  N         33.3900   11.3470   48.1560 N.3   261  TRP261     -0.1241
    113  CA        34.2140   12.5180   48.4710 C.3   261  TRP261      0.1605
    114  C         33.4320   13.5660   49.2520 C.2   261  TRP261      0.2264
    115  O         33.9720   14.2200   50.1460 O.2   261  TRP261     -0.2867
    116  CB        34.7810   13.1380   47.1920 C.3   261  TRP261      0.0550
    117  CG        35.7550   12.2350   46.5260 C.ar  261  TRP261      0.0003
    118  CD1       35.4810   11.2840   45.5880 C.ar  261  TRP261      0.0946
    119  CD2       37.1660   12.1690   46.7680 C.ar  261  TRP261      0.0152
    120  NE1       36.6370   10.6340   45.2220 N.ar  261  TRP261     -0.2442
    121  CE2       37.6860   11.1600   45.9310 C.ar  261  TRP261      0.0810
    122  CE3       38.0400   12.8690   47.6030 C.ar  261  TRP261      0.0012
    123  CZ2       39.0390   10.8330   45.9080 C.ar  261  TRP261      0.0191
    124  CZ3       39.3850   12.5440   47.5780 C.ar  261  TRP261      0.0001
    125  CH2       39.8710   11.5340   46.7380 C.ar  261  TRP261      0.0015
@<TRIPOS>BOND
     1    85    84    2
     2    84    83    1
     3    49    48    2
     4   102   100   ar
     5   102   103   ar
     6    83    86    1
     7    83    82    1
     8    89    87   ar
     9    87    86    1
    10    87    88   ar
    11   100    97   ar
    12   103   101   ar
    13    52    54   ar
    14    52    51   ar
    15    54    55   ar
    16    50    51    1
    17    50    47    1
    18    51    53   ar
    19    48    47    1
    20    55    53   ar
    21    28    30   ar
    22    28    27   ar
    23    30    31   ar
    24    47    46    1
    25    27    26    1
    26    27    29   ar
    27    31    33   ar
    28    31    29   ar
    29    97    99   ar
    30    97    95   ar
    31    26    23    1
    32    33    35   ar
    33   101    99   ar
    34    29    32   ar
    35    93    92    2
    36    94    95    1
    37    94    91    1
    38    67    66    1
    39    99    98   ar
    40    39    38    2
    41    46    38   am
    42    90    91    1
    43    35    34   ar
    44    95    96   ar
    45    32    34   ar
    46    25    24    2
    47    24    23    1
    48    23    22    1
    49    38    37    1
    50    91    92    1
    51    64    66   ar
    52    64    62   ar
    53    66    65   ar
    54    71    70    2
    55    70    69    1
    56    98    96   ar
    57    62    61   ar
    58    37    36    1
    59    37    40    1
    60    44    42   ar
    61    44    45   ar
    62    42    41   ar
    63    80    81   ar
    64    80    78   ar
    65    65    63   ar
    66    81    79   ar
    67    78    75   ar
    68    69    68    1
    69    69    72    1
    70    45    43   ar
    71    41    40    1
    72    41    43   ar
    73    79    77   ar
    74    61    63   ar
    75    61    60    1
    76    75    77   ar
    77    75    73   ar
    78    58    57    1
    79    58    59    2
    80    77    76   ar
    81    72    73    1
    82    73    74   ar
    83    57    60    1
    84    57    56    1
    85   111   109   ar
    86    76    74   ar
    87   120   118   ar
    88   120   121   ar
    89   110   109   ar
    90   109   108    1
    91   118   117   ar
    92   123   121   ar
    93   123   125   ar
    94   121   119   ar
    95    11    10   ar
    96    11     9   ar
    97    21    19   ar
    98    21    20   ar
    99    10     8   ar
   100   117   119   ar
   101   117   116    1
   102   108   105    1
   103   125   124   ar
   104   119   122   ar
   105   107   106    2
   106    19    17   ar
   107   104   105    1
   108   116   113    1
   109    20    18   ar
   110     9     7   ar
   111   105   106    1
   112   124   122   ar
   113     8     6   ar
   114   112   113    1
   115    17    18   ar
   116    17    16    1
   117   113   114    1
   118     7     6   ar
   119     6     5    1
   120   114   115    2
   121    16    13    1
   122    13    14    1
   123    13    12    1
   124     5     2    1
   125    14    15    2
   126     2     3    1
   127     2     1    1
   128     3     4    2
