@<TRIPOS>MOLECULE
tmp/3mo5B00.pdb
 188 184 0 0 0
SMALL
GASTEIGER

@<TRIPOS>ATOM
      1  N          3.9040    1.4380   31.9250 N.3   149  TYR149     -0.1241
      2  CA         4.1470    0.8280   33.2270 C.3   149  TYR149      0.1605
      3  C          4.5320    2.0030   34.1240 C.2   149  TYR149      0.2264
      4  O          5.6690    2.4740   34.0900 O.2   149  TYR149     -0.2867
      5  CB         5.2980   -0.1800   33.1770 C.3   149  TYR149      0.0534
      6  CG         5.4070   -1.0200   34.4380 C.ar  149  TYR149     -0.0201
      7  CD1        4.7170   -2.2280   34.5610 C.ar  149  TYR149     -0.0009
      8  CD2        6.1600   -0.5810   35.5290 C.ar  149  TYR149     -0.0009
      9  CE1        4.7720   -2.9770   35.7410 C.ar  149  TYR149      0.0417
     10  CE2        6.2220   -1.3210   36.7120 C.ar  149  TYR149      0.0417
     11  CZ         5.5240   -2.5160   36.8110 C.ar  149  TYR149      0.1957
     12  OH         5.5650   -3.2330   37.9880 O.3   149  TYR149     -0.2866
     13  N         18.6930    2.0970   41.8470 N.3   156  ASP156     -0.1239
     14  CA        18.9850    0.6770   41.9520 C.3   156  ASP156      0.1674
     15  C         19.1330    0.2780   43.4240 C.2   156  ASP156      0.2266
     16  O         18.5250   -0.6900   43.8810 O.2   156  ASP156     -0.2867
     17  CB        20.2770    0.3730   41.2030 C.3   156  ASP156      0.1410
     18  CG        20.6110   -1.0980   41.2040 C.2   156  ASP156      0.3668
     19  OD1       21.8080   -1.4320   41.1010 O.co2 156  ASP156     -0.2456
     20  OD2       19.6760   -1.9160   41.3020 O.co2 156  ASP156     -0.2456
     21  N         15.8730    0.0600   45.1540 N.3   159  ALA159     -0.1231
     22  CA        15.1530   -1.1320   44.7200 C.3   159  ALA159      0.1694
     23  C         15.7740   -2.3580   45.3820 C.2   159  ALA159      0.2592
     24  O         15.0850   -3.3300   45.6950 O.2   159  ALA159     -0.2718
     25  CB        15.2390   -1.2700   43.2090 C.3   159  ALA159      0.0304
     26  N         17.0840   -2.2970   45.6000 N.am  160  ASP160     -0.1960
     27  CA        17.8050   -3.4070   46.2020 C.3   160  ASP160      0.1840
     28  C         17.4900   -3.6660   47.6700 C.2   160  ASP160      0.2622
     29  O         17.8950   -4.6910   48.2100 O.2   160  ASP160     -0.2715
     30  CB        19.3120   -3.2080   46.0390 C.3   160  ASP160      0.1450
     31  CG        20.1070   -4.3850   46.5700 C.2   160  ASP160      0.3671
     32  OD1       19.7000   -5.5330   46.2940 O.co2 160  ASP160     -0.2456
     33  OD2       21.1300   -4.1680   47.2560 O.co2 160  ASP160     -0.2456
     34  N         16.7770   -2.7510   48.3230 N.am  161  VAL161     -0.1963
     35  CA        16.4490   -2.9620   49.7280 C.3   161  VAL161      0.1727
     36  C         14.9490   -3.0650   49.9860 C.2   161  VAL161      0.2616
     37  O         14.5010   -3.0160   51.1300 O.2   161  VAL161     -0.2715
     38  CB        17.0640   -1.8530   50.6330 C.3   161  VAL161      0.0290
     39  CG1       18.5770   -1.8050   50.4270 C.3   161  VAL161      0.0023
     40  CG2       16.4450   -0.5020   50.3280 C.3   161  VAL161      0.0023
     41  N         14.1690   -3.2170   48.9210 N.am  162  ARG162     -0.1963
     42  CA        12.7240   -3.3440   49.0700 C.3   162  ARG162      0.1729
     43  C         12.3370   -4.8110   49.1840 C.2   162  ARG162      0.2616
     44  O         12.7320   -5.6270   48.3580 O.2   162  ARG162     -0.2715
     45  CB        12.0160   -2.6980   47.8840 C.3   162  ARG162      0.0348
     46  CG        12.3320   -1.2250   47.7740 C.3   162  ARG162      0.0492
     47  CD        11.1290   -0.4160   47.3700 C.3   162  ARG162      0.2205
     48  NE        11.3230    1.0010   47.6510 N.pl3 162  ARG162     -0.0865
     49  CZ        10.4510    1.9480   47.3190 C.cat 162  ARG162      0.5346
     50  NH1        9.3260    1.6250   46.6900 N.pl3 162  ARG162      0.1354
     51  NH2       10.6960    3.2160   47.6230 N.pl3 162  ARG162      0.1354
     52  N         11.5720   -5.1380   50.2190 N.am  163  GLU163     -0.1977
     53  CA        11.1360   -6.5120   50.4620 C.3   163  GLU163      0.1602
     54  C         10.2360   -7.0280   49.3370 C.2   163  GLU163      0.2287
     55  O         10.5110   -8.0640   48.7310 O.2   163  GLU163     -0.2864
     56  CB        10.4050   -6.5950   51.8000 C.3   163  GLU163      0.0415
     57  CG        11.1390   -5.9590   52.9870 C.3   163  GLU163      0.1163
     58  CD        12.4550   -6.6390   53.3390 C.2   163  GLU163      0.3649
     59  OE1       12.5960   -7.8580   53.1190 O.co2 163  GLU163     -0.2457
     60  OE2       13.3540   -5.9560   53.8550 O.co2 163  GLU163     -0.2457
     61  N          9.3250   -7.2080   45.8900 N.3   165  ASP165     -0.1225
     62  CA         9.9800   -6.8860   44.6340 C.3   165  ASP165      0.1805
     63  C          9.1890   -7.3660   43.4240 C.2   165  ASP165      0.2598
     64  O          9.6650   -7.2750   42.2980 O.2   165  ASP165     -0.2718
     65  CB        11.3840   -7.4990   44.6160 C.3   165  ASP165      0.1424
     66  CG        11.3610   -9.0210   44.7270 C.2   165  ASP165      0.3668
     67  OD1       10.4210   -9.5600   45.3500 O.co2 165  ASP165     -0.2456
     68  OD2       12.2890   -9.6760   44.2020 O.co2 165  ASP165     -0.2456
     69  N          7.9760   -7.8560   43.6520 N.am  166  SER166     -0.1938
     70  CA         7.1490   -8.3610   42.5610 C.3   166  SER166      0.2055
     71  C          6.6150   -7.2790   41.6320 C.2   166  SER166      0.2643
     72  O          6.1520   -7.5790   40.5350 O.2   166  SER166     -0.2714
     73  CB         5.9730   -9.1630   43.1180 C.3   166  SER166      0.2130
     74  OG         6.4290  -10.2780   43.8630 O.3   166  SER166     -0.2179
     75  N          6.6830   -6.0240   42.0650 N.am  167  TYR167     -0.1959
     76  CA         6.1890   -4.9140   41.2600 C.3   167  TYR167      0.1771
     77  C          7.2910   -4.0570   40.6420 C.2   167  TYR167      0.2619
     78  O          7.0180   -2.9880   40.0950 O.2   167  TYR167     -0.2715
     79  CB         5.2670   -4.0310   42.1050 C.3   167  TYR167      0.0574
     80  CG         3.9930   -4.7240   42.5320 C.ar  167  TYR167     -0.0198
     81  CD1        2.9170   -4.8530   41.6550 C.ar  167  TYR167     -0.0009
     82  CD2        3.8820   -5.2950   43.7990 C.ar  167  TYR167     -0.0009
     83  CE1        1.7650   -5.5370   42.0260 C.ar  167  TYR167      0.0417
     84  CE2        2.7330   -5.9820   44.1790 C.ar  167  TYR167      0.0417
     85  CZ         1.6830   -6.0990   43.2880 C.ar  167  TYR167      0.1957
     86  OH         0.5530   -6.7890   43.6560 O.3   167  TYR167     -0.2866
     87  N          8.5310   -4.5250   40.7170 N.am  168  LEU168     -0.1963
     88  CA         9.6450   -3.7740   40.1570 C.3   168  LEU168      0.1728
     89  C          9.7990   -3.9980   38.6620 C.2   168  LEU168      0.2616
     90  O          9.4680   -5.0670   38.1470 O.2   168  LEU168     -0.2715
     91  CB        10.9630   -4.1660   40.8350 C.3   168  LEU168      0.0311
     92  CG        11.1560   -3.8300   42.3150 C.3   168  LEU168      0.0022
     93  CD1       12.4610   -4.4480   42.8240 C.3   168  LEU168      0.0001
     94  CD2       11.1670   -2.3150   42.4920 C.3   168  LEU168      0.0001
     95  N         10.2930   -2.9730   37.9720 N.am  169  PHE169     -0.1960
     96  CA        10.5680   -3.0610   36.5440 C.3   169  PHE169      0.1771
     97  C         11.8920   -2.3420   36.3460 C.2   169  PHE169      0.2619
     98  O         12.0070   -1.1560   36.6490 O.2   169  PHE169     -0.2715
     99  CB         9.4880   -2.3770   35.7040 C.3   169  PHE169      0.0574
    100  CG         9.6120   -2.6570   34.2250 C.ar  169  PHE169     -0.0200
    101  CD1        8.7200   -3.5150   33.5870 C.ar  169  PHE169     -0.0042
    102  CD2       10.6400   -2.0900   33.4790 C.ar  169  PHE169     -0.0042
    103  CE1        8.8530   -3.8060   32.2250 C.ar  169  PHE169     -0.0003
    104  CE2       10.7860   -2.3720   32.1180 C.ar  169  PHE169     -0.0003
    105  CZ         9.8900   -3.2320   31.4890 C.ar  169  PHE169     -0.0000
    106  N         12.8920   -3.0610   35.8460 N.am  170  ASP170     -0.1971
    107  CA        14.2130   -2.4810   35.6310 C.3   170  ASP170      0.1709
    108  C         14.2510   -1.6430   34.3630 C.2   170  ASP170      0.2293
    109  O         13.8440   -2.1010   33.2990 O.2   170  ASP170     -0.2864
    110  CB        15.2670   -3.5860   35.5540 C.3   170  ASP170      0.1436
    111  CG        15.2730   -4.4700   36.7860 C.2   170  ASP170      0.3671
    112  OD1       15.2270   -3.9300   37.9130 O.co2 170  ASP170     -0.2456
    113  OD2       15.3300   -5.7070   36.6250 O.co2 170  ASP170     -0.2456
    114  N         21.8450    2.7320   37.4100 N.3   176  VAL176     -0.1245
    115  CA        20.5820    2.3920   36.7860 C.3   176  VAL176      0.1561
    116  C         19.4430    2.6440   37.7650 C.2   176  VAL176      0.2260
    117  O         19.6670    2.7800   38.9740 O.2   176  VAL176     -0.2867
    118  CB        20.5720    0.9220   36.3100 C.3   176  VAL176      0.0252
    119  CG1       21.6920    0.7160   35.3080 C.3   176  VAL176      0.0019
    120  CG2       20.7310   -0.0310   37.4880 C.3   176  VAL176      0.0019
    121  N         14.9400    1.9950   38.6870 N.3   178  CYS178     -0.1235
    122  CA        13.8130    1.0820   38.6000 C.3   178  CYS178      0.1677
    123  C         12.4950    1.8010   38.8430 C.2   178  CYS178      0.2270
    124  O         12.4600    2.9300   39.3450 O.2   178  CYS178     -0.2867
    125  CB        13.9490   -0.0390   39.6340 C.3   178  CYS178      0.0956
    126  SG        15.3790   -1.1190   39.3930 S.3   178  CYS178     -0.0801
    127  N          2.6050   -9.7600   29.6220 N.3   232  PHE232     -0.1241
    128  CA         3.9060   -9.4860   29.0380 C.3   232  PHE232      0.1605
    129  C          4.8890  -10.4140   29.7230 C.2   232  PHE232      0.2264
    130  O          4.6050  -10.9190   30.8070 O.2   232  PHE232     -0.2867
    131  CB         4.2920   -8.0010   29.1910 C.3   232  PHE232      0.0534
    132  CG         4.7050   -7.5870   30.5810 C.ar  232  PHE232     -0.0203
    133  CD1        6.0440   -7.6030   30.9550 C.ar  232  PHE232     -0.0042
    134  CD2        3.7650   -7.0980   31.4840 C.ar  232  PHE232     -0.0042
    135  CE1        6.4510   -7.1290   32.2070 C.ar  232  PHE232     -0.0003
    136  CE2        4.1570   -6.6230   32.7390 C.ar  232  PHE232     -0.0003
    137  CZ         5.5050   -6.6370   33.1000 C.ar  232  PHE232     -0.0000
    138  N          7.7230  -11.3110   31.9430 N.3   234  TYR234     -0.1241
    139  CA         8.4990  -10.7300   33.0390 C.3   234  TYR234      0.1605
    140  C         10.0090  -10.8740   32.8360 C.2   234  TYR234      0.2264
    141  O         10.7860  -10.0610   33.3350 O.2   234  TYR234     -0.2867
    142  CB         8.0840  -11.3510   34.3760 C.3   234  TYR234      0.0534
    143  CG         6.7340  -10.8820   34.8930 C.ar  234  TYR234     -0.0201
    144  CD1        5.8650  -10.1410   34.0880 C.ar  234  TYR234     -0.0009
    145  CD2        6.3180  -11.1990   36.1870 C.ar  234  TYR234     -0.0009
    146  CE1        4.6170   -9.7280   34.5570 C.ar  234  TYR234      0.0417
    147  CE2        5.0730  -10.7940   36.6630 C.ar  234  TYR234      0.0417
    148  CZ         4.2280  -10.0620   35.8440 C.ar  234  TYR234      0.1957
    149  OH         2.9910   -9.6810   36.3090 O.3   234  TYR234     -0.2866
    150  N         15.2980  -12.1200   35.1230 N.3   237  ARG237     -0.1231
    151  CA        15.5270  -11.7090   36.5090 C.3   237  ARG237      0.1694
    152  C         14.3910  -12.0780   37.4490 C.2   237  ARG237      0.2592
    153  O         14.6270  -12.5760   38.5510 O.2   237  ARG237     -0.2718
    154  CB        15.7860  -10.2070   36.6170 C.3   237  ARG237      0.0321
    155  CG        15.8310   -9.7360   38.0680 C.3   237  ARG237      0.0489
    156  CD        16.4770   -8.3790   38.2020 C.3   237  ARG237      0.2205
    157  NE        17.9040   -8.4160   37.8920 N.pl3 237  ARG237     -0.0865
    158  CZ        18.6690   -7.3350   37.7950 C.cat 237  ARG237      0.5346
    159  NH1       18.1400   -6.1320   37.9830 N.pl3 237  ARG237      0.1354
    160  NH2       19.9580   -7.4540   37.5070 N.pl3 237  ARG237      0.1354
    161  N         13.1620  -11.8280   37.0160 N.am  238  PHE238     -0.1976
    162  CA        11.9930  -12.1370   37.8250 C.3   238  PHE238      0.1639
    163  C         11.9340  -13.6270   38.1300 C.2   238  PHE238      0.2290
    164  O         11.9210  -14.0430   39.2920 O.2   238  PHE238     -0.2864
    165  CB        10.7180  -11.7360   37.0840 C.3   238  PHE238      0.0560
    166  CG         9.4520  -12.1130   37.8040 C.ar  238  PHE238     -0.0200
    167  CD1        8.8250  -11.2120   38.6570 C.ar  238  PHE238     -0.0042
    168  CD2        8.8930  -13.3790   37.6370 C.ar  238  PHE238     -0.0042
    169  CE1        7.6580  -11.5610   39.3370 C.ar  238  PHE238     -0.0003
    170  CE2        7.7300  -13.7390   38.3110 C.ar  238  PHE238     -0.0003
    171  CZ         7.1110  -12.8240   39.1640 C.ar  238  PHE238     -0.0000
    172  N         14.3790  -15.4260   40.2880 N.3   241  ILE241     -0.1231
    173  CA        14.1110  -15.1470   41.6920 C.3   241  ILE241      0.1692
    174  C         12.8440  -15.8310   42.1990 C.2   241  ILE241      0.2591
    175  O         12.8670  -16.5190   43.2210 O.2   241  ILE241     -0.2718
    176  CB        13.9740  -13.6250   41.9430 C.3   241  ILE241      0.0266
    177  CG1       15.2980  -12.9260   41.6430 C.3   241  ILE241      0.0019
    178  CG2       13.5510  -13.3640   43.3850 C.3   241  ILE241      0.0020
    179  CD1       15.2520  -11.4140   41.8140 C.3   241  ILE241      0.0001
    180  N         11.7400  -15.6380   41.4840 N.am  242  LYS242     -0.1980
    181  CA        10.4590  -16.2120   41.8830 C.3   242  LYS242      0.1596
    182  C         10.2580  -17.6510   41.4260 C.2   242  LYS242      0.2287
    183  O          9.3330  -18.3260   41.8740 O.2   242  LYS242     -0.2864
    184  CB         9.3150  -15.3400   41.3580 C.3   242  LYS242      0.0298
    185  CG         9.3800  -13.8990   41.8340 C.3   242  LYS242      0.0038
    186  CD         9.3250  -13.8290   43.3490 C.3   242  LYS242      0.0206
    187  CE         9.4570  -12.4010   43.8420 C.3   242  LYS242      0.1093
    188  NZ         9.2900  -12.3180   45.3170 N.3   242  LYS242     -0.1314
@<TRIPOS>BOND
     1   128   131    1
     2   128   127    1
     3   128   129    1
     4   131   132    1
     5   129   130    2
     6   132   133   ar
     7   132   134   ar
     8   133   135   ar
     9   134   136   ar
    10   105   104   ar
    11   105   103   ar
    12     1     2    1
    13   138   139    1
    14   104   102   ar
    15   135   137   ar
    16   103   101   ar
    17   136   137   ar
    18   140   139    1
    19   140   141    2
    20   139   142    1
    21     5     2    1
    22     5     6    1
    23     2     3    1
    24   109   108    2
    25   102   100   ar
    26   101   100   ar
    27   144   146   ar
    28   144   143   ar
    29     4     3    2
    30   100    99    1
    31   108   107    1
    32   142   143    1
    33     6     7   ar
    34     6     8   ar
    35   146   148   ar
    36     7     9   ar
    37   143   145   ar
    38   150   151    1
    39   119   118    1
    40     8    10   ar
    41   110   107    1
    42   110   111    1
    43   107   106    1
    44    99    96    1
    45     9    11   ar
    46   148   149    1
    47   148   147   ar
    48   106    97   am
    49   145   147   ar
    50   118   115    1
    51   118   120    1
    52    97    96    1
    53    97    98    2
    54   151   154    1
    55   151   152    1
    56    96    95    1
    57   154   155    1
    58   113   111   ar
    59    10    11   ar
    60   115   114    1
    61   115   116    1
    62   111   112   ar
    63    11    12    1
    64   161   152   am
    65   161   162    1
    66   165   166    1
    67   165   162    1
    68   152   153    2
    69   160   158    1
    70   168   166   ar
    71   168   170   ar
    72   116   117    2
    73   158   157    2
    74   158   159    1
    75   166   167   ar
    76   162   163    1
    77   157   156    1
    78    95    89   am
    79   155   156    1
    80   163   164    2
    81    90    89    2
    82   170   171   ar
    83   122   121    1
    84   122   123    1
    85   122   125    1
    86   167   169   ar
    87    89    88    1
    88   123   124    2
    89   171   169   ar
    90   126   125    1
    91    78    77    2
    92    88    87    1
    93    88    91    1
    94   172   173    1
    95    72    71    2
    96    77    87   am
    97    77    76    1
    98    91    92    1
    99    19    18   ar
   100    17    18    1
   101    17    14    1
   102    18    20   ar
   103    76    75    1
   104    76    79    1
   105   184   185    1
   106   184   181    1
   107   182   183    2
   108   182   181    1
   109   180   181    1
   110   180   174   am
   111    71    75   am
   112    71    70    1
   113   177   179    1
   114   177   176    1
   115    81    83   ar
   116    81    80   ar
   117   173   176    1
   118   173   174    1
   119   185   186    1
   120    13    14    1
   121   176   178    1
   122    14    15    1
   123    83    85   ar
   124    79    80    1
   125   174   175    2
   126    64    63    2
   127    92    94    1
   128    92    93    1
   129    80    82   ar
   130    70    73    1
   131    70    69    1
   132    73    74    1
   133    25    22    1
   134    85    86    1
   135    85    84   ar
   136   186   187    1
   137    63    69   am
   138    63    62    1
   139    15    16    2
   140    82    84   ar
   141   187   188    1
   142    68    66   ar
   143    65    62    1
   144    65    66    1
   145    62    61    1
   146    22    21    1
   147    22    23    1
   148    66    67   ar
   149    23    26   am
   150    23    24    2
   151    26    27    1
   152    30    27    1
   153    30    31    1
   154    27    28    1
   155    32    31   ar
   156    31    33   ar
   157    50    49    1
   158    49    51    1
   159    49    48    2
   160    47    48    1
   161    47    46    1
   162    28    29    2
   163    28    34   am
   164    46    45    1
   165    45    42    1
   166    34    35    1
   167    44    43    2
   168    55    54    2
   169    41    42    1
   170    41    36   am
   171    42    43    1
   172    43    52   am
   173    54    53    1
   174    35    36    1
   175    35    38    1
   176    36    37    2
   177    52    53    1
   178    40    38    1
   179    39    38    1
   180    53    56    1
   181    56    57    1
   182    57    58    1
   183    59    58   ar
   184    58    60   ar
