@<TRIPOS>MOLECULE
tmp/3mofA01.pdb
 111 109 0 0 0
SMALL
GASTEIGER

@<TRIPOS>ATOM
      1  N         32.2100   -4.7800   54.5600 N.3   154  PRO154     -0.2102
      2  CA        32.5750   -5.7800   53.5720 C.3   154  PRO154      0.1504
      3  C         31.5490   -5.7650   52.4890 C.2   154  PRO154      0.2575
      4  O         31.8260   -6.1570   51.3890 O.2   154  PRO154     -0.2718
      5  CB        32.3930   -7.0680   54.3320 C.3   154  PRO154      0.0282
      6  CG        32.5410   -6.6900   55.7420 C.3   154  PRO154      0.0208
      7  CD        31.9630   -5.3810   55.8730 C.3   154  PRO154      0.0893
      8  N         30.3620   -5.3290   52.8350 N.am  155  LEU155     -0.1980
      9  CA        29.2260   -5.4730   51.9560 C.3   155  LEU155      0.1596
     10  C         29.0340   -4.2570   51.0500 C.2   155  LEU155      0.2287
     11  O         28.2290   -4.3240   50.1230 O.2   155  LEU155     -0.2864
     12  CB        27.9700   -5.7440   52.7840 C.3   155  LEU155      0.0297
     13  CG        28.1090   -6.7690   53.9350 C.3   155  LEU155      0.0022
     14  CD1       29.2650   -7.7700   53.7420 C.3   155  LEU155      0.0001
     15  CD2       28.1850   -6.1480   55.3080 C.3   155  LEU155      0.0001
     16  N         29.5810   -0.9380   48.4480 N.3   157  LYS157     -0.1245
     17  CA        29.9940   -0.7520   47.0690 C.3   157  LYS157      0.1561
     18  C         29.9240    0.7440   46.7380 C.2   157  LYS157      0.2260
     19  O         29.0020    1.4260   47.1590 O.2   157  LYS157     -0.2867
     20  CB        29.0520   -1.5220   46.1310 C.3   157  LYS157      0.0271
     21  CG        28.8730   -3.0220   46.4350 C.3   157  LYS157      0.0035
     22  CD        29.7090   -3.9450   45.5830 C.3   157  LYS157      0.0206
     23  CE        29.5670   -5.3970   46.0910 C.3   157  LYS157      0.1093
     24  NZ        30.2910   -6.4080   45.2620 N.3   157  LYS157     -0.1314
     25  N         28.0690  -13.7840   42.8070 N.3   260  GLU260     -0.1245
     26  CA        29.0290  -13.7850   43.9040 C.3   260  GLU260      0.1567
     27  C         28.5080  -14.5160   45.1440 C.2   260  GLU260      0.2260
     28  O         29.2500  -14.7270   46.0870 O.2   260  GLU260     -0.2867
     29  CB        29.4240  -12.3460   44.2430 C.3   260  GLU260      0.0388
     30  CG        30.1980  -11.6510   43.1280 C.3   260  GLU260      0.1160
     31  CD        30.2640  -10.1350   43.2760 C.2   260  GLU260      0.3649
     32  OE1       29.7950   -9.5820   44.2920 O.co2 260  GLU260     -0.2457
     33  OE2       30.8100   -9.4840   42.3570 O.co2 260  GLU260     -0.2457
     34  N         25.5940  -13.8530   47.1420 N.3   262  TRP262     -0.1241
     35  CA        24.8230  -13.1300   48.1210 C.3   262  TRP262      0.1605
     36  C         23.4590  -12.7550   47.5840 C.2   262  TRP262      0.2264
     37  O         22.9950  -13.2980   46.5500 O.2   262  TRP262     -0.2867
     38  CB        25.5720  -11.9020   48.6550 C.3   262  TRP262      0.0550
     39  CG        26.2090  -10.9560   47.6530 C.ar  262  TRP262      0.0003
     40  CD1       27.3580  -11.1810   46.9070 C.ar  262  TRP262      0.0946
     41  CD2       25.8130   -9.6010   47.3730 C.ar  262  TRP262      0.0152
     42  NE1       27.6580  -10.0650   46.1630 N.ar  262  TRP262     -0.2442
     43  CE2       26.7330   -9.0830   46.4270 C.ar  262  TRP262      0.0810
     44  CE3       24.7670   -8.7740   47.8290 C.ar  262  TRP262      0.0012
     45  CZ2       26.6580   -7.7690   45.9480 C.ar  262  TRP262      0.0191
     46  CZ3       24.6730   -7.4590   47.3310 C.ar  262  TRP262      0.0001
     47  CH2       25.6070   -6.9800   46.3960 C.ar  262  TRP262      0.0015
     48  N         20.9370   -6.0370   51.7180 N.3   316  TRP316     -0.1227
     49  CA        21.9750   -6.8790   51.1270 C.3   316  TRP316      0.1737
     50  C         22.3730   -7.9340   52.1390 C.2   316  TRP316      0.2595
     51  O         22.7130   -7.6110   53.2860 O.2   316  TRP316     -0.2718
     52  CB        23.2190   -6.0620   50.7400 C.3   316  TRP316      0.0564
     53  CG        23.0700   -5.1350   49.5830 C.ar  316  TRP316      0.0003
     54  CD1       21.9880   -5.0020   48.7490 C.ar  316  TRP316      0.0946
     55  CD2       24.0710   -4.2320   49.0910 C.ar  316  TRP316      0.0152
     56  NE1       22.2610   -4.0520   47.7740 N.ar  316  TRP316     -0.2442
     57  CE2       23.5310   -3.5650   47.9750 C.ar  316  TRP316      0.0810
     58  CE3       25.3750   -3.8960   49.5220 C.ar  316  TRP316      0.0012
     59  CZ2       24.2570   -2.5920   47.2440 C.ar  316  TRP316      0.0191
     60  CZ3       26.1070   -2.9170   48.7860 C.ar  316  TRP316      0.0001
     61  CH2       25.5360   -2.2850   47.6710 C.ar  316  TRP316      0.0015
     62  N         22.3470   -9.1980   51.7220 N.am  317  MET317     -0.1965
     63  CA        22.5320  -10.3120   52.6650 C.3   317  MET317      0.1736
     64  C         23.4500  -11.4020   52.1640 C.2   317  MET317      0.2616
     65  O         23.5050  -11.6730   50.9860 O.2   317  MET317     -0.2715
     66  CB        21.1720  -10.9390   53.0160 C.3   317  MET317      0.0427
     67  CG        20.1000   -9.9350   53.3940 C.3   317  MET317      0.0599
     68  SD        18.5800  -10.7490   53.9480 S.3   317  MET317     -0.1393
     69  CE        17.7100  -11.1930   52.4240 C.3   317  MET317      0.0692
     70  N         24.1700  -12.0450   53.0840 N.am  318  LYS318     -0.1977
     71  CA        25.1340  -13.0910   52.7300 C.3   318  LYS318      0.1596
     72  C         25.2860  -14.0010   53.9400 C.2   318  LYS318      0.2287
     73  O         25.3430  -13.5160   55.0860 O.2   318  LYS318     -0.2864
     74  CB        26.4920  -12.4500   52.3760 C.3   318  LYS318      0.0298
     75  CG        27.5550  -13.3860   51.8800 C.3   318  LYS318      0.0038
     76  CD        28.6290  -12.6190   51.0880 C.3   318  LYS318      0.0206
     77  CE        29.9990  -13.3080   51.1170 C.3   318  LYS318      0.1093
     78  NZ        29.9970  -14.7060   50.5720 N.3   318  LYS318     -0.1314
     79  N         23.5020  -12.8080   57.1360 N.3   326  ARG326     -0.1231
     80  CA        23.8430  -11.5170   57.7250 C.3   326  ARG326      0.1694
     81  C         23.3580  -10.4250   56.7780 C.2   326  ARG326      0.2592
     82  O         23.6680  -10.4810   55.5990 O.2   326  ARG326     -0.2718
     83  CB        25.3510  -11.3780   57.9110 C.3   326  ARG326      0.0321
     84  CG        25.9940  -12.2560   59.0300 C.3   326  ARG326      0.0489
     85  CD        26.5250  -11.3910   60.2130 C.3   326  ARG326      0.2205
     86  NE        26.3620  -12.0570   61.4970 N.pl3 326  ARG326     -0.0865
     87  CZ        26.1260  -11.4380   62.6500 C.cat 326  ARG326      0.5346
     88  NH1       26.0510  -10.1050   62.7200 N.pl3 326  ARG326      0.1354
     89  NH2       25.9840  -12.1640   63.7470 N.pl3 326  ARG326      0.1354
     90  N         22.6780   -9.4110   57.2950 N.am  327  ALA327     -0.1966
     91  CA        22.1250   -8.3560   56.4480 C.3   327  ALA327      0.1728
     92  C         22.6370   -6.9750   56.7740 C.2   327  ALA327      0.2616
     93  O         22.8540   -6.6460   57.9400 O.2   327  ALA327     -0.2715
     94  CB        20.6020   -8.3630   56.5270 C.3   327  ALA327      0.0334
     95  N         22.8100   -6.1690   55.7330 N.am  328  ILE328     -0.1977
     96  CA        23.1020   -4.7370   55.9100 C.3   328  ILE328      0.1596
     97  C         22.1120   -3.9030   55.0960 C.2   328  ILE328      0.2287
     98  O         21.4850   -4.3520   54.0790 O.2   328  ILE328     -0.2864
     99  CB        24.5690   -4.3130   55.5450 C.3   328  ILE328      0.0276
    100  CG1       24.8480   -4.5130   54.0480 C.3   328  ILE328      0.0022
    101  CG2       25.5930   -4.9630   56.5420 C.3   328  ILE328      0.0022
    102  CD1       25.5980   -3.3050   53.3910 C.3   328  ILE328      0.0001
    103  N         29.5110   -5.7530   59.9510 N.3   426  GLU426     -0.1245
    104  CA        29.2510   -7.1870   60.0610 C.3   426  GLU426      0.1567
    105  C         27.8280   -7.5540   59.6460 C.2   426  GLU426      0.2260
    106  O         27.5620   -8.7180   59.3790 O.2   426  GLU426     -0.2867
    107  CB        29.4010   -7.6420   61.5180 C.3   426  GLU426      0.0388
    108  CG        30.4350   -6.8440   62.3380 C.3   426  GLU426      0.1160
    109  CD        31.8270   -7.4300   62.2480 C.2   426  GLU426      0.3649
    110  OE1       31.9590   -8.6460   62.5280 O.co2 426  GLU426     -0.2457
    111  OE2       32.7960   -6.6840   61.9220 O.co2 426  GLU426     -0.2457
@<TRIPOS>BOND
     1    33    31   ar
     2    25    26    1
     3    30    31    1
     4    30    29    1
     5    31    32   ar
     6    26    29    1
     7    26    27    1
     8    27    28    2
     9    24    23    1
    10    22    23    1
    11    22    21    1
    12    45    47   ar
    13    45    43   ar
    14    20    21    1
    15    20    17    1
    16    42    43   ar
    17    42    40   ar
    18    47    46   ar
    19    43    41   ar
    20    37    36    2
    21    18    17    1
    22    18    19    2
    23    40    39   ar
    24    17    16    1
    25    34    35    1
    26    59    61   ar
    27    59    57   ar
    28    46    44   ar
    29    41    39   ar
    30    41    44   ar
    31    36    35    1
    32    39    38    1
    33    61    60   ar
    34    56    57   ar
    35    56    54   ar
    36    57    55   ar
    37    35    38    1
    38    54    53   ar
    39    60    58   ar
    40    55    58   ar
    41    55    53   ar
    42    53    52    1
    43    11    10    2
    44    78    77    1
    45    52    49    1
    46    65    64    2
    47    10     9    1
    48    76    77    1
    49    76    75    1
    50    49    48    1
    51    49    50    1
    52     4     3    2
    53    62    50   am
    54    62    63    1
    55    75    74    1
    56     9    12    1
    57     9     8    1
    58    50    51    2
    59    64    63    1
    60    64    70   am
    61    74    71    1
    62    69    68    1
    63     3     8   am
    64     3     2    1
    65    63    66    1
    66    71    70    1
    67    71    72    1
    68    12    13    1
    69    66    67    1
    70   102   100    1
    71    67    68    1
    72     2     5    1
    73     2     1    1
    74    14    13    1
    75    13    15    1
    76    72    73    2
    77   100    99    1
    78    98    97    2
    79     5     6    1
    80     1     7    1
    81    97    96    1
    82    99    96    1
    83    99   101    1
    84    82    81    2
    85    95    96    1
    86    95    92   am
    87     6     7    1
    88    91    94    1
    89    91    92    1
    90    91    90    1
    91    92    93    2
    92    81    90   am
    93    81    80    1
    94    79    80    1
    95    80    83    1
    96    83    84    1
    97    84    85    1
    98   106   105    2
    99   105   104    1
   100   103   104    1
   101   104   107    1
   102    85    86    1
   103    86    87    2
   104   107   108    1
   105   111   109   ar
   106   109   108    1
   107   109   110   ar
   108    87    88    1
   109    87    89    1
