@<TRIPOS>MOLECULE
tmp/3morA00.pdb
 94 91 0 0 0
SMALL
GASTEIGER

@<TRIPOS>ATOM
      1  N         -4.1220   -9.2180   34.3480 N.3    72  GLY72      -0.1210
      2  CA        -5.1980   -9.7600   35.1770 C.3    72  GLY72       0.1956
      3  C         -5.2690  -11.2750   35.1370 C.2    72  GLY72       0.2611
      4  O         -5.3450  -11.9260   36.1830 O.2    72  GLY72      -0.2717
      5  N         -5.2370  -11.8390   33.9280 N.am   73  ASP73      -0.1973
      6  CA        -5.2540  -13.2940   33.7560 C.3    73  ASP73       0.1709
      7  C         -4.1100  -13.9490   34.5230 C.2    73  ASP73       0.2293
      8  O         -4.3300  -14.8710   35.3070 O.2    73  ASP73      -0.2864
      9  CB        -5.1870  -13.6770   32.2720 C.3    73  ASP73       0.1436
     10  CG        -5.5440  -15.1460   32.0240 C.2    73  ASP73       0.3671
     11  OD1       -5.0320  -15.7350   31.0460 O.co2  73  ASP73      -0.2456
     12  OD2       -6.3380  -15.7070   32.8040 O.co2  73  ASP73      -0.2456
     13  N         -4.4820  -13.5440   38.4320 N.3    76  ALA76      -0.1245
     14  CA        -5.5330  -14.3230   39.0800 C.3    76  ALA76       0.1562
     15  C         -5.3110  -15.8300   38.9890 C.2    76  ALA76       0.2260
     16  O         -5.6160  -16.5610   39.9270 O.2    76  ALA76      -0.2867
     17  CB        -6.8920  -13.9560   38.5040 C.3    76  ALA76       0.0290
     18  N         -9.6900  -10.0950   28.5880 N.3   108  GLN108     -0.1231
     19  CA        -9.8520   -9.8660   30.0200 C.3   108  GLN108      0.1683
     20  C         -9.1260   -8.5870   30.4580 C.2   108  GLN108      0.2434
     21  O         -7.9740   -8.6420   30.8940 O.2   108  GLN108     -0.2733
     22  CB        -9.3470  -11.0740   30.8220 C.3   108  GLN108      0.0380
     23  CG       -10.1890  -12.3410   30.6540 C.3   108  GLN108      0.0905
     24  CD        -9.8470  -13.4280   31.6710 C.2   108  GLN108      0.2608
     25  OE1       -9.9810  -14.6200   31.3890 O.2   108  GLN108     -0.2717
     26  NE2       -9.4140  -13.0170   32.8620 N.am  108  GLN108     -0.0878
     27  N         -9.8050   -7.4270   30.3350 N.am  109  PRO109     -0.2729
     28  CA        -9.2060   -6.1300   30.6790 C.3   109  PRO109      0.1401
     29  C         -8.7970   -6.0670   32.1410 C.2   109  PRO109      0.2269
     30  O         -9.4310   -6.7010   32.9870 O.2   109  PRO109     -0.2865
     31  CB       -10.3430   -5.1330   30.4050 C.3   109  PRO109      0.0296
     32  CG       -11.2480   -5.8400   29.4500 C.3   109  PRO109      0.0237
     33  CD       -11.1830   -7.2790   29.8320 C.3   109  PRO109      0.0939
     34  N         -8.6870   -5.3140   35.7830 N.3   111  PRO111     -0.2102
     35  CA        -9.9060   -5.0900   36.5710 C.3   111  PRO111      0.1504
     36  C         -9.8530   -3.8700   37.4990 C.2   111  PRO111      0.2575
     37  O        -10.8790   -3.4910   38.0670 O.2   111  PRO111     -0.2718
     38  CB       -10.0280   -6.3750   37.3930 C.3   111  PRO111      0.0282
     39  CG        -8.6300   -6.8570   37.5420 C.3   111  PRO111      0.0208
     40  CD        -7.9000   -6.4550   36.2890 C.3   111  PRO111      0.0893
     41  N         -8.6790   -3.2620   37.6420 N.am  112  PHE112     -0.1977
     42  CA        -8.5130   -2.1350   38.5630 C.3   112  PHE112      0.1639
     43  C         -8.2490   -0.8120   37.8320 C.2   112  PHE112      0.2290
     44  O         -7.4670   -0.7700   36.8760 O.2   112  PHE112     -0.2864
     45  CB        -7.3970   -2.4220   39.5700 C.3   112  PHE112      0.0560
     46  CG        -7.5580   -3.7270   40.3030 C.ar  112  PHE112     -0.0200
     47  CD1       -8.7190   -4.0020   41.0230 C.ar  112  PHE112     -0.0042
     48  CD2       -6.5440   -4.6800   40.2810 C.ar  112  PHE112     -0.0042
     49  CE1       -8.8700   -5.2100   41.7000 C.ar  112  PHE112     -0.0003
     50  CE2       -6.6880   -5.8880   40.9550 C.ar  112  PHE112     -0.0003
     51  CZ        -7.8540   -6.1520   41.6660 C.ar  112  PHE112     -0.0000
     52  N         -7.8420   -3.6260   47.3600 N.3   133  PHE133     -0.1241
     53  CA        -8.2640   -4.6050   46.3550 C.3   133  PHE133      0.1605
     54  C         -7.7750   -6.0190   46.6710 C.2   133  PHE133      0.2264
     55  O         -6.5850   -6.2380   46.9150 O.2   133  PHE133     -0.2867
     56  CB        -7.7740   -4.1920   44.9620 C.3   133  PHE133      0.0534
     57  CG        -8.4450   -2.9580   44.4130 C.ar  133  PHE133     -0.0203
     58  CD1       -9.8280   -2.7940   44.5060 C.ar  133  PHE133     -0.0042
     59  CD2       -7.6980   -1.9750   43.7660 C.ar  133  PHE133     -0.0042
     60  CE1      -10.4480   -1.6600   43.9870 C.ar  133  PHE133     -0.0003
     61  CE2       -8.3130   -0.8400   43.2410 C.ar  133  PHE133     -0.0003
     62  CZ        -9.6890   -0.6830   43.3530 C.ar  133  PHE133     -0.0000
     63  N         -8.3130  -10.7710   42.1740 N.3   136  PRO136     -0.2102
     64  CA        -9.5060  -11.0700   41.3770 C.3   136  PRO136      0.1504
     65  C         -9.6630  -12.5660   41.0990 C.2   136  PRO136      0.2575
     66  O         -8.6890  -13.3200   41.1750 O.2   136  PRO136     -0.2718
     67  CB        -9.2510  -10.3110   40.0690 C.3   136  PRO136      0.0282
     68  CG        -7.7750  -10.1590   40.0010 C.3   136  PRO136      0.0208
     69  CD        -7.3240   -9.9890   41.4110 C.3   136  PRO136      0.0893
     70  N        -10.8870  -12.9800   40.7800 N.am  137  LYS137     -0.1980
     71  CA       -11.1790  -14.3750   40.4640 C.3   137  LYS137      0.1596
     72  C        -10.5960  -14.7680   39.1030 C.2   137  LYS137      0.2287
     73  O        -10.6330  -13.9860   38.1520 O.2   137  LYS137     -0.2864
     74  CB       -12.6920  -14.6140   40.4760 C.3   137  LYS137      0.0298
     75  CG       -13.0920  -16.0650   40.7060 C.3   137  LYS137      0.0038
     76  CD       -14.6010  -16.2530   40.5850 C.3   137  LYS137      0.0206
     77  CE       -15.0290  -17.6490   41.0360 C.3   137  LYS137      0.1093
     78  NZ       -14.5290  -18.7270   40.1280 N.3   137  LYS137     -0.1314
     79  N        -10.7930  -16.2450   35.7020 N.3   139  ASN139     -0.1240
     80  CA       -11.8430  -16.5290   34.7180 C.3   139  ASN139      0.1653
     81  C        -11.3210  -17.2700   33.4880 C.2   139  ASN139      0.2266
     82  O        -10.1580  -17.1190   33.1020 O.2   139  ASN139     -0.2867
     83  CB       -12.5560  -15.2400   34.2980 C.3   139  ASN139      0.1155
     84  CG       -13.1170  -14.4810   35.4750 C.2   139  ASN139      0.2627
     85  OD1      -13.8090  -15.0500   36.3220 O.2   139  ASN139     -0.2716
     86  ND2      -12.8230  -13.1850   35.5390 N.am  139  ASN139     -0.0877
     87  N        -14.3430  -11.4930   29.4570 N.3   143  ASP143     -0.1239
     88  CA       -15.3150  -10.7060   30.2340 C.3   143  ASP143      0.1674
     89  C        -16.6200  -10.5180   29.4670 C.2   143  ASP143      0.2266
     90  O        -17.7100  -10.7310   30.0060 O.2   143  ASP143     -0.2867
     91  CB       -14.7220   -9.3470   30.6220 C.3   143  ASP143      0.1410
     92  CG       -13.6870   -9.4530   31.7350 C.2   143  ASP143      0.3668
     93  OD1      -13.1830  -10.5690   31.9880 O.co2 143  ASP143     -0.2456
     94  OD2      -13.3770   -8.4160   32.3570 O.co2 143  ASP143     -0.2456
@<TRIPOS>BOND
     1    18    19    1
     2    32    33    1
     3    32    31    1
     4    87    88    1
     5    89    90    2
     6    89    88    1
     7    33    27    1
     8    19    20    1
     9    19    22    1
    10    88    91    1
    11    27    20   am
    12    27    28    1
    13    31    28    1
    14    20    21    2
    15    91    92    1
    16    23    22    1
    17    23    24    1
    18    28    29    1
    19    11    10   ar
    20    25    24    2
    21    24    26   am
    22    92    93   ar
    23    92    94   ar
    24    10     9    1
    25    10    12   ar
    26    29    30    2
    27     9     6    1
    28    82    81    2
    29    81    80    1
    30     6     5    1
    31     6     7    1
    32     5     3   am
    33    83    80    1
    34    83    84    1
    35     1     2    1
    36     7     8    2
    37    80    79    1
    38     3     2    1
    39     3     4    2
    40    84    86   am
    41    84    85    2
    42    34    40    1
    43    34    35    1
    44    40    39    1
    45    35    38    1
    46    35    36    1
    47    44    43    2
    48    38    39    1
    49    36    41   am
    50    36    37    2
    51    41    42    1
    52    43    42    1
    53    73    72    2
    54    13    14    1
    55    17    14    1
    56    42    45    1
    57    15    14    1
    58    15    16    2
    59    72    71    1
    60    45    46    1
    61    68    67    1
    62    68    69    1
    63    67    64    1
    64    78    77    1
    65    48    46   ar
    66    48    50   ar
    67    46    47   ar
    68    71    74    1
    69    71    70    1
    70    74    75    1
    71    76    75    1
    72    76    77    1
    73    70    65   am
    74    50    51   ar
    75    47    49   ar
    76    65    66    2
    77    65    64    1
    78    64    63    1
    79    69    63    1
    80    51    49   ar
    81    61    62   ar
    82    61    59   ar
    83    62    60   ar
    84    59    57   ar
    85    60    58   ar
    86    57    58   ar
    87    57    56    1
    88    56    53    1
    89    53    54    1
    90    53    52    1
    91    54    55    2
