@<TRIPOS>MOLECULE
tmp/3mouA00.pdb
 181 174 0 0 0
SMALL
GASTEIGER

@<TRIPOS>ATOM
      1  N          4.7400    4.7840   23.2380 N.3    24  PHE24      -0.1241
      2  CA         3.6050    4.4510   22.3730 C.3    24  PHE24       0.1605
      3  C          2.7180    3.3790   23.0140 C.2    24  PHE24       0.2264
      4  O          1.5030    3.5760   23.1710 O.2    24  PHE24      -0.2867
      5  CB         4.1390    4.0190   20.9920 C.3    24  PHE24       0.0534
      6  CG         3.1100    3.3820   20.0860 C.ar   24  PHE24      -0.0203
      7  CD1        1.9330    4.0470   19.7570 C.ar   24  PHE24      -0.0042
      8  CD2        3.3470    2.1290   19.5390 C.ar   24  PHE24      -0.0042
      9  CE1        0.9940    3.4650   18.9140 C.ar   24  PHE24      -0.0003
     10  CE2        2.4240    1.5320   18.6810 C.ar   24  PHE24      -0.0003
     11  CZ         1.2380    2.2040   18.3690 C.ar   24  PHE24      -0.0000
     12  N         -2.5860   -1.2240   21.6520 N.3    31  GLU31      -0.1245
     13  CA        -1.6990   -1.4530   20.5080 C.3    31  GLU31       0.1567
     14  C         -0.7330   -2.6180   20.7160 C.2    31  GLU31       0.2260
     15  O         -0.1990   -3.1510   19.7470 O.2    31  GLU31      -0.2867
     16  CB        -0.9180   -0.1810   20.1430 C.3    31  GLU31       0.0388
     17  CG        -1.8020    0.9780   19.7060 C.3    31  GLU31       0.1160
     18  CD        -2.5020    0.7160   18.3940 C.2    31  GLU31       0.3649
     19  OE1       -3.7410    0.5860   18.3970 O.co2  31  GLU31      -0.2457
     20  OE2       -1.8150    0.6190   17.3630 O.co2  31  GLU31      -0.2457
     21  N         -0.8160   -6.1080   18.6620 N.3    34  TYR34      -0.1227
     22  CA        -0.1140   -6.3560   17.3960 C.3    34  TYR34       0.1736
     23  C          1.2690   -6.9760   17.5900 C.2    34  TYR34       0.2595
     24  O          1.8970   -7.4140   16.6280 O.2    34  TYR34      -0.2718
     25  CB         0.0240   -5.0580   16.5970 C.3    34  TYR34       0.0548
     26  CG        -1.2900   -4.4790   16.1470 C.ar   34  TYR34      -0.0200
     27  CD1       -1.9430   -4.9780   15.0170 C.ar   34  TYR34      -0.0009
     28  CD2       -1.8870   -3.4330   16.8490 C.ar   34  TYR34      -0.0009
     29  CE1       -3.1650   -4.4470   14.6000 C.ar   34  TYR34       0.0417
     30  CE2       -3.1020   -2.8990   16.4420 C.ar   34  TYR34       0.0417
     31  CZ        -3.7340   -3.4080   15.3170 C.ar   34  TYR34       0.1957
     32  OH        -4.9390   -2.8790   14.9060 O.3    34  TYR34      -0.2866
     33  N          1.7360   -6.9870   18.8340 N.am   35  PHE35      -0.1976
     34  CA         3.0580   -7.4870   19.1780 C.3    35  PHE35       0.1639
     35  C          2.8810   -8.5460   20.2550 C.2    35  PHE35       0.2290
     36  O          3.2040   -8.3220   21.4200 O.2    35  PHE35      -0.2864
     37  CB         3.9310   -6.3340   19.6910 C.3    35  PHE35       0.0560
     38  CG         4.0010   -5.1640   18.7550 C.ar   35  PHE35      -0.0200
     39  CD1        3.1330   -4.0800   18.9040 C.ar   35  PHE35      -0.0042
     40  CD2        4.9250   -5.1480   17.7140 C.ar   35  PHE35      -0.0042
     41  CE1        3.1890   -3.0050   18.0280 C.ar   35  PHE35      -0.0003
     42  CE2        4.9900   -4.0780   16.8360 C.ar   35  PHE35      -0.0003
     43  CZ         4.1260   -3.0030   16.9940 C.ar   35  PHE35      -0.0000
     44  N         13.8450   -5.4320   16.4370 N.3    55  HIS55      -0.1241
     45  CA        12.6360   -4.9450   15.7560 C.3    55  HIS55       0.1621
     46  C         12.4700   -3.4490   15.9140 C.2    55  HIS55       0.2264
     47  O         12.2050   -2.7280   14.9530 O.2    55  HIS55      -0.2867
     48  CB        11.3700   -5.6360   16.2960 C.3    55  HIS55       0.0745
     49  CG        10.2000   -4.7100   16.4580 C.ar   55  HIS55       0.0817
     50  ND1        9.3090   -4.4450   15.4400 N.ar   55  HIS55      -0.2268
     51  CD2        9.7900   -3.9700   17.5170 C.ar   55  HIS55       0.1154
     52  CE1        8.3990   -3.5860   15.8680 C.ar   55  HIS55       0.1986
     53  NE2        8.6710   -3.2800   17.1240 N.ar   55  HIS55      -0.2212
     54  N         14.9780   -1.4850   13.9700 N.3    58  LYS58      -0.1231
     55  CA        14.6780   -1.5460   12.5430 C.3    58  LYS58       0.1693
     56  C         13.5030   -0.6420   12.1510 C.2    58  LYS58       0.2591
     57  O         13.5230    0.0010   11.0980 O.2    58  LYS58      -0.2718
     58  CB        14.4350   -2.9930   12.1200 C.3    58  LYS58       0.0285
     59  CG        15.7330   -3.7850   12.0280 C.3    58  LYS58       0.0035
     60  CD        15.4870   -5.2410   11.7080 C.3    58  LYS58       0.0206
     61  CE        16.7650   -5.9160   11.2590 C.3    58  LYS58       0.1093
     62  NZ        16.5810   -7.3850   11.1340 N.3    58  LYS58      -0.1314
     63  N         12.4870   -0.5930   13.0080 N.am   59  VAL59      -0.1980
     64  CA        11.3500    0.3020   12.8050 C.3    59  VAL59       0.1595
     65  C         11.8180    1.7500   12.7500 C.2    59  VAL59       0.2287
     66  O         11.4870    2.4910   11.8230 O.2    59  VAL59      -0.2864
     67  CB        10.3130    0.1440   13.9370 C.3    59  VAL59       0.0276
     68  CG1        9.2840    1.2830   13.9280 C.3    59  VAL59       0.0022
     69  CG2        9.6210   -1.1990   13.8040 C.3    59  VAL59       0.0022
     70  N         14.0470    2.6760    9.7150 N.3    62  LEU62      -0.1231
     71  CA        13.2340    2.9670    8.5380 C.3    62  LEU62       0.1693
     72  C         12.5270    4.3150    8.6860 C.2    62  LEU62       0.2591
     73  O         12.4510    5.0740    7.7130 O.2    62  LEU62      -0.2718
     74  CB        12.2250    1.8520    8.2400 C.3    62  LEU62       0.0284
     75  CG        11.4050    2.0200    6.9520 C.3    62  LEU62       0.0019
     76  CD1       12.2940    2.2300    5.7130 C.3    62  LEU62       0.0001
     77  CD2       10.4720    0.8450    6.7340 C.3    62  LEU62       0.0001
     78  N         12.0040    4.6100    9.8810 N.am   63  MET63      -0.1979
     79  CA        11.3330    5.8980   10.1020 C.3    63  MET63       0.1605
     80  C         12.2810    7.0500    9.8050 C.2    63  MET63       0.2287
     81  O         11.8920    8.0500    9.1980 O.2    63  MET63      -0.2864
     82  CB        10.7990    6.0550   11.5280 C.3    63  MET63       0.0413
     83  CG         9.9240    7.3040   11.6710 C.3    63  MET63       0.0598
     84  SD         9.4880    7.7180   13.3640 S.3    63  MET63      -0.1393
     85  CE         8.4040    6.3440   13.7570 C.3    63  MET63       0.0692
     86  N         12.8380    7.5080    6.0540 N.3    66  VAL66      -0.1245
     87  CA        11.6970    8.1770    5.4240 C.3    66  VAL66       0.1561
     88  C         11.7080    9.6610    5.7550 C.2    66  VAL66       0.2260
     89  O         11.4360   10.5050    4.8930 O.2    66  VAL66      -0.2867
     90  CB        10.3640    7.5400    5.8460 C.3    66  VAL66       0.0252
     91  CG1        9.1810    8.3530    5.3240 C.3    66  VAL66       0.0019
     92  CG2       10.2960    6.1050    5.3320 C.3    66  VAL66       0.0019
     93  N          5.4090    1.3870    3.2270 N.3    83  LEU83      -0.1245
     94  CA         4.7870    1.1830    4.5370 C.3    83  LEU83       0.1561
     95  C          3.4210    0.5040    4.4520 C.2    83  LEU83       0.2260
     96  O          3.0760   -0.3190    5.3060 O.2    83  LEU83      -0.2867
     97  CB         4.6880    2.5100    5.3020 C.3    83  LEU83       0.0270
     98  CG         6.0220    3.1300    5.7350 C.3    83  LEU83       0.0019
     99  CD1        5.8050    4.5320    6.2960 C.3    83  LEU83       0.0001
    100  CD2        6.7220    2.2490    6.7530 C.3    83  LEU83       0.0001
    101  N          3.9070   -3.3860    3.0240 N.3    86  MET86      -0.1245
    102  CA         4.5550   -4.2930    3.9780 C.3    86  MET86       0.1570
    103  C          3.5960   -5.3280    4.5630 C.2    86  MET86       0.2261
    104  O          2.5590   -4.9640    5.1350 O.2    86  MET86      -0.2867
    105  CB         5.1740   -3.4930    5.1230 C.3    86  MET86       0.0387
    106  CG         6.6120   -3.1070    4.9150 C.3    86  MET86       0.0595
    107  SD         7.0750   -1.8300    6.0940 S.3    86  MET86      -0.1393
    108  CE         8.7260   -2.3670    6.5160 C.3    86  MET86       0.0692
    109  N          3.8110   -7.0170    7.1810 N.3    88  GLN88      -0.1231
    110  CA         3.7040   -6.8170    8.6280 C.3    88  GLN88       0.1698
    111  C          2.6570   -5.7640    8.9910 C.2    88  GLN88       0.2592
    112  O          2.2140   -5.6850   10.1430 O.2    88  GLN88      -0.2718
    113  CB         5.0620   -6.4090    9.2210 C.3    88  GLN88       0.0381
    114  CG         6.2470   -7.2890    8.8320 C.3    88  GLN88       0.0905
    115  CD         6.9660   -6.7980    7.5860 C.2    88  GLN88       0.2608
    116  OE1        6.3580   -6.6150    6.5280 O.2    88  GLN88      -0.2717
    117  NE2        8.2720   -6.5870    7.7050 N.am   88  GLN88      -0.0878
    118  N          2.2730   -4.9510    8.0070 N.am   89  HIS89      -0.1976
    119  CA         1.3120   -3.8600    8.2090 C.3    89  HIS89       0.1656
    120  C         -0.0700   -4.0850    7.5760 C.2    89  HIS89       0.2291
    121  O         -0.8650   -3.1430    7.4780 O.2    89  HIS89      -0.2864
    122  CB         1.8860   -2.5470    7.6580 C.3    89  HIS89       0.0771
    123  CG         3.0830   -2.0380    8.4020 C.ar   89  HIS89       0.0820
    124  ND1        3.9270   -1.0820    7.8790 N.ar   89  HIS89      -0.2267
    125  CD2        3.5820   -2.3550    9.6200 C.ar   89  HIS89       0.1154
    126  CE1        4.8890   -0.8240    8.7480 C.ar   89  HIS89       0.1986
    127  NE2        4.7020   -1.5830    9.8140 N.ar   89  HIS89      -0.2212
    128  N         -3.2510   -3.0310    9.5140 N.3    92  LEU92      -0.1245
    129  CA        -3.2210   -1.6650   10.0520 C.3    92  LEU92       0.1561
    130  C         -4.0750   -0.6450    9.3080 C.2    92  LEU92       0.2260
    131  O         -4.3340   -0.7810    8.1130 O.2    92  LEU92      -0.2867
    132  CB        -1.7760   -1.1550   10.1440 C.3    92  LEU92       0.0270
    133  CG        -0.7420   -2.0010   10.8900 C.3    92  LEU92       0.0019
    134  CD1        0.5820   -1.2680   10.8880 C.3    92  LEU92       0.0001
    135  CD2       -1.1750   -2.3180   12.3110 C.3    92  LEU92       0.0001
    136  N         -3.5620    3.7440   13.5510 N.3    96  ASN96      -0.1225
    137  CA        -2.4110    3.1510   14.2330 C.3    96  ASN96       0.1785
    138  C         -1.1930    4.0640   14.1560 C.2    96  ASN96       0.2597
    139  O         -0.4810    4.2590   15.1510 O.2    96  ASN96      -0.2718
    140  CB        -2.0760    1.7700   13.6520 C.3    96  ASN96       0.1169
    141  CG        -3.2150    0.7690   13.8070 C.2    96  ASN96       0.2627
    142  OD1       -3.8120    0.3470   12.8220 O.2    96  ASN96      -0.2716
    143  ND2       -3.5070    0.3800   15.0430 N.am   96  ASN96      -0.0877
    144  N         -0.9590    4.6130   12.9670 N.am   97  PHE97      -0.1976
    145  CA         0.1670    5.5120   12.7340 C.3    97  PHE97       0.1639
    146  C         -0.0160    6.8540   13.4310 C.2    97  PHE97       0.2290
    147  O          0.9390    7.3860   14.0000 O.2    97  PHE97      -0.2864
    148  CB         0.4100    5.6850   11.2320 C.3    97  PHE97       0.0560
    149  CG         0.9650    4.4520   10.5670 C.ar   97  PHE97      -0.0200
    150  CD1        2.3230    4.3650   10.2640 C.ar   97  PHE97      -0.0042
    151  CD2        0.1360    3.3790   10.2470 C.ar   97  PHE97      -0.0042
    152  CE1        2.8550    3.2370    9.6500 C.ar   97  PHE97      -0.0003
    153  CE2        0.6620    2.2320    9.6410 C.ar   97  PHE97      -0.0003
    154  CZ         2.0250    2.1620    9.3410 C.ar   97  PHE97      -0.0000
    155  N          0.9510    6.3910   17.0190 N.3   100  LEU100     -0.1231
    156  CA         2.4040    6.3690   17.1500 C.3   100  LEU100      0.1693
    157  C          2.9790    7.7870   17.1440 C.2   100  LEU100      0.2592
    158  O          3.8150    8.1280   17.9820 O.2   100  LEU100     -0.2718
    159  CB         3.0540    5.5240   16.0540 C.3   100  LEU100      0.0284
    160  CG         4.5900    5.5240   16.0030 C.3   100  LEU100      0.0019
    161  CD1        5.2330    4.9330   17.2680 C.3   100  LEU100      0.0001
    162  CD2        5.0670    4.7630   14.7840 C.3   100  LEU100      0.0001
    163  N          2.5240    8.6190   16.2110 N.am  101  PHE101     -0.1976
    164  CA         3.0470    9.9780   16.1400 C.3   101  PHE101      0.1639
    165  C          2.5730   10.8990   17.2610 C.2   101  PHE101      0.2290
    166  O          3.3130   11.8000   17.6630 O.2   101  PHE101     -0.2864
    167  CB         2.8720   10.5800   14.7440 C.3   101  PHE101      0.0560
    168  CG         3.8740   10.0600   13.7630 C.ar  101  PHE101     -0.0200
    169  CD1        3.5510    9.0110   12.9160 C.ar  101  PHE101     -0.0042
    170  CD2        5.1640   10.5900   13.7210 C.ar  101  PHE101     -0.0042
    171  CE1        4.4900    8.5060   12.0110 C.ar  101  PHE101     -0.0003
    172  CE2        6.1070   10.0950   12.8320 C.ar  101  PHE101     -0.0003
    173  CZ         5.7690    9.0500   11.9710 C.ar  101  PHE101     -0.0000
    174  N          2.4890   12.0170    6.7120 N.3   127  LEU127     -0.1245
    175  CA         2.6800   10.5910    6.4590 C.3   127  LEU127      0.1561
    176  C          1.3400    9.8590    6.4380 C.2   127  LEU127      0.2260
    177  O          1.0810    9.0510    5.5470 O.2   127  LEU127     -0.2867
    178  CB         3.6340    9.9620    7.4830 C.3   127  LEU127      0.0270
    179  CG         3.9840    8.4800    7.2660 C.3   127  LEU127      0.0019
    180  CD1        4.5700    8.2080    5.8810 C.3   127  LEU127      0.0001
    181  CD2        4.9390    8.0040    8.3520 C.3   127  LEU127      0.0001
@<TRIPOS>BOND
     1   101   102    1
     2    93    94    1
     3   102   103    1
     4   102   105    1
     5    95    94    1
     6    95    96    2
     7    94    97    1
     8   103   104    2
     9    89    88    2
    10   106   105    1
    11   106   107    1
    12    97    98    1
    13    91    90    1
    14    92    90    1
    15    87    88    1
    16    87    90    1
    17    87    86    1
    18   177   176    2
    19    76    75    1
    20    98    99    1
    21    98   100    1
    22   180   179    1
    23   107   108    1
    24   176   175    1
    25   175   174    1
    26   175   178    1
    27   116   115    2
    28    77    75    1
    29    75    74    1
    30   109   110    1
    31   179   178    1
    32   179   181    1
    33   121   120    2
    34   120   119    1
    35   115   117   am
    36   115   114    1
    37   122   119    1
    38   122   123    1
    39    73    72    2
    40   124   123   ar
    41   124   126   ar
    42   118   119    1
    43   118   111   am
    44   131   130    2
    45    74    71    1
    46   123   125   ar
    47    71    72    1
    48    71    70    1
    49   110   111    1
    50   110   113    1
    51    72    78   am
    52   126   127   ar
    53   114   113    1
    54   111   112    2
    55    81    80    2
    56   130   129    1
    57   154   153   ar
    58   154   152   ar
    59   128   129    1
    60   125   127   ar
    61   153   151   ar
    62   152   150   ar
    63    80    79    1
    64    78    79    1
    65   129   132    1
    66    79    82    1
    67   132   133    1
    68   151   149   ar
    69   150   149   ar
    70   149   148    1
    71   134   133    1
    72   133   135    1
    73    57    56    2
    74    62    61    1
    75   148   145    1
    76    61    60    1
    77    82    83    1
    78    83    84    1
    79    60    59    1
    80    66    65    2
    81   173   171   ar
    82   173   172   ar
    83   171   169   ar
    84    59    58    1
    85    58    55    1
    86    56    55    1
    87    56    63   am
    88    55    54    1
    89   145   144    1
    90   145   146    1
    91    65    64    1
    92    64    63    1
    93    64    67    1
    94   142   141    2
    95   172   170   ar
    96   169   168   ar
    97   144   138   am
    98    84    85    1
    99   146   147    2
   100   136   137    1
   101   140   141    1
   102   140   137    1
   103   170   168   ar
   104   168   167    1
   105    69    67    1
   106   141   143   am
   107    68    67    1
   108   138   137    1
   109   138   139    2
   110    29    27   ar
   111    29    31   ar
   112   167   164    1
   113   162   160    1
   114    32    31    1
   115    47    46    2
   116    27    26   ar
   117    31    30   ar
   118    50    52   ar
   119    50    49   ar
   120    45    46    1
   121    45    48    1
   122    45    44    1
   123    52    53   ar
   124   160   159    1
   125   160   161    1
   126   159   156    1
   127   164   163    1
   128   164   165    1
   129    26    25    1
   130    26    28   ar
   131   163   157   am
   132    48    49    1
   133    30    28   ar
   134    49    51   ar
   135    25    22    1
   136    24    23    2
   137    42    43   ar
   138    42    40   ar
   139    43    41   ar
   140   155   156    1
   141    53    51   ar
   142   157   156    1
   143   157   158    2
   144   165   166    2
   145    20    18   ar
   146    22    23    1
   147    22    21    1
   148    23    33   am
   149    40    38   ar
   150    41    39   ar
   151    11    10   ar
   152    11     9   ar
   153    18    19   ar
   154    18    17    1
   155    10     8   ar
   156    38    39   ar
   157    38    37    1
   158    33    34    1
   159     9     7   ar
   160    34    37    1
   161    34    35    1
   162     8     6   ar
   163    17    16    1
   164    15    14    2
   165     7     6   ar
   166     6     5    1
   167    16    13    1
   168    35    36    2
   169    13    14    1
   170    13    12    1
   171     5     2    1
   172     2     3    1
   173     2     1    1
   174     3     4    2
