@<TRIPOS>MOLECULE
tmp/3mowA00.pdb
 185 176 0 0 0
SMALL
GASTEIGER

@<TRIPOS>ATOM
      1  N         27.5580    7.0530   19.3630 N.3    14  ASN14      -0.1240
      2  CA        27.9190    5.6730   19.0890 C.3    14  ASN14       0.1653
      3  C         26.8020    4.9090   18.3740 C.2    14  ASN14       0.2266
      4  O         26.9860    3.7650   17.9610 O.2    14  ASN14      -0.2867
      5  CB        28.2800    4.9800   20.4010 C.3    14  ASN14       0.1155
      6  CG        27.2460    5.2250   21.4930 C.2    14  ASN14       0.2627
      7  OD1       26.8410    6.3670   21.7380 O.2    14  ASN14      -0.2716
      8  ND2       26.8240    4.1550   22.1650 N.am   14  ASN14      -0.0877
      9  N         25.4450    5.9010   15.5360 N.3    16  ASN16      -0.1225
     10  CA        25.4480    6.3060   14.1330 C.3    16  ASN16       0.1785
     11  C         26.6850    5.7030   13.4700 C.2    16  ASN16       0.2597
     12  O         27.7810    5.7600   14.0270 O.2    16  ASN16      -0.2718
     13  CB        25.4930    7.8370   14.0090 C.3    16  ASN16       0.1169
     14  CG        24.4220    8.5310   14.8370 C.2    16  ASN16       0.2627
     15  OD1       23.2220    8.3370   14.6260 O.2    16  ASN16      -0.2716
     16  ND2       24.8560    9.3500   15.7900 N.am   16  ASN16      -0.0877
     17  N         26.5230    5.1170   12.2890 N.am   17  ARG17      -0.1966
     18  CA        27.6710    4.5230   11.6070 C.3    17  ARG17       0.1729
     19  C         28.5380    5.6300   10.9960 C.2    17  ARG17       0.2616
     20  O         29.7160    5.4210   10.7010 O.2    17  ARG17      -0.2715
     21  CB        27.2040    3.5270   10.5270 C.3    17  ARG17       0.0348
     22  CG        28.3500    2.8730    9.7470 C.3    17  ARG17       0.0492
     23  CD        27.9150    1.7100    8.8470 C.3    17  ARG17       0.2205
     24  NE        27.8030    0.4330    9.5660 N.pl3  17  ARG17      -0.0865
     25  CZ        26.6790   -0.0460   10.0880 C.cat  17  ARG17       0.5346
     26  NH1       25.5520    0.6390    9.9740 N.pl3  17  ARG17       0.1354
     27  NH2       26.6790   -1.2110   10.7220 N.pl3  17  ARG17       0.1354
     28  N         27.9440    6.8100   10.8300 N.am   18  TYR18      -0.1960
     29  CA        28.6260    7.9780   10.2670 C.3    18  TYR18       0.1771
     30  C         28.1370    9.2200   11.0130 C.2    18  TYR18       0.2619
     31  O         26.9710    9.6020   10.9060 O.2    18  TYR18      -0.2715
     32  CB        28.2960    8.1300    8.7820 C.3    18  TYR18       0.0574
     33  CG        28.4990    6.8810    7.9610 C.ar   18  TYR18      -0.0198
     34  CD1       29.7720    6.4760    7.5720 C.ar   18  TYR18      -0.0009
     35  CD2       27.4120    6.1020    7.5680 C.ar   18  TYR18      -0.0009
     36  CE1       29.9590    5.3270    6.8080 C.ar   18  TYR18       0.0417
     37  CE2       27.5890    4.9540    6.8060 C.ar   18  TYR18       0.0417
     38  CZ        28.8620    4.5730    6.4290 C.ar   18  TYR18       0.1957
     39  OH        29.0350    3.4460    5.6600 O.3    18  TYR18      -0.2866
     40  N         29.0330    9.8510   11.7620 N.am   19  LYS19      -0.1963
     41  CA        28.6870   11.0330   12.5380 C.3    19  LYS19       0.1728
     42  C         28.0000   12.1110   11.7100 C.2    19  LYS19       0.2616
     43  O         27.1950   12.8830   12.2300 O.2    19  LYS19      -0.2715
     44  CB        29.9450   11.6200   13.1940 C.3    19  LYS19       0.0311
     45  CG        30.9820   12.1620   12.2160 C.3    19  LYS19       0.0038
     46  CD        32.2150   12.6990   12.9490 C.3    19  LYS19       0.0206
     47  CE        31.8730   13.8960   13.8360 C.3    19  LYS19       0.1093
     48  NZ        33.0110   14.3210   14.7090 N.3    19  LYS19      -0.1314
     49  N         28.3090   12.1430   10.4190 N.am   20  ASN20      -0.1958
     50  CA        27.7590   13.1470    9.5120 C.3    20  ASN20       0.1819
     51  C         26.4430   12.7890    8.8220 C.2    20  ASN20       0.2621
     52  O         25.8700   13.6230    8.1220 O.2    20  ASN20      -0.2715
     53  CB        28.8030   13.4870    8.4480 C.3    20  ASN20       0.1195
     54  CG        29.2600   12.2620    7.6670 C.2    20  ASN20       0.2630
     55  OD1       29.7850   11.3050    8.2400 O.2    20  ASN20      -0.2716
     56  ND2       29.0610   12.2900    6.3510 N.am   20  ASN20      -0.0877
     57  N         25.9700   11.5590    9.0070 N.am   21  ILE21      -0.1977
     58  CA        24.7180   11.1220    8.3900 C.3    21  ILE21       0.1596
     59  C         23.6860   10.8910    9.4900 C.2    21  ILE21       0.2287
     60  O         23.6120    9.8120   10.0770 O.2    21  ILE21      -0.2864
     61  CB        24.9390    9.8320    7.5690 C.3    21  ILE21       0.0276
     62  CG1       25.9620   10.1150    6.4610 C.3    21  ILE21       0.0022
     63  CG2       23.6240    9.3480    6.9680 C.3    21  ILE21       0.0022
     64  CD1       26.2630    8.9330    5.5590 C.3    21  ILE21       0.0001
     65  N         24.3550   -1.7670   13.9550 N.3    62  LEU62      -0.1231
     66  CA        25.6970   -1.6400   14.5020 C.3    62  LEU62       0.1693
     67  C         25.6420   -2.6670   15.6170 C.2    62  LEU62       0.2592
     68  O         24.5540   -3.0490   16.0530 O.2    62  LEU62      -0.2718
     69  CB        25.9400   -0.2420   15.0830 C.3    62  LEU62       0.0284
     70  CG        26.1410    0.8960   14.0730 C.3    62  LEU62       0.0019
     71  CD1       26.1470    2.2500   14.7870 C.3    62  LEU62       0.0001
     72  CD2       27.4560    0.6740   13.3170 C.3    62  LEU62       0.0001
     73  N         26.8020   -3.1300   16.0600 N.am   63  GLN63      -0.1966
     74  CA        26.8840   -4.1180   17.1250 C.3    63  GLN63       0.1733
     75  C         26.1000   -3.6910   18.3720 C.2    63  GLN63       0.2616
     76  O         25.5110   -4.5280   19.0560 O.2    63  GLN63      -0.2715
     77  CB        28.3570   -4.3570   17.4830 C.3    63  GLN63       0.0408
     78  CG        28.5840   -5.3470   18.6150 C.3    63  GLN63       0.0908
     79  CD        30.0610   -5.5910   18.8970 C.2    63  GLN63       0.2608
     80  OE1       30.8240   -4.6550   19.1350 O.2    63  GLN63      -0.2717
     81  NE2       30.4660   -6.8550   18.8760 N.am   63  GLN63      -0.0878
     82  N         26.0800   -2.3910   18.6510 N.am   64  ASN64      -0.1972
     83  CA        25.3920   -1.8610   19.8290 C.3    64  ASN64       0.1688
     84  C         23.9900   -1.3100   19.5800 C.2    64  ASN64       0.2292
     85  O         23.3630   -0.7790   20.5030 O.2    64  ASN64      -0.2864
     86  CB        26.2300   -0.7490   20.4630 C.3    64  ASN64       0.1181
     87  CG        26.4580    0.4150   19.5130 C.2    64  ASN64       0.2629
     88  OD1       27.0530    0.2520   18.4500 O.2    64  ASN64      -0.2716
     89  ND2       25.9800    1.5950   19.8920 N.am   64  ASN64      -0.0877
     90  N         22.0070   -4.7150    1.3510 N.3    85  THR85      -0.1218
     91  CA        23.4380   -4.9810    1.3380 C.3    85  THR85       0.1862
     92  C         23.8040   -6.2980    2.0010 C.2    85  THR85       0.2287
     93  O         23.0030   -6.8950    2.7170 O.2    85  THR85      -0.2866
     94  CB        24.2160   -3.9000    2.1000 C.3    85  THR85       0.1770
     95  OG1       23.9400   -4.0360    3.4990 O.3    85  THR85      -0.2211
     96  CG2       23.8220   -2.5060    1.6270 C.3    85  THR85       0.0375
     97  N         34.1680   -4.0790    4.1340 N.3    92  LYS92      -0.1231
     98  CA        33.5910   -3.0410    4.9850 C.3    92  LYS92       0.1693
     99  C         32.2220   -3.4690    5.4950 C.2    92  LYS92       0.2593
    100  O         31.3670   -3.9040    4.7240 O.2    92  LYS92      -0.2718
    101  CB        33.4740   -1.7150    4.2200 C.3    92  LYS92       0.0285
    102  CG        34.8070   -1.0210    3.9570 C.3    92  LYS92       0.0035
    103  CD        35.4970   -0.6210    5.2640 C.3    92  LYS92       0.0206
    104  CE        36.9380   -0.1800    5.0360 C.3    92  LYS92       0.1093
    105  NZ        37.0500    1.0070    4.1420 N.3    92  LYS92      -0.1314
    106  N         32.0270   -3.3420    6.8030 N.am   93  SER93      -0.1938
    107  CA        30.7690   -3.7170    7.4380 C.3    93  SER93       0.2055
    108  C         29.6700   -2.7120    7.1260 C.2    93  SER93       0.2642
    109  O         29.8460   -1.5080    7.3220 O.2    93  SER93      -0.2714
    110  CB        30.9540   -3.8130    8.9540 C.3    93  SER93       0.2130
    111  OG        29.7260   -4.0910    9.6000 O.3    93  SER93      -0.2179
    112  N         28.5380   -3.2110    6.6390 N.am   94  LYS94      -0.1977
    113  CA        27.4070   -2.3480    6.3120 C.3    94  LYS94       0.1596
    114  C         26.2230   -2.6430    7.2280 C.2    94  LYS94       0.2287
    115  O         25.3080   -1.8350    7.3790 O.2    94  LYS94      -0.2864
    116  CB        27.0220   -2.5330    4.8460 C.3    94  LYS94       0.0298
    117  CG        28.1810   -2.2460    3.9140 C.3    94  LYS94       0.0038
    118  CD        27.7200   -1.7380    2.5610 C.3    94  LYS94       0.0206
    119  CE        28.9070   -1.2960    1.7170 C.3    94  LYS94       0.1093
    120  NZ        28.4650   -0.5670    0.4980 N.3    94  LYS94      -0.1314
    121  N         25.4660   -5.4000   10.8620 N.3    96  VAL96      -0.1245
    122  CA        25.8190   -6.5280   11.7170 C.3    96  VAL96       0.1561
    123  C         24.6790   -7.5380   11.6700 C.2    96  VAL96       0.2260
    124  O         23.5250   -7.1620   11.4500 O.2    96  VAL96      -0.2867
    125  CB        26.0440   -6.0640   13.1870 C.3    96  VAL96       0.0252
    126  CG1       26.3920   -7.2540   14.0740 C.3    96  VAL96       0.0019
    127  CG2       27.1590   -5.0180   13.2300 C.3    96  VAL96       0.0019
    128  N         20.5200    0.0380    4.2490 N.3   187  CYS187     -0.1221
    129  CA        21.7940   -0.2290    3.5890 C.3   187  CYS187      0.1808
    130  C         22.8550    0.2220    4.5960 C.2   187  CYS187      0.2602
    131  O         22.5630    0.3070    5.7930 O.2   187  CYS187     -0.2717
    132  CB        21.9120    0.5550    2.2740 C.3   187  CYS187      0.0970
    133  SG        21.6100    2.3340    2.3950 S.3   187  CYS187     -0.0800
    134  N         24.0660    0.5290    4.1430 N.am  188  SER188     -0.1938
    135  CA        25.1120    0.9240    5.0870 C.3   188  SER188      0.2055
    136  C         24.8130    2.2040    5.8680 C.2   188  SER188      0.2642
    137  O         25.0000    2.2410    7.0830 O.2   188  SER188     -0.2714
    138  CB        26.4590    1.0590    4.3740 C.3   188  SER188      0.2130
    139  OG        26.5140    2.2490    3.6150 O.3   188  SER188     -0.2179
    140  N         24.3530    3.2510    5.1880 N.am  189  ALA189     -0.1977
    141  CA        24.0450    4.5050    5.8710 C.3   189  ALA189      0.1597
    142  C         22.5550    4.8000    5.8260 C.2   189  ALA189      0.2287
    143  O         22.0840    5.7670    6.4250 O.2   189  ALA189     -0.2864
    144  CB        24.8240    5.6600    5.2410 C.3   189  ALA189      0.0319
    145  N         20.8100    5.7510    3.2060 N.3   191  ILE191     -0.1231
    146  CA        20.4590    6.8780    2.3490 C.3   191  ILE191      0.1692
    147  C         20.6730    6.6300    0.8570 C.2   191  ILE191      0.2593
    148  O         19.8050    6.9470    0.0490 O.2   191  ILE191     -0.2718
    149  CB        21.2300    8.1630    2.7400 C.3   191  ILE191      0.0266
    150  CG1       22.7250    7.9680    2.5220 C.3   191  ILE191      0.0019
    151  CG2       20.9710    8.5080    4.1940 C.3   191  ILE191      0.0020
    152  CD1       23.5190    9.2400    2.6970 C.3   191  ILE191      0.0001
    153  N         21.8210    6.0600    0.4980 N.am  192  GLY192     -0.1942
    154  CA        22.1200    5.8120   -0.9020 C.3   192  GLY192      0.2014
    155  C         21.3130    4.6980   -1.5370 C.2   192  GLY192      0.2638
    156  O         20.3360    4.9510   -2.2430 O.2   192  GLY192     -0.2714
    157  N         21.7300    3.4600   -1.2960 N.am  193  ARG193     -0.1977
    158  CA        21.0410    2.3070   -1.8490 C.3   193  ARG193      0.1597
    159  C         19.6160    2.3040   -1.2950 C.2   193  ARG193      0.2287
    160  O         18.6530    2.0560   -2.0320 O.2   193  ARG193     -0.2864
    161  CB        21.7830    1.0190   -1.4700 C.3   193  ARG193      0.0334
    162  CG        21.5020   -0.1630   -2.3920 C.3   193  ARG193      0.0492
    163  CD        22.4080   -1.3720   -2.1120 C.3   193  ARG193      0.2205
    164  NE        23.8290   -1.0600   -2.2770 N.pl3 193  ARG193     -0.0865
    165  CZ        24.8170   -1.9130   -2.0220 C.cat 193  ARG193      0.5346
    166  NH1       24.5420   -3.1370   -1.5870 N.pl3 193  ARG193      0.1354
    167  NH2       26.0820   -1.5480   -2.2020 N.pl3 193  ARG193      0.1354
    168  N         22.3000    8.9190   -3.4730 N.3   234  GLN234     -0.1245
    169  CA        23.5440    9.6810   -3.4640 C.3   234  GLN234      0.1566
    170  C         24.4120    9.7150   -4.7160 C.2   234  GLN234      0.2260
    171  O         25.2140   10.6380   -4.8680 O.2   234  GLN234     -0.2867
    172  CB        24.4140    9.2440   -2.2850 C.3   234  GLN234      0.0367
    173  CG        24.1330   10.0210   -1.0140 C.3   234  GLN234      0.0905
    174  CD        25.2120    9.8470    0.0290 C.2   234  GLN234      0.2608
    175  OE1       25.3230   10.6450    0.9570 O.2   234  GLN234     -0.2717
    176  NE2       26.0110    8.7950   -0.1100 N.am  234  GLN234     -0.0878
    177  N         22.9810    5.5770   -9.2680 N.3   238  GLN238     -0.1245
    178  CA        21.7490    5.3230   -8.5470 C.3   238  GLN238      0.1566
    179  C         20.6320    6.1470   -9.1720 C.2   238  GLN238      0.2260
    180  O         19.5580    5.6230   -9.4730 O.2   238  GLN238     -0.2867
    181  CB        21.9160    5.6970   -7.0720 C.3   238  GLN238      0.0367
    182  CG        22.6170    4.6340   -6.2500 C.3   238  GLN238      0.0905
    183  CD        23.0410    5.1330   -4.8810 C.2   238  GLN238      0.2608
    184  OE1       22.5020    6.1160   -4.3660 O.2   238  GLN238     -0.2717
    185  NE2       24.0080    4.4440   -4.2780 N.am  238  GLN238     -0.0878
@<TRIPOS>BOND
     1   180   179    2
     2   177   178    1
     3   179   178    1
     4   178   181    1
     5   181   182    1
     6   182   183    1
     7   183   184    2
     8   183   185   am
     9   171   170    2
    10   170   169    1
    11   168   169    1
    12   169   172    1
    13   162   163    1
    14   162   161    1
    15   172   173    1
    16   164   163    1
    17   164   165    2
    18   156   155    2
    19   167   165    1
    20   160   159    2
    21   165   166    1
    22   158   161    1
    23   158   157    1
    24   158   159    1
    25   155   157   am
    26   155   154    1
    27   173   174    1
    28   154   153    1
    29   176   174   am
    30   174   175    2
    31   148   147    2
    32   120   119    1
    33   153   147   am
    34   147   146    1
    35    91    90    1
    36    91    92    1
    37    91    94    1
    38    96    94    1
    39   119   118    1
    40    92    93    2
    41    94    95    1
    42   132   133    1
    43   132   129    1
    44   146   149    1
    45   146   145    1
    46   150   152    1
    47   150   149    1
    48   118   117    1
    49   149   151    1
    50   129   128    1
    51   129   130    1
    52   139   138    1
    53   117   116    1
    54   102   101    1
    55   102   103    1
    56    97    98    1
    57   105   104    1
    58   134   130   am
    59   134   135    1
    60   101    98    1
    61   138   135    1
    62   130   131    2
    63   100    99    2
    64   116   113    1
    65    98    99    1
    66   104   103    1
    67   135   136    1
    68   140   136   am
    69   140   141    1
    70   144   141    1
    71    99   106   am
    72    64    62    1
    73    39    38    1
    74   142   141    1
    75   142   143    2
    76   136   137    2
    77   113   112    1
    78   113   114    1
    79    56    54   am
    80    38    37   ar
    81    38    36   ar
    82    62    61    1
    83   112   108   am
    84   106   107    1
    85    37    35   ar
    86    36    34   ar
    87    63    61    1
    88   108   109    2
    89   108   107    1
    90   114   115    2
    91   107   110    1
    92    35    33   ar
    93    61    58    1
    94    34    33   ar
    95    54    55    2
    96    54    53    1
    97    33    32    1
    98    52    51    2
    99    58    57    1
   100    58    59    1
   101    53    50    1
   102    32    29    1
   103    51    57   am
   104    51    50    1
   105    23    24    1
   106    23    22    1
   107   110   111    1
   108    59    60    2
   109    50    49    1
   110    24    25    2
   111    22    21    1
   112    26    25    1
   113    25    27    1
   114    29    28    1
   115    29    30    1
   116    49    42   am
   117    21    18    1
   118    20    19    2
   119    28    19   am
   120   121   122    1
   121    31    30    2
   122    19    18    1
   123    30    40   am
   124   124   123    2
   125    18    17    1
   126   123   122    1
   127    42    43    2
   128    42    41    1
   129   122   125    1
   130    40    41    1
   131    45    46    1
   132    45    44    1
   133    17    11   am
   134    41    44    1
   135    46    47    1
   136   125   127    1
   137   125   126    1
   138    72    70    1
   139    11    12    2
   140    11    10    1
   141    47    48    1
   142    65    66    1
   143    13    10    1
   144    13    14    1
   145    70    71    1
   146    70    69    1
   147    10     9    1
   148    66    69    1
   149    66    67    1
   150    15    14    2
   151    14    16   am
   152    67    68    2
   153    67    73   am
   154    73    74    1
   155    74    77    1
   156    74    75    1
   157    77    78    1
   158     4     3    2
   159    75    82   am
   160    75    76    2
   161     3     2    1
   162    88    87    2
   163    78    79    1
   164    82    83    1
   165    81    79   am
   166    79    80    2
   167     2     1    1
   168     2     5    1
   169    87    89   am
   170    87    86    1
   171    84    83    1
   172    84    85    2
   173    83    86    1
   174     5     6    1
   175     6     7    2
   176     6     8   am
