@<TRIPOS>MOLECULE
tmp/3mozB00.pdb
 188 180 0 0 0
SMALL
GASTEIGER

@<TRIPOS>ATOM
      1  N        -13.9100  -30.4900   23.2350 N.3    24  ARG24      -0.1245
      2  CA       -14.1700  -30.9600   21.8880 C.3    24  ARG24       0.1563
      3  C        -15.6800  -31.0900   21.6420 C.2    24  ARG24       0.2260
      4  O        -16.4100  -31.5940   22.5090 O.2    24  ARG24      -0.2867
      5  CB       -13.5010  -32.3370   21.7140 C.3    24  ARG24       0.0307
      6  CG       -13.8520  -33.0460   20.4260 C.3    24  ARG24       0.0489
      7  CD       -13.3520  -34.4910   20.4900 C.3    24  ARG24       0.2205
      8  NE       -13.4200  -35.1190   19.1810 N.pl3  24  ARG24      -0.0865
      9  CZ       -13.0750  -36.3810   18.9650 C.cat  24  ARG24       0.5346
     10  NH1      -12.6640  -37.1310   19.9840 N.pl3  24  ARG24       0.1354
     11  NH2      -13.1150  -36.8740   17.7400 N.pl3  24  ARG24       0.1354
     12  N        -24.3170  -40.5970   14.8150 N.3    35  ARG35      -0.1245
     13  CA       -23.6300  -41.3070   13.7360 C.3    35  ARG35       0.1563
     14  C        -23.4530  -42.7960   14.0530 C.2    35  ARG35       0.2260
     15  O        -23.4060  -43.1910   15.2240 O.2    35  ARG35      -0.2867
     16  CB       -22.2600  -40.6550   13.4950 C.3    35  ARG35       0.0307
     17  CG       -21.5090  -41.1550   12.2750 C.3    35  ARG35       0.0489
     18  CD       -20.4540  -40.1360   11.8600 C.3    35  ARG35       0.2205
     19  NE       -19.4360  -39.9450   12.8890 N.pl3  35  ARG35      -0.0865
     20  CZ       -18.3560  -40.7100   13.0220 C.cat  35  ARG35       0.5346
     21  NH1      -18.1530  -41.7190   12.1860 N.pl3  35  ARG35       0.1354
     22  NH2      -17.4790  -40.4660   13.9870 N.pl3  35  ARG35       0.1354
     23  N        -11.8050  -52.6560    3.7050 N.3    50  LYS50      -0.1245
     24  CA       -10.5850  -52.6530    4.5070 C.3    50  LYS50       0.1561
     25  C        -10.4030  -53.8820    5.3770 C.2    50  LYS50       0.2260
     26  O         -9.2770  -54.1710    5.7900 O.2    50  LYS50      -0.2867
     27  CB       -10.5140  -51.4050    5.3780 C.3    50  LYS50       0.0271
     28  CG       -11.5970  -51.2990    6.4370 C.3    50  LYS50       0.0035
     29  CD       -11.5000  -49.9240    7.0640 C.3    50  LYS50       0.0206
     30  CE       -12.5220  -49.7260    8.1510 C.3    50  LYS50       0.1093
     31  NZ       -12.3910  -48.3560    8.7180 N.3    50  LYS50      -0.1314
     32  N        -10.8770  -33.1030   25.8600 N.3   116  TYR116     -0.1241
     33  CA       -10.0050  -33.8580   24.9820 C.3   116  TYR116      0.1605
     34  C         -8.5260  -33.6150   25.1740 C.2   116  TYR116      0.2264
     35  O         -8.0870  -32.4670   25.1720 O.2   116  TYR116     -0.2867
     36  CB       -10.3740  -33.4800   23.5430 C.3   116  TYR116      0.0534
     37  CG        -9.5920  -34.2120   22.5010 C.ar  116  TYR116     -0.0201
     38  CD1       -9.9630  -35.4870   22.1110 C.ar  116  TYR116     -0.0009
     39  CD2       -8.4380  -33.6460   21.9330 C.ar  116  TYR116     -0.0009
     40  CE1       -9.2010  -36.1990   21.1650 C.ar  116  TYR116      0.0417
     41  CE2       -7.6820  -34.3520   21.0110 C.ar  116  TYR116      0.0417
     42  CZ        -8.0710  -35.6190   20.6340 C.ar  116  TYR116      0.1957
     43  OH        -7.3110  -36.3240   19.7160 O.3   116  TYR116     -0.2866
     44  N         -5.0400  -38.2890   21.6310 N.3   119  ARG119     -0.1231
     45  CA        -5.5570  -39.6640   21.5230 C.3   119  ARG119      0.1694
     46  C         -6.8400  -39.8750   22.3200 C.2   119  ARG119      0.2592
     47  O         -7.2930  -41.0080   22.4760 O.2   119  ARG119     -0.2718
     48  CB        -4.5140  -40.6970   21.9970 C.3   119  ARG119      0.0321
     49  CG        -3.2160  -40.6800   21.1820 C.3   119  ARG119      0.0489
     50  CD        -2.3020  -41.8350   21.5730 C.3   119  ARG119      0.2205
     51  NE        -0.9730  -41.6930   20.9650 N.pl3 119  ARG119     -0.0865
     52  CZ         0.0330  -42.5320   21.1960 C.cat 119  ARG119      0.5346
     53  NH1       -0.1280  -43.5620   22.0130 N.pl3 119  ARG119      0.1354
     54  NH2        1.2020  -42.3380   20.5940 N.pl3 119  ARG119      0.1354
     55  N         -7.4310  -38.7840   22.8050 N.am  120  ASP120     -0.1974
     56  CA        -8.6390  -38.8430   23.6470 C.3   120  ASP120      0.1709
     57  C         -8.2860  -39.5770   24.9540 C.2   120  ASP120      0.2293
     58  O         -9.1150  -40.2680   25.5400 O.2   120  ASP120     -0.2864
     59  CB        -9.7920  -39.5690   22.9160 C.3   120  ASP120      0.1436
     60  CG       -11.1510  -39.2840   23.5320 C.2   120  ASP120      0.3671
     61  OD1      -11.2810  -38.3420   24.3530 O.co2 120  ASP120     -0.2456
     62  OD2      -12.1260  -40.0040   23.1800 O.co2 120  ASP120     -0.2456
     63  N         -5.9010  -33.3960   14.1310 N.3   156  LYS156     -0.1245
     64  CA        -6.6200  -33.7460   15.3450 C.3   156  LYS156      0.1561
     65  C         -6.5050  -32.5800   16.3250 C.2   156  LYS156      0.2260
     66  O         -6.4360  -32.7730   17.5350 O.2   156  LYS156     -0.2867
     67  CB        -6.0430  -35.0150   15.9910 C.3   156  LYS156      0.0271
     68  CG        -6.6470  -36.3020   15.4690 C.3   156  LYS156      0.0035
     69  CD        -8.0820  -36.4250   15.9520 C.3   156  LYS156      0.0206
     70  CE        -8.6640  -37.7850   15.6290 C.3   156  LYS156      0.1093
     71  NZ        -9.8620  -38.0650   16.4680 N.3   156  LYS156     -0.1314
     72  N        -10.5150  -44.7410   25.0950 N.3   190  ASP190     -0.1225
     73  CA       -10.6650  -44.7240   23.6420 C.3   190  ASP190      0.1805
     74  C         -9.5050  -45.4630   22.9570 C.2   190  ASP190      0.2597
     75  O         -8.3600  -45.3940   23.4060 O.2   190  ASP190     -0.2718
     76  CB       -10.6880  -43.2510   23.1660 C.3   190  ASP190      0.1424
     77  CG       -11.3750  -43.0480   21.8150 C.2   190  ASP190      0.3668
     78  OD1      -11.6680  -44.0290   21.0980 O.co2 190  ASP190     -0.2456
     79  OD2      -11.6310  -41.8600   21.4650 O.co2 190  ASP190     -0.2456
     80  N         -9.8310  -46.1930   21.8940 N.am  191  HIS191     -0.1975
     81  CA        -8.8540  -46.8720   21.0390 C.3   191  HIS191      0.1656
     82  C         -8.2300  -48.1600   21.5090 C.2   191  HIS191      0.2291
     83  O         -7.4570  -48.7720   20.7510 O.2   191  HIS191     -0.2864
     84  CB        -7.6820  -45.9220   20.7010 C.3   191  HIS191      0.0771
     85  CG        -8.1070  -44.5700   20.2300 C.ar  191  HIS191      0.0820
     86  ND1       -8.8500  -44.3750   19.0820 N.ar  191  HIS191     -0.2267
     87  CD2       -7.8990  -43.3370   20.7620 C.ar  191  HIS191      0.1154
     88  CE1       -9.0890  -43.0770   18.9350 C.ar  191  HIS191      0.1986
     89  NE2       -8.5230  -42.4300   19.9400 N.ar  191  HIS191     -0.2212
     90  N        -17.6130  -42.3410   21.8080 N.3   220  GLU220     -0.1231
     91  CA       -17.5160  -41.0960   21.0640 C.3   220  GLU220      0.1699
     92  C        -17.8970  -41.2620   19.5900 C.2   220  GLU220      0.2592
     93  O        -18.7790  -40.5590   19.1020 O.2   220  GLU220     -0.2718
     94  CB       -16.0890  -40.5250   21.1930 C.3   220  GLU220      0.0402
     95  CG       -15.7990  -39.2690   20.3390 C.3   220  GLU220      0.1161
     96  CD       -16.5070  -38.0000   20.8330 C.2   220  GLU220      0.3649
     97  OE1      -17.6360  -38.0860   21.3620 O.co2 220  GLU220     -0.2457
     98  OE2      -15.9260  -36.8970   20.6700 O.co2 220  GLU220     -0.2457
     99  N        -17.2520  -42.1980   18.8940 N.am  221  ALA221     -0.1980
    100  CA       -17.4830  -42.4010   17.4610 C.3   221  ALA221      0.1597
    101  C        -18.4790  -43.4940   17.1080 C.2   221  ALA221      0.2287
    102  O        -19.0280  -43.4920   15.9950 O.2   221  ALA221     -0.2864
    103  CB       -16.1320  -42.6890   16.7690 C.3   221  ALA221      0.0319
    104  N        -17.5870  -46.7430   17.2170 N.3   223  VAL223     -0.1231
    105  CA       -16.8010  -47.7670   16.5340 C.3   223  VAL223      0.1692
    106  C        -16.1040  -48.7620   17.4680 C.2   223  VAL223      0.2593
    107  O        -16.6630  -49.8100   17.7550 O.2   223  VAL223     -0.2718
    108  CB       -15.7440  -47.1080   15.5730 C.3   223  VAL223      0.0266
    109  CG1      -14.9860  -48.1930   14.7810 C.3   223  VAL223      0.0020
    110  CG2      -16.4440  -46.1700   14.6020 C.3   223  VAL223      0.0020
    111  N        -14.9260  -48.4200   17.9930 N.am  224  GLY224     -0.1942
    112  CA       -14.1610  -49.3700   18.7940 C.3   224  GLY224      0.2014
    113  C        -14.7470  -49.8850   20.1090 C.2   224  GLY224      0.2638
    114  O        -15.0030  -51.0970   20.2600 O.2   224  GLY224     -0.2714
    115  N        -14.9770  -48.9890   21.0600 N.am  225  ARG225     -0.1977
    116  CA       -15.5040  -49.4160   22.3560 C.3   225  ARG225      0.1597
    117  C        -16.9450  -49.8630   22.1700 C.2   225  ARG225      0.2287
    118  O        -17.3930  -50.8800   22.7350 O.2   225  ARG225     -0.2864
    119  CB       -15.4600  -48.2660   23.3570 C.3   225  ARG225      0.0334
    120  CG       -14.0500  -47.9170   23.7820 C.3   225  ARG225      0.0492
    121  CD       -14.0060  -46.5970   24.5380 C.3   225  ARG225      0.2205
    122  NE       -14.2080  -45.4670   23.6300 N.pl3 225  ARG225     -0.0865
    123  CZ       -14.1620  -44.1940   24.0140 C.cat 225  ARG225      0.5346
    124  NH1      -13.9170  -43.8920   25.2910 N.pl3 225  ARG225      0.1354
    125  NH2      -14.3690  -43.2280   23.1200 N.pl3 225  ARG225      0.1354
    126  N        -17.5930  -52.1220   13.9620 N.3   256  PHE256     -0.1241
    127  CA       -16.2260  -52.4780   13.5960 C.3   256  PHE256      0.1605
    128  C        -16.1690  -54.0040   13.3770 C.2   256  PHE256      0.2264
    129  O        -17.0480  -54.7350   13.8240 O.2   256  PHE256     -0.2867
    130  CB       -15.2950  -52.0930   14.7620 C.3   256  PHE256      0.0534
    131  CG       -13.8240  -52.1840   14.4430 C.ar  256  PHE256     -0.0203
    132  CD1      -13.0340  -53.1820   15.0270 C.ar  256  PHE256     -0.0042
    133  CD2      -13.2210  -51.2550   13.6080 C.ar  256  PHE256     -0.0042
    134  CE1      -11.6510  -53.2500   14.7780 C.ar  256  PHE256     -0.0003
    135  CE2      -11.8480  -51.3120   13.3540 C.ar  256  PHE256     -0.0003
    136  CZ       -11.0680  -52.3040   13.9360 C.ar  256  PHE256     -0.0000
    137  N         -0.6770  -42.4530   12.4000 N.3   269  ASP269     -0.1239
    138  CA        -1.4780  -43.2740   13.3080 C.3   269  ASP269      0.1674
    139  C         -0.8260  -44.6220   13.5910 C.2   269  ASP269      0.2266
    140  O         -1.5020  -45.5410   14.0560 O.2   269  ASP269     -0.2867
    141  CB        -2.8600  -43.5470   12.7070 C.3   269  ASP269      0.1410
    142  CG        -3.7420  -42.3120   12.6610 C.2   269  ASP269      0.3668
    143  OD1       -4.8110  -42.3880   12.0210 O.co2 269  ASP269     -0.2456
    144  OD2       -3.3790  -41.2780   13.2660 O.co2 269  ASP269     -0.2456
    145  N          0.8840  -45.6380   15.9380 N.3   271  TRP271     -0.1227
    146  CA         0.7830  -46.0520   17.3370 C.3   271  TRP271      0.1737
    147  C         -0.4140  -46.9770   17.5550 C.2   271  TRP271      0.2595
    148  O         -0.4410  -47.7540   18.5090 O.2   271  TRP271     -0.2718
    149  CB         0.6370  -44.8420   18.2780 C.3   271  TRP271      0.0564
    150  CG        -0.6260  -44.0210   18.0770 C.ar  271  TRP271      0.0003
    151  CD1       -0.7950  -42.9490   17.2560 C.ar  271  TRP271      0.0946
    152  CD2       -1.8780  -44.2330   18.7310 C.ar  271  TRP271      0.0152
    153  NE1       -2.0910  -42.4690   17.3580 N.ar  271  TRP271     -0.2442
    154  CE2       -2.7730  -43.2440   18.2590 C.ar  271  TRP271      0.0810
    155  CE3       -2.3290  -45.1640   19.6760 C.ar  271  TRP271      0.0012
    156  CZ2       -4.1010  -43.1620   18.7050 C.ar  271  TRP271      0.0191
    157  CZ3       -3.6460  -45.0790   20.1170 C.ar  271  TRP271      0.0001
    158  CH2       -4.5100  -44.0840   19.6290 C.ar  271  TRP271      0.0015
    159  N         -1.4040  -46.8820   16.6800 N.am  272  LYS272     -0.1980
    160  CA        -2.6070  -47.7040   16.8320 C.3   272  LYS272      0.1596
    161  C         -2.4320  -49.1730   16.4900 C.2   272  LYS272      0.2287
    162  O         -3.1670  -50.0320   16.9940 O.2   272  LYS272     -0.2864
    163  CB        -3.7450  -47.1290   15.9740 C.3   272  LYS272      0.0298
    164  CG        -4.1180  -45.6920   16.3020 C.3   272  LYS272      0.0038
    165  CD        -5.3570  -45.2110   15.5290 C.3   272  LYS272      0.0206
    166  CE        -6.6410  -45.7400   16.1690 C.3   272  LYS272      0.1093
    167  NZ        -7.8730  -45.1880   15.5060 N.3   272  LYS272     -0.1314
    168  N         -4.7460  -52.4820   17.8140 N.3   276  TYR276     -0.1241
    169  CA        -5.6720  -53.2760   16.9750 C.3   276  TYR276      0.1605
    170  C         -5.3120  -54.7600   17.0900 C.2   276  TYR276      0.2264
    171  O         -6.1980  -55.6120   17.1540 O.2   276  TYR276     -0.2867
    172  CB        -5.5740  -52.9020   15.4900 C.3   276  TYR276      0.0534
    173  CG        -6.2260  -51.5950   15.1420 C.ar  276  TYR276     -0.0201
    174  CD1       -7.6040  -51.4000   15.3200 C.ar  276  TYR276     -0.0009
    175  CD2       -5.4700  -50.5470   14.5890 C.ar  276  TYR276     -0.0009
    176  CE1       -8.2170  -50.1870   14.9470 C.ar  276  TYR276      0.0417
    177  CE2       -6.0740  -49.3500   14.2150 C.ar  276  TYR276      0.0417
    178  CZ        -7.4320  -49.1740   14.3890 C.ar  276  TYR276      0.1957
    179  OH        -7.9930  -47.9820   13.9740 O.3   276  TYR276     -0.2866
    180  N         -6.5840  -56.0550   20.3700 N.3   279  LYS279     -0.1245
    181  CA        -8.0360  -56.2900   20.4020 C.3   279  LYS279      0.1561
    182  C         -8.4190  -57.6060   19.7340 C.2   279  LYS279      0.2260
    183  O         -9.3030  -58.3210   20.2100 O.2   279  LYS279     -0.2867
    184  CB        -8.7920  -55.1630   19.7160 C.3   279  LYS279      0.0271
    185  CG        -8.7870  -53.8640   20.4470 C.3   279  LYS279      0.0035
    186  CD        -9.3010  -52.8020   19.4540 C.3   279  LYS279      0.0206
    187  CE        -9.5240  -51.5020   20.0950 C.3   279  LYS279      0.1093
    188  NZ       -10.0660  -50.5280   19.1000 N.3   279  LYS279     -0.1314
@<TRIPOS>BOND
     1    23    24    1
     2    24    25    1
     3    24    27    1
     4    25    26    2
     5    27    28    1
     6    28    29    1
     7    29    30    1
     8    30    31    1
     9    18    17    1
    10    18    19    1
    11   143   142   ar
    12    21    20    1
    13    17    16    1
    14   137   138    1
    15   142   141    1
    16   142   144   ar
    17   141   138    1
    18    19    20    2
    19    20    22    1
    20   138   139    1
    21   135   133   ar
    22   135   136   ar
    23   128   127    1
    24   128   129    2
    25    16    13    1
    26   139   140    2
    27   127   126    1
    28   127   130    1
    29   133   131   ar
    30    13    14    1
    31    13    12    1
    32   136   134   ar
    33   179   178    1
    34    14    15    2
    35    63    64    1
    36   177   178   ar
    37   177   175   ar
    38   178   176   ar
    39   131   130    1
    40   131   132   ar
    41   175   173   ar
    42   110   108    1
    43   134   132   ar
    44   109   108    1
    45   176   174   ar
    46   173   174   ar
    47   173   172    1
    48    64    67    1
    49    64    65    1
    50    68    69    1
    51    68    67    1
    52   172   169    1
    53   167   166    1
    54   165   166    1
    55   165   164    1
    56   108   105    1
    57    70    69    1
    58    70    71    1
    59   145   146    1
    60   163   164    1
    61   163   160    1
    62   102   101    2
    63    65    66    2
    64   161   160    1
    65   161   162    2
    66   105   104    1
    67   105   106    1
    68   159   160    1
    69   159   147   am
    70   103   100    1
    71   169   170    1
    72   169   168    1
    73   170   171    2
    74   101   100    1
    75   151   153   ar
    76   151   150   ar
    77   146   147    1
    78   146   149    1
    79   153   154   ar
    80   100    99    1
    81   106   107    2
    82   106   111   am
    83   147   148    2
    84    11     9    1
    85   111   112    1
    86   150   149    1
    87   150   152   ar
    88   154   156   ar
    89   154   152   ar
    90   156   158   ar
    91   152   155   ar
    92   112   113    1
    93    99    92   am
    94    88    86   ar
    95    88    89   ar
    96     9     8    2
    97     9    10    1
    98    86    85   ar
    99   188   187    1
   100    93    92    2
   101     8     7    1
   102   186   187    1
   103   186   185    1
   104    92    91    1
   105   158   157   ar
   106   155   157   ar
   107    43    42    1
   108   184   181    1
   109   184   185    1
   110   182   183    2
   111   182   181    1
   112    89    87   ar
   113   113   114    2
   114   113   115   am
   115    85    84    1
   116    85    87   ar
   117    95    96    1
   118    95    94    1
   119   180   181    1
   120     6     7    1
   121     6     5    1
   122    54    52    1
   123    42    41   ar
   124    42    40   ar
   125    98    96   ar
   126    84    81    1
   127    83    82    2
   128    96    97   ar
   129    51    52    2
   130    51    50    1
   131    41    39   ar
   132    81    82    1
   133    81    80    1
   134   115   116    1
   135    91    94    1
   136    91    90    1
   137    78    77   ar
   138    40    38   ar
   139    49    50    1
   140    49    48    1
   141    52    53    1
   142    79    77   ar
   143    45    44    1
   144    45    48    1
   145    45    46    1
   146     3     2    1
   147     3     4    2
   148     5     2    1
   149    77    76    1
   150     2     1    1
   151    80    74   am
   152    39    37   ar
   153    38    37   ar
   154   117   116    1
   155   117   118    2
   156    46    47    2
   157    46    55   am
   158   116   119    1
   159    37    36    1
   160    55    56    1
   161    59    60    1
   162    59    56    1
   163    74    75    2
   164    74    73    1
   165   125   123    1
   166    76    73    1
   167    62    60   ar
   168   119   120    1
   169    60    61   ar
   170    36    33    1
   171   122   123    2
   172   122   121    1
   173    73    72    1
   174    56    57    1
   175   120   121    1
   176   123   124    1
   177    57    58    2
   178    33    34    1
   179    33    32    1
   180    35    34    2
