@<TRIPOS>MOLECULE
tmp/3mp1A00.pdb
 143 140 0 0 0
SMALL
GASTEIGER

@<TRIPOS>ATOM
      1  N        -17.5990    0.2000   28.9570 N.3   402  GLU402     -0.1245
      2  CA       -16.9340    1.3030   28.2830 C.3   402  GLU402      0.1567
      3  C        -16.1950    0.9420   27.0030 C.2   402  GLU402      0.2260
      4  O        -15.4820   -0.0530   26.9280 O.2   402  GLU402     -0.2867
      5  CB       -15.9430    1.9710   29.2320 C.3   402  GLU402      0.0388
      6  CG       -16.5640    2.5840   30.4650 C.3   402  GLU402      0.1160
      7  CD       -15.5240    3.1720   31.3950 C.2   402  GLU402      0.3649
      8  OE1      -14.6670    3.9470   30.9170 O.co2 402  GLU402     -0.2457
      9  OE2      -15.5660    2.8600   32.6040 O.co2 402  GLU402     -0.2457
     10  N        -13.7120    2.8480   24.0940 N.3   404  ILE404     -0.1231
     11  CA       -12.9330    4.0570   23.9110 C.3   404  ILE404      0.1692
     12  C        -12.7970    4.3920   22.4390 C.2   404  ILE404      0.2591
     13  O        -12.8090    3.5010   21.5950 O.2   404  ILE404     -0.2718
     14  CB       -11.5400    3.9100   24.5400 C.3   404  ILE404      0.0266
     15  CG1      -10.8500    2.6660   23.9930 C.3   404  ILE404      0.0019
     16  CG2      -11.6630    3.8240   26.0490 C.3   404  ILE404      0.0020
     17  CD1       -9.3990    2.5670   24.3950 C.3   404  ILE404      0.0001
     18  N        -12.6840    5.6780   22.1300 N.am  405  GLN405     -0.1979
     19  CA       -12.5400    6.1080   20.7440 C.3   405  GLN405      0.1601
     20  C        -11.0980    5.9480   20.2900 C.2   405  GLN405      0.2287
     21  O        -10.1700    6.3790   20.9730 O.2   405  GLN405     -0.2864
     22  CB       -12.9650    7.5640   20.5910 C.3   405  GLN405      0.0394
     23  CG       -12.9470    8.0560   19.1630 C.3   405  GLN405      0.0908
     24  CD       -13.5200    9.4540   19.0240 C.2   405  GLN405      0.2608
     25  OE1      -14.6890    9.6930   19.3350 O.2   405  GLN405     -0.2717
     26  NE2      -12.7000   10.3880   18.5550 N.am  405  GLN405     -0.0878
     27  N         -5.4110    4.9130   20.7830 N.3   422  ASP422     -0.1239
     28  CA        -6.1770    5.8960   21.5530 C.3   422  ASP422      0.1674
     29  C         -5.3540    7.1850   21.4580 C.2   422  ASP422      0.2266
     30  O         -4.2380    7.2460   21.9620 O.2   422  ASP422     -0.2867
     31  CB        -6.2740    5.4460   23.0130 C.3   422  ASP422      0.1410
     32  CG        -7.1660    6.3490   23.8550 C.2   422  ASP422      0.3668
     33  OD1       -7.0920    7.5900   23.7060 O.co2 422  ASP422     -0.2456
     34  OD2       -7.9350    5.8130   24.6820 O.co2 422  ASP422     -0.2456
     35  N         -5.4380    9.9470   23.1000 N.3   424  GLU424     -0.1231
     36  CA        -5.0930   10.6460   24.3340 C.3   424  GLU424      0.1684
     37  C         -3.8490   10.0080   24.9510 C.2   424  GLU424      0.2434
     38  O         -3.7560    8.7880   25.0600 O.2   424  GLU424     -0.2733
     39  CB        -6.2660   10.6430   25.3240 C.3   424  GLU424      0.0402
     40  CG        -7.3100   11.7480   25.0550 C.3   424  GLU424      0.1161
     41  CD        -6.8510   13.1320   25.4920 C.2   424  GLU424      0.3649
     42  OE1       -5.7440   13.5550   25.0930 O.co2 424  GLU424     -0.2457
     43  OE2       -7.6080   13.8000   26.2350 O.co2 424  GLU424     -0.2457
     44  N         -2.8660   10.8430   25.3440 N.am  425  PRO425     -0.2729
     45  CA        -1.5770   10.4810   25.9570 C.3   425  PRO425      0.1401
     46  C         -1.6760    9.4290   27.0490 C.2   425  PRO425      0.2269
     47  O         -2.4490    9.5660   27.9920 O.2   425  PRO425     -0.2865
     48  CB        -1.0460   11.8230   26.4810 C.3   425  PRO425      0.0296
     49  CG        -2.3050   12.6410   26.7020 C.3   425  PRO425      0.0237
     50  CD        -3.0980   12.2940   25.4620 C.3   425  PRO425      0.0939
     51  N        -20.0130   10.4160   25.7450 N.3   464  TYR464     -0.1241
     52  CA       -20.4480   11.3540   26.7700 C.3   464  TYR464      0.1605
     53  C        -19.7400   12.6990   26.6500 C.2   464  TYR464      0.2264
     54  O        -18.5490   12.7460   26.3690 O.2   464  TYR464     -0.2867
     55  CB       -20.1770   10.7590   28.1540 C.3   464  TYR464      0.0534
     56  CG       -20.9850   11.3990   29.2480 C.ar  464  TYR464     -0.0201
     57  CD1      -22.2840   10.9750   29.5220 C.ar  464  TYR464     -0.0009
     58  CD2      -20.4710   12.4620   29.9830 C.ar  464  TYR464     -0.0009
     59  CE1      -23.0580   11.5990   30.4960 C.ar  464  TYR464      0.0417
     60  CE2      -21.2310   13.0940   30.9520 C.ar  464  TYR464      0.0417
     61  CZ       -22.5250   12.6610   31.2090 C.ar  464  TYR464      0.1957
     62  OH       -23.2870   13.3230   32.1550 O.3   464  TYR464     -0.2866
     63  N        -17.6010   15.8870   26.9380 N.3   466  GLU466     -0.1231
     64  CA       -16.2950   16.1080   27.5500 C.3   466  GLU466      0.1699
     65  C        -15.5060   14.8090   27.8200 C.2   466  GLU466      0.2593
     66  O        -14.6570   14.7680   28.7130 O.2   466  GLU466     -0.2718
     67  CB       -16.4440   16.9150   28.8530 C.3   466  GLU466      0.0402
     68  CG       -17.0280   18.3270   28.6860 C.3   466  GLU466      0.1161
     69  CD       -17.0030   19.1330   29.9880 C.2   466  GLU466      0.3649
     70  OE1      -16.7700   18.5350   31.0630 O.co2 466  GLU466     -0.2457
     71  OE2      -17.2220   20.3630   29.9380 O.co2 466  GLU466     -0.2457
     72  N        -15.7870   13.7480   27.0680 N.am  467  THR467     -0.1939
     73  CA       -15.0510   12.4970   27.2310 C.3   467  THR467      0.2028
     74  C        -14.6980   11.9300   25.8580 C.2   467  THR467      0.2643
     75  O        -15.0740   12.4850   24.8250 O.2   467  THR467     -0.2714
     76  CB       -15.8570   11.4050   28.0090 C.3   467  THR467      0.1808
     77  OG1      -16.8730   10.8470   27.1670 O.3   467  THR467     -0.2208
     78  CG2      -16.5030   11.9900   29.2480 C.3   467  THR467      0.0379
     79  N        -13.9460   10.8340   25.8450 N.am  468  THR468     -0.1936
     80  CA       -13.5860   10.1810   24.5990 C.3   468  THR468      0.2028
     81  C        -14.1090    8.7690   24.7440 C.2   468  THR468      0.2642
     82  O        -13.7490    7.8700   23.9860 O.2   468  THR468     -0.2714
     83  CB       -12.0700   10.1290   24.3890 C.3   468  THR468      0.1808
     84  OG1      -11.4400    9.6600   25.5830 O.3   468  THR468     -0.2208
     85  CG2      -11.5370   11.4970   24.0330 C.3   468  THR468      0.0379
     86  N        -14.9740    8.5970   25.7340 N.am  469  THR469     -0.1950
     87  CA       -15.5630    7.3080   26.0450 C.3   469  THR469      0.1897
     88  C        -17.0220    7.2200   25.6130 C.2   469  THR469      0.2313
     89  O        -17.7540    8.2130   25.6400 O.2   469  THR469     -0.2863
     90  CB       -15.4940    7.0330   27.5730 C.3   469  THR469      0.1794
     91  OG1      -14.1370    7.1370   28.0240 O.3   469  THR469     -0.2208
     92  CG2      -16.0280    5.6460   27.8920 C.3   469  THR469      0.0378
     93  N        -20.5180    5.4010   26.4790 N.3   471  TYR471     -0.1228
     94  CA       -21.1880    4.7030   27.5680 C.3   471  TYR471      0.1721
     95  C        -22.5350    4.1930   27.1020 C.2   471  TYR471      0.2437
     96  O        -23.1070    4.7080   26.1420 O.2   471  TYR471     -0.2733
     97  CB       -21.3980    5.6470   28.7590 C.3   471  TYR471      0.0547
     98  CG       -20.1270    6.1230   29.4300 C.ar  471  TYR471     -0.0200
     99  CD1      -19.4570    5.3190   30.3500 C.ar  471  TYR471     -0.0009
    100  CD2      -19.5880    7.3750   29.1370 C.ar  471  TYR471     -0.0009
    101  CE1      -18.2890    5.7510   30.9680 C.ar  471  TYR471      0.0417
    102  CE2      -18.4200    7.8190   29.7500 C.ar  471  TYR471      0.0417
    103  CZ       -17.7750    7.0010   30.6640 C.ar  471  TYR471      0.1957
    104  OH       -16.6270    7.4330   31.2860 O.3   471  TYR471     -0.2866
    105  N        -23.0620    3.1650   27.7780 N.am  472  PRO472     -0.2729
    106  CA       -24.3660    2.6290   27.3830 C.3   472  PRO472      0.1401
    107  C        -25.4240    3.7090   27.5790 C.2   472  PRO472      0.2269
    108  O        -25.3510    4.4940   28.5240 O.2   472  PRO472     -0.2865
    109  CB       -24.5500    1.4440   28.3280 C.3   472  PRO472      0.0296
    110  CG       -23.1340    1.0110   28.6070 C.3   472  PRO472      0.0237
    111  CD       -22.4460    2.3300   28.8220 C.3   472  PRO472      0.0939
    112  N        -28.5570    8.4190   29.8630 N.3   488  PHE488     -0.1227
    113  CA       -27.3770    7.5940   30.0920 C.3   488  PHE488      0.1736
    114  C        -27.5780    6.7090   31.3080 C.2   488  PHE488      0.2595
    115  O        -28.1100    7.1570   32.3270 O.2   488  PHE488     -0.2718
    116  CB       -26.1360    8.4660   30.3060 C.3   488  PHE488      0.0547
    117  CG       -25.4300    8.8300   29.0390 C.ar  488  PHE488     -0.0202
    118  CD1      -25.4670   10.1270   28.5530 C.ar  488  PHE488     -0.0042
    119  CD2      -24.7410    7.8640   28.3130 C.ar  488  PHE488     -0.0042
    120  CE1      -24.8330   10.4610   27.3550 C.ar  488  PHE488     -0.0003
    121  CE2      -24.1040    8.1820   27.1170 C.ar  488  PHE488     -0.0003
    122  CZ       -24.1490    9.4860   26.6370 C.ar  488  PHE488     -0.0000
    123  N        -27.1510    5.4530   31.2020 N.am  489  ASP489     -0.1960
    124  CA       -27.2850    4.5150   32.3100 C.3   489  ASP489      0.1840
    125  C        -26.4030    4.9090   33.4900 C.2   489  ASP489      0.2623
    126  O        -25.2650    5.3460   33.3110 O.2   489  ASP489     -0.2715
    127  CB       -26.9240    3.0940   31.8660 C.3   489  ASP489      0.1450
    128  CG       -27.9690    2.4800   30.9650 C.2   489  ASP489      0.3671
    129  OD1      -29.1690    2.6220   31.2630 O.co2 489  ASP489     -0.2456
    130  OD2      -27.5980    1.8380   29.9650 O.co2 489  ASP489     -0.2456
    131  N        -26.9460    4.7540   34.6930 N.am  490  GLY490     -0.1940
    132  CA       -26.2110    5.0750   35.9020 C.3   490  GLY490      0.2014
    133  C        -25.6350    6.4760   35.9790 C.2   490  GLY490      0.2638
    134  O        -24.4470    6.6520   36.2500 O.2   490  GLY490     -0.2714
    135  N        -26.4690    7.4800   35.7470 N.am  491  GLU491     -0.1977
    136  CA       -26.0090    8.8570   35.8120 C.3   491  GLU491      0.1602
    137  C        -25.2680    9.1500   37.1150 C.2   491  GLU491      0.2287
    138  O        -24.1570    9.6810   37.1020 O.2   491  GLU491     -0.2864
    139  CB       -27.1900    9.8130   35.6620 C.3   491  GLU491      0.0415
    140  CG       -27.2860   10.4330   34.2850 C.3   491  GLU491      0.1163
    141  CD       -25.9610   11.0390   33.8540 C.2   491  GLU491      0.3649
    142  OE1      -25.1410   11.3570   34.7470 O.co2 491  GLU491     -0.2457
    143  OE2      -25.7430   11.2060   32.6340 O.co2 491  GLU491     -0.2457
@<TRIPOS>BOND
     1    26    24   am
     2    24    23    1
     3    24    25    2
     4    23    22    1
     5    20    19    1
     6    20    21    2
     7    22    19    1
     8    19    18    1
     9    27    28    1
    10    29    28    1
    11    29    30    2
    12    28    31    1
    13    13    12    2
    14    18    12   am
    15    12    11    1
    16    31    32    1
    17    35    36    1
    18    33    32   ar
    19    32    34   ar
    20    11    10    1
    21    11    14    1
    22    82    81    2
    23    15    17    1
    24    15    14    1
    25    85    83    1
    26    36    37    1
    27    36    39    1
    28    83    80    1
    29    83    84    1
    30    14    16    1
    31    80    81    1
    32    80    79    1
    33    81    86   am
    34    75    74    2
    35    37    38    2
    36    37    44   am
    37    40    39    1
    38    40    41    1
    39    42    41   ar
    40    44    50    1
    41    44    45    1
    42    50    49    1
    43    41    43   ar
    44    88    89    2
    45    88    87    1
    46    86    87    1
    47    51    52    1
    48    79    74   am
    49    74    73    1
    50    45    48    1
    51    45    46    1
    52    87    90    1
    53    96    95    2
    54    54    53    2
    55    93    94    1
    56    48    49    1
    57   122   121   ar
    58   122   120   ar
    59    53    52    1
    60    52    55    1
    61     4     3    2
    62    63    64    1
    63     3     2    1
    64    46    47    2
    65    72    73    1
    66    72    65   am
    67    95    94    1
    68    95   105   am
    69   121   119   ar
    70    77    76    1
    71    73    76    1
    72   120   118   ar
    73   106   107    1
    74   106   105    1
    75   106   109    1
    76    64    65    1
    77    64    67    1
    78    94    97    1
    79    90    92    1
    80    90    91    1
    81   107   108    2
    82   105   111    1
    83    65    66    2
    84    76    78    1
    85    55    56    1
    86     2     1    1
    87     2     5    1
    88   119   117   ar
    89   109   110    1
    90   118   117   ar
    91   110   111    1
    92    68    67    1
    93    68    69    1
    94    97    98    1
    95   117   116    1
    96   100    98   ar
    97   100   102   ar
    98     5     6    1
    99    56    57   ar
   100    56    58   ar
   101    98    99   ar
   102    57    59   ar
   103   102   103   ar
   104   112   113    1
   105    71    69   ar
   106   130   128   ar
   107    58    60   ar
   108    69    70   ar
   109   113   116    1
   110   113   114    1
   111    99   101   ar
   112     6     7    1
   113    59    61   ar
   114   103   101   ar
   115   103   104    1
   116     8     7   ar
   117    60    61   ar
   118   128   129   ar
   119   128   127    1
   120   123   114   am
   121   123   124    1
   122    61    62    1
   123   114   115    2
   124     7     9   ar
   125   127   124    1
   126   124   125    1
   127   143   141   ar
   128   126   125    2
   129   125   131   am
   130   141   140    1
   131   141   142   ar
   132   140   139    1
   133   131   132    1
   134   139   136    1
   135   135   136    1
   136   135   133   am
   137   136   137    1
   138   132   133    1
   139   133   134    2
   140   138   137    2
