@<TRIPOS>MOLECULE
tmp/3mp3A00.pdb
 140 132 0 0 0
SMALL
GASTEIGER

@<TRIPOS>ATOM
      1  N         58.7450    3.2180   12.1640 N.3    14  ARG14      -0.1231
      2  CA        59.9920    2.7890   12.8150 C.3    14  ARG14       0.1694
      3  C         60.0680    1.2580   12.9340 C.2    14  ARG14       0.2592
      4  O         60.9140    0.6320   12.3110 O.2    14  ARG14      -0.2718
      5  CB        60.1330    3.4370   14.1960 C.3    14  ARG14       0.0321
      6  CG        61.5510    3.4120   14.7810 C.3    14  ARG14       0.0489
      7  CD        61.9550    2.0230   15.1780 C.3    14  ARG14       0.2205
      8  NE        61.0610    1.4670   16.1930 N.pl3  14  ARG14      -0.0865
      9  CZ        60.9880    0.1720   16.4880 C.cat  14  ARG14       0.5346
     10  NH1       61.7560   -0.6980   15.8440 N.pl3  14  ARG14       0.1354
     11  NH2       60.1360   -0.2540   17.4140 N.pl3  14  ARG14       0.1354
     12  N         59.1880    0.6600   13.7320 N.am   15  ASP15      -0.1974
     13  CA        59.1520   -0.7970   13.8800 C.3    15  ASP15       0.1709
     14  C         58.8050   -1.4310   12.5180 C.2    15  ASP15       0.2293
     15  O         59.4000   -2.4440   12.1110 O.2    15  ASP15      -0.2864
     16  CB        58.0960   -1.2200   14.9240 C.3    15  ASP15       0.1436
     17  CG        58.3000   -2.6620   15.4300 C.2    15  ASP15       0.3671
     18  OD1       57.3220   -3.3050   15.9020 O.co2  15  ASP15      -0.2456
     19  OD2       59.4500   -3.1540   15.3710 O.co2  15  ASP15      -0.2456
     20  N         61.6060   -0.2550    9.5780 N.3    18  GLN18      -0.1231
     21  CA        62.9160   -0.8080    9.9160 C.3    18  GLN18       0.1698
     22  C         63.0480   -2.2640    9.5070 C.2    18  GLN18       0.2592
     23  O         64.1020   -2.7010    9.0350 O.2    18  GLN18      -0.2718
     24  CB        63.1810   -0.7030   11.4090 C.3    18  GLN18       0.0381
     25  CG        64.5530   -1.2120   11.7850 C.3    18  GLN18       0.0905
     26  CD        64.7810   -1.2090   13.2730 C.2    18  GLN18       0.2608
     27  OE1       64.2040   -0.4040   13.9970 O.2    18  GLN18      -0.2717
     28  NE2       65.6410   -2.0980   13.7370 N.am   18  GLN18      -0.0878
     29  N         61.9690   -3.0150    9.6840 N.am   19  ASN19      -0.1974
     30  CA        61.9850   -4.4170    9.3440 C.3    19  ASN19       0.1688
     31  C         61.3000   -4.7220    8.0330 C.2    19  ASN19       0.2292
     32  O         60.6290   -5.7460    7.8950 O.2    19  ASN19      -0.2864
     33  CB        61.3490   -5.2220   10.4640 C.3    19  ASN19       0.1181
     34  CG        62.0610   -5.0280   11.7810 C.2    19  ASN19       0.2629
     35  OD1       61.8320   -4.0410   12.4910 O.2    19  ASN19      -0.2716
     36  ND2       62.9500   -5.9560   12.1070 N.am   19  ASN19      -0.0877
     37  N         64.5220    6.1780   14.7090 N.3    48  SER48      -0.1217
     38  CA        65.3920    5.6390   15.7520 C.3    48  SER48       0.1889
     39  C         66.7760    6.2420   15.5430 C.2    48  SER48       0.2288
     40  O         67.3570    6.0960   14.4760 O.2    48  SER48      -0.2866
     41  CB        65.4530    4.1050   15.6370 C.3    48  SER48       0.2089
     42  OG        66.4270    3.5220   16.4880 O.3    48  SER48      -0.2183
     43  N         69.8610    5.6260   15.7520 N.3    50  VAL50      -0.1245
     44  CA        70.7800    4.5130   15.8510 C.3    50  VAL50       0.1561
     45  C         71.9030    4.6220   14.8090 C.2    50  VAL50       0.2260
     46  O         71.7020    5.1360   13.7040 O.2    50  VAL50      -0.2867
     47  CB        69.9980    3.2030   15.6640 C.3    50  VAL50       0.0252
     48  CG1       69.3190    3.2160   14.3160 C.3    50  VAL50       0.0019
     49  CG2       70.9110    2.0070   15.8200 C.3    50  VAL50       0.0019
     50  N         71.7120   -0.3710   11.8410 N.3    55  VAL55      -0.1245
     51  CA        70.4140   -0.3990   11.1770 C.3    55  VAL55       0.1561
     52  C         70.3310    0.7840   10.2170 C.2    55  VAL55       0.2260
     53  O         69.9860    1.9010   10.5990 O.2    55  VAL55      -0.2867
     54  CB        69.2660   -0.3970   12.2090 C.3    55  VAL55       0.0252
     55  CG1       69.6950    0.3370   13.4200 C.3    55  VAL55       0.0019
     56  CG2       68.0040    0.2090   11.6250 C.3    55  VAL55       0.0019
     57  N         63.4020    6.2560   19.0590 N.3    79  LEU79      -0.1245
     58  CA        64.1880    5.2730   19.7680 C.3    79  LEU79       0.1561
     59  C         65.5810    5.8170   19.9470 C.2    79  LEU79       0.2260
     60  O         66.1150    6.4790   19.0580 O.2    79  LEU79      -0.2867
     61  CB        64.2340    3.9620   18.9940 C.3    79  LEU79       0.0270
     62  CG        63.2290    2.8900   19.4280 C.3    79  LEU79       0.0019
     63  CD1       61.7890    3.3530   19.1940 C.3    79  LEU79       0.0001
     64  CD2       63.5170    1.6150   18.6550 C.3    79  LEU79       0.0001
     65  N         68.9110    4.0010   21.4430 N.3    81  PRO81      -0.2116
     66  CA        69.6500    2.8530   21.9700 C.3    81  PRO81       0.1372
     67  C         70.6890    3.2140   23.0170 C.2    81  PRO81       0.2244
     68  O         70.8970    2.4800   23.9780 O.2    81  PRO81      -0.2868
     69  CB        70.2890    2.2590   20.7170 C.3    81  PRO81       0.0268
     70  CG        70.5430    3.4670   19.8850 C.3    81  PRO81       0.0207
     71  CD        69.2190    4.1840   20.0150 C.3    81  PRO81       0.0892
     72  N         64.5390    0.0020   24.6980 N.3   100  PHE100     -0.1241
     73  CA        64.0610   -1.3690   24.6450 C.3   100  PHE100      0.1605
     74  C         64.9100   -2.4010   25.3760 C.2   100  PHE100      0.2264
     75  O         66.1340   -2.4140   25.2610 O.2   100  PHE100     -0.2867
     76  CB        63.8780   -1.8000   23.1850 C.3   100  PHE100      0.0534
     77  CG        65.1610   -1.9070   22.4090 C.ar  100  PHE100     -0.0203
     78  CD1       65.9420   -0.7770   22.1580 C.ar  100  PHE100     -0.0042
     79  CD2       65.5770   -3.1410   21.8960 C.ar  100  PHE100     -0.0042
     80  CE1       67.1250   -0.8670   21.4010 C.ar  100  PHE100     -0.0003
     81  CE2       66.7580   -3.2470   21.1380 C.ar  100  PHE100     -0.0003
     82  CZ        67.5320   -2.1060   20.8900 C.ar  100  PHE100     -0.0000
     83  N         60.3420   -0.5450   26.2990 N.3   140  TYR140     -0.1241
     84  CA        59.9320   -1.6990   25.4990 C.3   140  TYR140      0.1605
     85  C         60.4600   -2.9310   26.2130 C.2   140  TYR140      0.2264
     86  O         61.6230   -2.9690   26.5980 O.2   140  TYR140     -0.2867
     87  CB        60.5710   -1.6560   24.1180 C.3   140  TYR140      0.0534
     88  CG        59.6810   -1.2490   22.9650 C.ar  140  TYR140     -0.0201
     89  CD1       58.6160   -2.0400   22.5600 C.ar  140  TYR140     -0.0009
     90  CD2       59.9780   -0.1140   22.2090 C.ar  140  TYR140     -0.0009
     91  CE1       57.8730   -1.7140   21.4100 C.ar  140  TYR140      0.0417
     92  CE2       59.2480    0.2220   21.0670 C.ar  140  TYR140      0.0417
     93  CZ        58.2040   -0.5800   20.6670 C.ar  140  TYR140      0.1957
     94  OH        57.5270   -0.2690   19.5040 O.3   140  TYR140     -0.2866
     95  N         60.5010   -6.7140   25.2710 N.3   142  SER142     -0.1217
     96  CA        60.2370   -7.7810   24.3200 C.3   142  SER142      0.1889
     97  C         60.3090   -9.1650   24.9610 C.2   142  SER142      0.2288
     98  O         60.7560   -9.3120   26.1020 O.2   142  SER142     -0.2866
     99  CB        61.2340   -7.6820   23.1680 C.3   142  SER142      0.2089
    100  OG        62.5620   -7.6860   23.6520 O.3   142  SER142     -0.2183
    101  N         57.2430   -9.9650   20.7400 N.3   178  THR178     -0.1218
    102  CA        58.1980   -9.8490   19.6460 C.3   178  THR178      0.1862
    103  C         58.1280  -10.8820   18.5240 C.2   178  THR178      0.2287
    104  O         58.1480  -10.5050   17.3570 O.2   178  THR178     -0.2866
    105  CB        59.6240   -9.8280   20.2040 C.3   178  THR178      0.1770
    106  OG1       59.7310   -8.7640   21.1550 O.3   178  THR178     -0.2211
    107  CG2       60.6300   -9.6020   19.0900 C.3   178  THR178      0.0375
    108  N         52.2250   -4.8260   22.6310 N.3   206  HIS206     -0.1241
    109  CA        52.8820   -4.7720   21.3200 C.3   206  HIS206      0.1621
    110  C         52.9380   -6.2120   20.7880 C.2   206  HIS206      0.2264
    111  O         53.9110   -6.9310   21.0180 O.2   206  HIS206     -0.2867
    112  CB        54.3070   -4.2190   21.5200 C.3   206  HIS206      0.0745
    113  CG        55.0480   -3.9040   20.2550 C.ar  206  HIS206      0.0817
    114  ND1       54.9630   -2.6820   19.6220 N.ar  206  HIS206     -0.2268
    115  CD2       55.9140   -4.6430   19.5230 C.ar  206  HIS206      0.1154
    116  CE1       55.7430   -2.6810   18.5580 C.ar  206  HIS206      0.1986
    117  NE2       56.3320   -3.8600   18.4730 N.ar  206  HIS206     -0.2212
    118  N         52.9330   -9.1160   17.7190 N.3   208  HIS208     -0.1241
    119  CA        53.2300   -9.3620   16.3200 C.3   208  HIS208      0.1621
    120  C         52.3330  -10.5020   15.8570 C.2   208  HIS208      0.2264
    121  O         52.0910  -11.4580   16.6000 O.2   208  HIS208     -0.2867
    122  CB        54.7240   -9.6640   16.1350 C.3   208  HIS208      0.0745
    123  CG        55.5870   -8.4400   16.2330 C.ar  208  HIS208      0.0817
    124  ND1       56.6380   -8.1950   15.3760 N.ar  208  HIS208     -0.2268
    125  CD2       55.4880   -7.3450   17.0280 C.ar  208  HIS208      0.1154
    126  CE1       57.1380   -6.9970   15.6280 C.ar  208  HIS208      0.1986
    127  NE2       56.4570   -6.4600   16.6260 N.ar  208  HIS208     -0.2212
    128  N         59.6520   -9.7990   12.1380 N.3   239  CYS239     -0.1221
    129  CA        60.6660  -10.0530   13.1470 C.3   239  CYS239      0.1794
    130  C         61.8120  -10.8520   12.5580 C.2   239  CYS239      0.2443
    131  O         61.5990  -11.8040   11.8050 O.2   239  CYS239     -0.2733
    132  CB        60.0730  -10.8030   14.3420 C.3   239  CYS239      0.0970
    133  SG        61.0870  -10.6700   15.8420 S.3   239  CYS239     -0.0800
    134  N         63.0510  -10.4450   12.8670 N.am  240  PRO240     -0.2729
    135  CA        64.2350  -11.1370   12.3640 C.3   240  PRO240      0.1401
    136  C         64.3610  -12.5600   12.9070 C.2   240  PRO240      0.2269
    137  O         64.9190  -13.4230   12.2380 O.2   240  PRO240     -0.2865
    138  CB        65.3750  -10.2320   12.8230 C.3   240  PRO240      0.0296
    139  CG        64.7530   -8.8670   12.7570 C.3   240  PRO240      0.0237
    140  CD        63.4190   -9.1270   13.4190 C.3   240  PRO240      0.0939
@<TRIPOS>BOND
     1    32    31    2
     2    31    30    1
     3    23    22    2
     4    30    29    1
     5    30    33    1
     6    22    29   am
     7    22    21    1
     8    20    21    1
     9    21    24    1
    10    52    53    2
    11    52    51    1
    12    33    34    1
    13    51    50    1
    14    51    54    1
    15    24    25    1
    16    56    54    1
    17    34    36   am
    18    34    35    2
    19    25    26    1
    20   131   130    2
    21    15    14    2
    22   128   129    1
    23     1     2    1
    24    54    55    1
    25   137   136    2
    26     4     3    2
    27   135   138    1
    28   135   134    1
    29   135   136    1
    30    14    13    1
    31   130   134   am
    32   130   129    1
    33   139   138    1
    34   139   140    1
    35     2     3    1
    36     2     5    1
    37   134   140    1
    38     3    12   am
    39   129   132    1
    40    26    28   am
    41    26    27    2
    42    46    45    2
    43    12    13    1
    44    13    16    1
    45     5     6    1
    46    48    47    1
    47   132   133    1
    48    40    39    2
    49    37    38    1
    50     6     7    1
    51    45    44    1
    52    16    17    1
    53     7     8    1
    54    19    17   ar
    55   124   126   ar
    56   124   123   ar
    57    17    18   ar
    58    39    38    1
    59   126   127   ar
    60    41    38    1
    61    41    42    1
    62    47    49    1
    63    47    44    1
    64    43    44    1
    65    10     9    1
    66   120   119    1
    67   120   121    2
    68   122   123    1
    69   122   119    1
    70     8     9    2
    71   123   125   ar
    72   119   118    1
    73     9    11    1
    74   127   125   ar
    75   104   103    2
    76   117   116   ar
    77   117   115   ar
    78   103   102    1
    79   116   114   ar
    80    64    62    1
    81    61    62    1
    82    61    58    1
    83    60    59    2
    84    57    58    1
    85   107   105    1
    86    63    62    1
    87    94    93    1
    88   115   113   ar
    89   114   113   ar
    90   102   105    1
    91   102   101    1
    92    58    59    1
    93    70    71    1
    94    70    69    1
    95    71    65    1
    96   105   106    1
    97   113   112    1
    98    93    92   ar
    99    93    91   ar
   100    69    66    1
   101   110   111    2
   102   110   109    1
   103    82    81   ar
   104    82    80   ar
   105    92    90   ar
   106    81    79   ar
   107   109   112    1
   108   109   108    1
   109    80    78   ar
   110    91    89   ar
   111    65    66    1
   112    79    77   ar
   113    66    67    1
   114    78    77   ar
   115    90    88   ar
   116    77    76    1
   117    89    88   ar
   118    88    87    1
   119    67    68    2
   120    99   100    1
   121    99    96    1
   122    76    73    1
   123    87    84    1
   124    96    97    1
   125    96    95    1
   126    73    72    1
   127    73    74    1
   128    97    98    2
   129    75    74    2
   130    84    85    1
   131    84    83    1
   132    85    86    2
