@<TRIPOS>MOLECULE
tmp/3mp8A00.pdb
 180 177 0 0 0
SMALL
GASTEIGER

@<TRIPOS>ATOM
      1  N         23.7650    8.3700    2.7620 N.3    13  ASN13      -0.1240
      2  CA        24.0090    7.6120    3.9840 C.3    13  ASN13       0.1653
      3  C         25.4560    7.1460    4.1270 C.2    13  ASN13       0.2266
      4  O         26.1190    6.8260    3.1360 O.2    13  ASN13      -0.2867
      5  CB        23.0450    6.4310    4.1000 C.3    13  ASN13       0.1155
      6  CG        22.7500    6.0640    5.5440 C.2    13  ASN13       0.2627
      7  OD1       22.4340    6.9270    6.3610 O.2    13  ASN13      -0.2716
      8  ND2       22.8460    4.7850    5.8630 N.am   13  ASN13      -0.0877
      9  N         26.8760    4.4760    5.0350 N.3    15  ASP15      -0.1225
     10  CA        27.2020    3.1000    4.6380 C.3    15  ASP15       0.1805
     11  C         27.3830    2.9580    3.1250 C.2    15  ASP15       0.2597
     12  O         27.7120    1.8790    2.6340 O.2    15  ASP15      -0.2718
     13  CB        26.1180    2.1260    5.1180 C.3    15  ASP15       0.1424
     14  CG        24.7300    2.5070    4.6280 C.2    15  ASP15       0.3668
     15  OD1       24.5010    3.7310    4.3860 O.co2  15  ASP15      -0.2456
     16  OD2       23.8670    1.5970    4.4940 O.co2  15  ASP15      -0.2456
     17  N         27.1500    4.0420    2.3910 N.am   16  LYS16      -0.1979
     18  CA        27.2660    4.0180    0.9340 C.3    16  LYS16       0.1596
     19  C         28.5150    4.7480    0.4320 C.2    16  LYS16       0.2287
     20  O         29.2950    5.2620    1.2300 O.2    16  LYS16      -0.2864
     21  CB        25.9770    4.5400    0.2990 C.3    16  LYS16       0.0298
     22  CG        24.8200    3.5710    0.5250 C.3    16  LYS16       0.0038
     23  CD        23.4740    4.1730    0.2060 C.3    16  LYS16       0.0206
     24  CE        22.3840    3.1190    0.3300 C.3    16  LYS16       0.1093
     25  NZ        22.1750    2.6350    1.7230 N.3    16  LYS16      -0.1314
     26  N         17.7340   10.1480    7.0910 N.3    45  GLU45      -0.1245
     27  CA        16.3440   10.0790    6.6260 C.3    45  GLU45       0.1567
     28  C         15.3960   10.9940    7.4060 C.2    45  GLU45       0.2260
     29  O         14.4070   11.4820    6.8560 O.2    45  GLU45      -0.2867
     30  CB        15.8250    8.6310    6.6290 C.3    45  GLU45       0.0388
     31  CG        15.6940    7.9860    8.0110 C.3    45  GLU45       0.1160
     32  CD        16.9730    7.3140    8.4930 C.2    45  GLU45       0.3649
     33  OE1       18.0270    7.9810    8.6000 O.co2  45  GLU45      -0.2457
     34  OE2       16.9150    6.0960    8.7810 O.co2  45  GLU45      -0.2457
     35  N         18.3930    8.5390   -0.8080 N.3    63  TRP63      -0.1227
     36  CA        17.8140    7.5400    0.0850 C.3    63  TRP63       0.1737
     37  C         16.9720    6.5810   -0.7410 C.2    63  TRP63       0.2595
     38  O         16.6390    6.8820   -1.8870 O.2    63  TRP63      -0.2718
     39  CB        16.9520    8.1940    1.1800 C.3    63  TRP63       0.0564
     40  CG        16.6880    7.2450    2.2980 C.ar   63  TRP63       0.0003
     41  CD1       15.6210    6.3980    2.4190 C.ar   63  TRP63       0.0946
     42  CD2       17.5330    6.9890    3.4260 C.ar   63  TRP63       0.0152
     43  NE1       15.7420    5.6430    3.5610 N.ar   63  TRP63      -0.2442
     44  CE2       16.9040    5.9880    4.2010 C.ar   63  TRP63       0.0810
     45  CE3       18.7540    7.5190    3.8660 C.ar   63  TRP63       0.0012
     46  CZ2       17.4540    5.5050    5.3910 C.ar   63  TRP63       0.0191
     47  CZ3       19.3030    7.0370    5.0470 C.ar   63  TRP63       0.0001
     48  CH2       18.6520    6.0370    5.7960 C.ar   63  TRP63       0.0015
     49  N         16.6310    5.4290   -0.1700 N.am   64  ALA64      -0.1980
     50  CA        15.6880    4.5240   -0.8140 C.3    64  ALA64       0.1597
     51  C         14.3900    5.2810   -1.0780 C.2    64  ALA64       0.2287
     52  O         14.0150    6.1760   -0.3130 O.2    64  ALA64      -0.2864
     53  CB        15.4390    3.2990    0.0570 C.3    64  ALA64       0.0319
     54  N         11.2880    4.7460   -0.7470 N.3    66  ASP66      -0.1225
     55  CA        10.1040    4.6380    0.1180 C.3    66  ASP66       0.1805
     56  C          9.8530    5.9140    0.9190 C.2    66  ASP66       0.2597
     57  O          8.7080    6.2490    1.2100 O.2    66  ASP66      -0.2718
     58  CB        10.1880    3.4290    1.0550 C.3    66  ASP66       0.1424
     59  CG        11.3430    3.5230    2.0310 C.2    66  ASP66       0.3668
     60  OD1       12.5080    3.5440    1.5790 O.co2  66  ASP66      -0.2456
     61  OD2       11.0810    3.5810    3.2510 O.co2  66  ASP66      -0.2456
     62  N         10.9270    6.6240    1.2530 N.am   67  ARG67      -0.1979
     63  CA        10.8460    7.8650    2.0270 C.3    67  ARG67       0.1597
     64  C         10.4170    9.0620    1.1870 C.2    67  ARG67       0.2287
     65  O          9.9080   10.0500    1.7230 O.2    67  ARG67      -0.2864
     66  CB        12.2020    8.1770    2.6690 C.3    67  ARG67       0.0334
     67  CG        12.6080    7.2310    3.7800 C.3    67  ARG67       0.0492
     68  CD        12.0610    7.6900    5.1170 C.3    67  ARG67       0.2205
     69  NE        12.1580    6.6420    6.1310 N.pl3  67  ARG67      -0.0865
     70  CZ        11.6290    6.7220    7.3500 C.cat  67  ARG67       0.5346
     71  NH1       10.9630    7.8080    7.7270 N.pl3  67  ARG67       0.1354
     72  NH2       11.7650    5.7110    8.1950 N.pl3  67  ARG67       0.1354
     73  N         18.2260   -2.0570   -4.5760 N.3   112  GLU112     -0.1245
     74  CA        18.7900   -2.7140   -3.4040 C.3   112  GLU112      0.1567
     75  C         17.8500   -3.8020   -2.9160 C.2   112  GLU112      0.2260
     76  O         16.6340   -3.6060   -2.8490 O.2   112  GLU112     -0.2867
     77  CB        19.0150   -1.7190   -2.2620 C.3   112  GLU112      0.0388
     78  CG        19.6690   -0.4130   -2.6560 C.3   112  GLU112      0.1160
     79  CD        19.7730    0.5540   -1.4930 C.2   112  GLU112      0.3649
     80  OE1       18.9200    0.5020   -0.5780 O.co2 112  GLU112     -0.2457
     81  OE2       20.7090    1.3750   -1.4990 O.co2 112  GLU112     -0.2457
     82  N         21.3130   -7.0610   11.9220 N.3   151  ASN151     -0.1240
     83  CA        20.7310   -5.9170   12.6230 C.3   151  ASN151      0.1653
     84  C         19.2790   -6.1560   13.0550 C.2   151  ASN151      0.2266
     85  O         18.3810   -6.2460   12.2230 O.2   151  ASN151     -0.2867
     86  CB        20.8370   -4.6560   11.7480 C.3   151  ASN151      0.1155
     87  CG        20.4420   -3.3750   12.4860 C.2   151  ASN151      0.2627
     88  OD1       20.4040   -2.2910   11.8920 O.2   151  ASN151     -0.2716
     89  ND2       20.1460   -3.4920   13.7720 N.am  151  ASN151     -0.0877
     90  N         16.7070   -2.3990   13.2130 N.3   154  GLU154     -0.1231
     91  CA        15.9990   -1.8460   12.0600 C.3   154  GLU154      0.1684
     92  C         15.1520   -2.9280   11.4050 C.2   154  GLU154      0.2434
     93  O         15.6870   -3.9550   10.9790 O.2   154  GLU154     -0.2733
     94  CB        16.9860   -1.2590   11.0450 C.3   154  GLU154      0.0402
     95  CG        17.5610    0.1000   11.4460 C.3   154  GLU154      0.1161
     96  CD        16.4980    1.1790   11.5870 C.2   154  GLU154      0.3649
     97  OE1       15.5720    1.2310   10.7490 O.co2 154  GLU154     -0.2457
     98  OE2       16.5890    1.9800   12.5410 O.co2 154  GLU154     -0.2457
     99  N         13.8250   -2.7040   11.3220 N.am  155  PRO155     -0.2718
    100  CA        12.8700   -3.7000   10.8190 C.3   155  PRO155      0.1535
    101  C         13.1110   -4.1120    9.3620 C.2   155  PRO155      0.2599
    102  O         12.6100   -5.1470    8.9260 O.2   155  PRO155     -0.2715
    103  CB        11.5200   -2.9890   10.9570 C.3   155  PRO155      0.0310
    104  CG        11.8570   -1.5340   10.9240 C.3   155  PRO155      0.0237
    105  CD        13.1590   -1.4310   11.6530 C.3   155  PRO155      0.0939
    106  N         13.8740   -3.3070    8.6250 N.am  156  TYR156     -0.1960
    107  CA        14.2470   -3.6230    7.2460 C.3   156  TYR156      0.1771
    108  C         14.7950   -5.0470    7.1110 C.2   156  TYR156      0.2619
    109  O         14.4730   -5.7560    6.1540 O.2   156  TYR156     -0.2715
    110  CB        15.2870   -2.6140    6.7610 C.3   156  TYR156      0.0574
    111  CG        15.7410   -2.7650    5.3300 C.ar  156  TYR156     -0.0198
    112  CD1       14.8800   -2.4930    4.2650 C.ar  156  TYR156     -0.0009
    113  CD2       17.0500   -3.1470    5.0380 C.ar  156  TYR156     -0.0009
    114  CE1       15.3110   -2.6130    2.9440 C.ar  156  TYR156      0.0417
    115  CE2       17.4890   -3.2680    3.7270 C.ar  156  TYR156      0.0417
    116  CZ        16.6200   -3.0020    2.6860 C.ar  156  TYR156      0.1957
    117  OH        17.0620   -3.1280    1.3860 O.3   156  TYR156     -0.2866
    118  N         15.6100   -5.4530    8.0820 N.am  157  PHE157     -0.1974
    119  CA        16.3230   -6.7300    8.0320 C.3   157  PHE157      0.1639
    120  C         15.4770   -7.9320    8.4510 C.2   157  PHE157      0.2290
    121  O         15.7600   -9.0600    8.0530 O.2   157  PHE157     -0.2864
    122  CB        17.5960   -6.6490    8.8730 C.3   157  PHE157      0.0560
    123  CG        18.5590   -5.5910    8.4050 C.ar  157  PHE157     -0.0200
    124  CD1       18.3800   -4.2580    8.7730 C.ar  157  PHE157     -0.0042
    125  CD2       19.6390   -5.9240    7.5910 C.ar  157  PHE157     -0.0042
    126  CE1       19.2660   -3.2690    8.3390 C.ar  157  PHE157     -0.0003
    127  CE2       20.5320   -4.9420    7.1480 C.ar  157  PHE157     -0.0003
    128  CZ        20.3440   -3.6150    7.5250 C.ar  157  PHE157     -0.0000
    129  N         23.5410   -3.1150   13.6850 N.3   211  TYR211     -0.1241
    130  CA        24.2890   -3.1560   12.4380 C.3   211  TYR211      0.1605
    131  C         25.7870   -3.3380   12.6690 C.2   211  TYR211      0.2264
    132  O         26.4220   -4.1950   12.0410 O.2   211  TYR211     -0.2867
    133  CB        24.0260   -1.9000   11.6040 C.3   211  TYR211      0.0534
    134  CG        24.5370   -2.0070   10.1890 C.ar  211  TYR211     -0.0201
    135  CD1       25.8670   -1.7180    9.8830 C.ar  211  TYR211     -0.0009
    136  CD2       23.6950   -2.4140    9.1550 C.ar  211  TYR211     -0.0009
    137  CE1       26.3410   -1.8230    8.5860 C.ar  211  TYR211      0.0417
    138  CE2       24.1620   -2.5200    7.8530 C.ar  211  TYR211      0.0417
    139  CZ        25.4810   -2.2240    7.5770 C.ar  211  TYR211      0.1957
    140  OH        25.9440   -2.3290    6.2860 O.3   211  TYR211     -0.2866
    141  N         25.9450   -2.6800   -0.4170 N.3   231  TRP231     -0.1241
    142  CA        26.8550   -1.6920    0.1700 C.3   231  TRP231      0.1605
    143  C         27.8700   -2.3150    1.1250 C.2   231  TRP231      0.2264
    144  O         28.9650   -1.7840    1.3030 O.2   231  TRP231     -0.2867
    145  CB        26.0580   -0.6060    0.9030 C.3   231  TRP231      0.0550
    146  CG        25.1140   -1.1540    1.9380 C.ar  231  TRP231      0.0003
    147  CD1       25.4080   -1.4620    3.2370 C.ar  231  TRP231      0.0946
    148  CD2       23.7250   -1.4660    1.7550 C.ar  231  TRP231      0.0152
    149  NE1       24.2890   -1.9450    3.8750 N.ar  231  TRP231     -0.2442
    150  CE2       23.2420   -1.9570    2.9900 C.ar  231  TRP231      0.0810
    151  CE3       22.8410   -1.3710    0.6720 C.ar  231  TRP231      0.0012
    152  CZ2       21.9140   -2.3600    3.1690 C.ar  231  TRP231      0.0191
    153  CZ3       21.5210   -1.7720    0.8500 C.ar  231  TRP231      0.0001
    154  CH2       21.0720   -2.2610    2.0900 C.ar  231  TRP231      0.0015
    155  N         14.2920   -1.7760   -2.2890 N.3   261  GLY261     -0.1225
    156  CA        14.4890   -0.3320   -2.3070 C.3   261  GLY261      0.1811
    157  C         15.2010    0.1320   -3.5600 C.2   261  GLY261      0.2280
    158  O         16.0900   -0.5450   -4.0720 O.2   261  GLY261     -0.2866
    159  N          8.9950   -1.5160   -2.2810 N.3   331  MET331     -0.1245
    160  CA         8.2840   -0.7900   -1.2380 C.3   331  MET331      0.1570
    161  C          7.3460    0.2550   -1.8220 C.2   331  MET331      0.2261
    162  O          7.6560    0.8520   -2.8530 O.2   331  MET331     -0.2867
    163  CB         9.2760   -0.0760   -0.3310 C.3   331  MET331      0.0387
    164  CG        10.1660   -1.0020    0.4350 C.3   331  MET331      0.0595
    165  SD        11.2260   -0.0780    1.5270 S.3   331  MET331     -0.1393
    166  CE        12.5520    0.3370    0.4070 C.3   331  MET331      0.0692
    167  N          7.0350    2.1040    9.1920 N.3   341  TRP341     -0.1241
    168  CA         8.3640    1.7020    9.6360 C.3   341  TRP341      0.1605
    169  C          8.5800    1.9020   11.1360 C.2   341  TRP341      0.2264
    170  O          9.2150    1.0730   11.7900 O.2   341  TRP341     -0.2867
    171  CB         9.4470    2.4180    8.8260 C.3   341  TRP341      0.0550
    172  CG         9.7000    1.8040    7.4640 C.ar  341  TRP341      0.0003
    173  CD1        9.6770    2.4470    6.2570 C.ar  341  TRP341      0.0946
    174  CD2       10.0220    0.4310    7.1790 C.ar  341  TRP341      0.0152
    175  NE1        9.9650    1.5630    5.2420 N.ar  341  TRP341     -0.2442
    176  CE2       10.1800    0.3210    5.7770 C.ar  341  TRP341      0.0810
    177  CE3       10.1850   -0.7140    7.9690 C.ar  341  TRP341      0.0012
    178  CZ2       10.5010   -0.8890    5.1500 C.ar  341  TRP341      0.0191
    179  CZ3       10.5060   -1.9170    7.3470 C.ar  341  TRP341      0.0001
    180  CH2       10.6580   -1.9940    5.9490 C.ar  341  TRP341      0.0015
@<TRIPOS>BOND
     1    73    74    1
     2   158   157    2
     3   157   156    1
     4    74    75    1
     5    74    77    1
     6    75    76    2
     7   162   161    2
     8    78    77    1
     9    78    79    1
    10   156   155    1
    11   159   160    1
    12    38    37    2
    13   161   160    1
    14    81    79   ar
    15    79    80   ar
    16   160   163    1
    17    51    50    1
    18    51    52    2
    19    50    49    1
    20    50    53    1
    21    35    36    1
    22    54    55    1
    23    37    49   am
    24    37    36    1
    25   141   142    1
    26   163   164    1
    27    36    39    1
    28    55    56    1
    29    55    58    1
    30   142   145    1
    31   142   143    1
    32    23    24    1
    33    23    22    1
    34    21    22    1
    35    21    18    1
    36    24    25    1
    37   166   165    1
    38    19    18    1
    39    19    20    2
    40   164   165    1
    41   151   153   ar
    42   151   148   ar
    43   153   154   ar
    44   145   146    1
    45    56    57    2
    46    56    62   am
    47    18    17    1
    48    58    59    1
    49   143   144    2
    50    39    40    1
    51    64    65    2
    52    64    63    1
    53    62    63    1
    54   117   116    1
    55    60    59   ar
    56   148   146   ar
    57   148   150   ar
    58   146   147   ar
    59    63    66    1
    60    59    61   ar
    61   154   152   ar
    62    40    41   ar
    63    40    42   ar
    64    17    11   am
    65    41    43   ar
    66    12    11    2
    67    66    67    1
    68   116   114   ar
    69   116   115   ar
    70     1     2    1
    71   114   112   ar
    72   150   152   ar
    73   150   149   ar
    74    11    10    1
    75     4     3    2
    76   147   149   ar
    77    42    45   ar
    78    42    44   ar
    79    43    44   ar
    80   115   113   ar
    81    67    68    1
    82    45    47   ar
    83     2     5    1
    84     2     3    1
    85     5     6    1
    86    44    46   ar
    87   112   111   ar
    88    15    14   ar
    89    16    14   ar
    90    14    13    1
    91    10     9    1
    92    10    13    1
    93   113   111   ar
    94    47    48   ar
    95    68    69    1
    96   178   176   ar
    97   178   180   ar
    98   175   176   ar
    99   175   173   ar
   100   111   110    1
   101    46    48   ar
   102     6     8   am
   103     6     7    2
   104   176   174   ar
   105   180   179   ar
   106    69    70    2
   107   109   108    2
   108   173   172   ar
   109   140   139    1
   110    27    30    1
   111    27    26    1
   112    27    28    1
   113    30    31    1
   114   110   107    1
   115    29    28    2
   116   108   107    1
   117   108   118   am
   118   127   128   ar
   119   127   125   ar
   120   174   172   ar
   121   174   177   ar
   122   107   106    1
   123   179   177   ar
   124    70    71    1
   125    70    72    1
   126   172   171    1
   127   128   126   ar
   128   139   138   ar
   129   139   137   ar
   130   125   123   ar
   131   138   136   ar
   132    31    32    1
   133   119   118    1
   134   119   120    1
   135   119   122    1
   136   121   120    2
   137   126   124   ar
   138   123   124   ar
   139   123   122    1
   140    32    33   ar
   141    32    34   ar
   142   137   135   ar
   143   106   101   am
   144   171   168    1
   145   102   101    2
   146   136   134   ar
   147   167   168    1
   148   101   100    1
   149   168   169    1
   150   135   134   ar
   151   134   133    1
   152    97    96   ar
   153   100   103    1
   154   100    99    1
   155   104   103    1
   156   104   105    1
   157    93    92    2
   158    94    95    1
   159    94    91    1
   160   169   170    2
   161    99    92   am
   162    99   105    1
   163    92    91    1
   164    95    96    1
   165    96    98   ar
   166   133   130    1
   167    86    87    1
   168    86    83    1
   169    88    87    2
   170    82    83    1
   171   132   131    2
   172    91    90    1
   173    85    84    2
   174   130   131    1
   175   130   129    1
   176    87    89   am
   177    83    84    1
