@<TRIPOS>MOLECULE
tmp/3mpbB00.pdb
 165 153 0 0 0
SMALL
GASTEIGER

@<TRIPOS>ATOM
      1  N         38.1510   19.6700   74.4420 N.3    58  PHE58      -0.1241
      2  CA        37.4150   20.9320   74.5590 C.3    58  PHE58       0.1605
      3  C         37.5020   21.5670   75.9530 C.2    58  PHE58       0.2264
      4  O         36.5090   22.0490   76.4930 O.2    58  PHE58      -0.2867
      5  CB        35.9570   20.7710   74.0970 C.3    58  PHE58       0.0534
      6  CG        35.8190   20.3700   72.6530 C.ar   58  PHE58      -0.0203
      7  CD1       35.9660   21.3130   71.6350 C.ar   58  PHE58      -0.0042
      8  CD2       35.5590   19.0460   72.3100 C.ar   58  PHE58      -0.0042
      9  CE1       35.8420   20.9440   70.3000 C.ar   58  PHE58      -0.0003
     10  CE2       35.4270   18.6570   70.9700 C.ar   58  PHE58      -0.0003
     11  CZ        35.5690   19.6140   69.9630 C.ar   58  PHE58      -0.0000
     12  N         37.2680   15.3650   70.0230 N.3    68  LEU68      -0.1245
     13  CA        37.2940   15.2600   68.5730 C.3    68  LEU68       0.1561
     14  C         38.7150   14.9800   68.1650 C.2    68  LEU68       0.2260
     15  O         39.6640   15.4510   68.7980 O.2    68  LEU68      -0.2867
     16  CB        36.8080   16.5650   67.9240 C.3    68  LEU68       0.0270
     17  CG        36.5870   16.6700   66.4110 C.3    68  LEU68       0.0019
     18  CD1       35.6450   15.5920   65.8660 C.3    68  LEU68       0.0001
     19  CD2       36.0570   18.0760   66.0810 C.3    68  LEU68       0.0001
     20  N         41.0950   15.1100   64.6310 N.3    70  LEU70      -0.1245
     21  CA        41.0520   15.7010   63.2820 C.3    70  LEU70       0.1561
     22  C         42.4270   15.6380   62.6270 C.2    70  LEU70       0.2260
     23  O         43.4490   15.6090   63.3110 O.2    70  LEU70      -0.2867
     24  CB        40.6180   17.1780   63.3390 C.3    70  LEU70       0.0270
     25  CG        39.4460   17.6490   64.2180 C.3    70  LEU70       0.0019
     26  CD1       39.9140   17.9780   65.6530 C.3    70  LEU70       0.0001
     27  CD2       38.7790   18.8700   63.5890 C.3    70  LEU70       0.0001
     28  N         39.5000   18.8930   56.1040 N.3    90  LYS90      -0.1245
     29  CA        39.8770   18.0600   57.2270 C.3    90  LYS90       0.1561
     30  C         39.2930   16.6710   57.0910 C.2    90  LYS90       0.2260
     31  O         38.2450   16.4820   56.4700 O.2    90  LYS90      -0.2867
     32  CB        39.3860   18.6460   58.5510 C.3    90  LYS90       0.0271
     33  CG        39.9240   20.0300   58.8570 C.3    90  LYS90       0.0035
     34  CD        39.3930   20.4900   60.1880 C.3    90  LYS90       0.0206
     35  CE        39.8360   21.9130   60.5080 C.3    90  LYS90       0.1093
     36  NZ        39.3720   22.2710   61.8840 N.3    90  LYS90      -0.1314
     37  N         38.2680   13.5550   59.8720 N.3    92  MET92      -0.1245
     38  CA        38.0590   13.5120   61.3070 C.3    92  MET92       0.1570
     39  C         37.4560   12.1800   61.7440 C.2    92  MET92       0.2261
     40  O         36.8680   11.4900   60.9390 O.2    92  MET92      -0.2867
     41  CB        37.1400   14.6560   61.7200 C.3    92  MET92       0.0387
     42  CG        37.7560   16.0350   61.4650 C.3    92  MET92       0.0595
     43  SD        36.5120   17.2410   61.0280 S.3    92  MET92      -0.1393
     44  CE        35.3830   17.1240   62.4070 C.3    92  MET92       0.0692
     45  N         30.9660   17.0720   69.9360 N.3   100  THR100     -0.1218
     46  CA        31.6240   18.3490   69.6940 C.3   100  THR100      0.1862
     47  C         30.6390   19.4330   70.1530 C.2   100  THR100      0.2287
     48  O         29.5550   19.5500   69.5920 O.2   100  THR100     -0.2866
     49  CB        31.9860   18.5140   68.2020 C.3   100  THR100      0.1770
     50  OG1       33.0370   17.5910   67.8880 O.3   100  THR100     -0.2211
     51  CG2       32.4610   19.9410   67.8860 C.3   100  THR100      0.0375
     52  N         28.9460   25.4540   68.7520 N.3   103  HIS103     -0.1241
     53  CA        29.8080   26.5680   68.3410 C.3   103  HIS103      0.1621
     54  C         29.4040   27.1130   66.9930 C.2   103  HIS103      0.2264
     55  O         28.8140   26.3970   66.1740 O.2   103  HIS103     -0.2867
     56  CB        31.2860   26.1310   68.2990 C.3   103  HIS103      0.0745
     57  CG        31.6220   25.2110   67.1720 C.ar  103  HIS103      0.0817
     58  ND1       31.3820   23.8550   67.2220 N.ar  103  HIS103     -0.2268
     59  CD2       32.2130   25.4470   65.9760 C.ar  103  HIS103      0.1154
     60  CE1       31.8040   23.2950   66.1020 C.ar  103  HIS103      0.1986
     61  NE2       32.3150   24.2390   65.3290 N.ar  103  HIS103     -0.2212
     62  N         31.1830   29.7480   63.7180 N.3   105  HIS105     -0.1241
     63  CA        32.3840   30.4000   63.2080 C.3   105  HIS105      0.1621
     64  C         32.0690   31.7980   62.7400 C.2   105  HIS105      0.2264
     65  O         31.0100   32.0410   62.1700 O.2   105  HIS105     -0.2867
     66  CB        32.9790   29.5700   62.0610 C.3   105  HIS105      0.0745
     67  CG        33.2190   28.1520   62.4650 C.ar  105  HIS105      0.0817
     68  ND1       34.1860   27.8060   63.3820 N.ar  105  HIS105     -0.2268
     69  CD2       32.5460   27.0140   62.1750 C.ar  105  HIS105      0.1154
     70  CE1       34.1400   26.5020   63.5900 C.ar  105  HIS105      0.1986
     71  NE2       33.1520   26.0020   62.8740 N.ar  105  HIS105     -0.2212
     72  N         34.4080   31.1250   58.7700 N.3   108  LYS108     -0.1245
     73  CA        34.4310   29.8560   58.0410 C.3   108  LYS108      0.1561
     74  C         33.0190   29.3800   57.7060 C.2   108  LYS108      0.2260
     75  O         32.1330   29.3750   58.5740 O.2   108  LYS108     -0.2867
     76  CB        35.1490   28.7810   58.8700 C.3   108  LYS108      0.0271
     77  CG        35.3180   27.4140   58.1330 C.3   108  LYS108      0.0035
     78  CD        36.1400   26.3960   58.9590 C.3   108  LYS108      0.0206
     79  CE        35.4280   25.9650   60.2470 C.3   108  LYS108      0.1093
     80  NZ        36.0820   24.8020   60.9850 N.3   108  LYS108     -0.1314
     81  N         31.4700   25.8550   56.2260 N.3   110  GLU110     -0.1245
     82  CA        31.9610   24.4540   56.1520 C.3   110  GLU110      0.1567
     83  C         30.8930   23.4730   55.7210 C.2   110  GLU110      0.2260
     84  O         29.7380   23.5910   56.1280 O.2   110  GLU110     -0.2867
     85  CB        32.6020   23.9950   57.4940 C.3   110  GLU110      0.0388
     86  CG        31.6770   24.0270   58.7510 C.3   110  GLU110      0.1160
     87  CD        32.4250   23.6510   60.0330 C.2   110  GLU110      0.3649
     88  OE1       32.0180   24.0370   61.1580 O.co2 110  GLU110     -0.2457
     89  OE2       33.4730   22.9730   59.9160 O.co2 110  GLU110     -0.2457
     90  N         30.0320   19.7590   56.3540 N.3   112  ILE112     -0.1245
     91  CA        30.3570   18.6440   57.2190 C.3   112  ILE112      0.1561
     92  C         29.7830   17.4170   56.5450 C.2   112  ILE112      0.2260
     93  O         28.6150   17.4180   56.1660 O.2   112  ILE112     -0.2867
     94  CB        29.8000   18.8250   58.6400 C.3   112  ILE112      0.0252
     95  CG1       30.5050   20.0040   59.3150 C.3   112  ILE112      0.0019
     96  CG2       30.0150   17.5470   59.4730 C.3   112  ILE112      0.0019
     97  CD1       30.0050   20.2980   60.7630 C.3   112  ILE112      0.0001
     98  N         26.3260   25.0400   65.6650 N.3   171  HIS171     -0.1241
     99  CA        26.2180   23.6010   65.4300 C.3   171  HIS171      0.1621
    100  C         26.9140   22.8080   66.5170 C.2   171  HIS171      0.2264
    101  O         27.9610   23.2040   67.0470 O.2   171  HIS171     -0.2867
    102  CB        26.7770   23.1910   64.0510 C.3   171  HIS171      0.0745
    103  CG        28.1250   23.7690   63.7370 C.ar  171  HIS171      0.0817
    104  ND1       28.2970   25.0820   63.3540 N.ar  171  HIS171     -0.2268
    105  CD2       29.3550   23.2030   63.6980 C.ar  171  HIS171      0.1154
    106  CE1       29.5800   25.3090   63.1210 C.ar  171  HIS171      0.1986
    107  NE2       30.2450   24.1870   63.3320 N.ar  171  HIS171     -0.2212
    108  N         27.7250   18.4120   67.0700 N.3   173  PHE173     -0.1241
    109  CA        27.5190   17.0960   66.4690 C.3   173  PHE173      0.1605
    110  C         28.0840   15.9430   67.2620 C.2   173  PHE173      0.2264
    111  O         28.9820   16.1100   68.0830 O.2   173  PHE173     -0.2867
    112  CB        27.9900   17.0440   65.0040 C.3   173  PHE173      0.0534
    113  CG        29.4430   17.3760   64.8210 C.ar  173  PHE173     -0.0203
    114  CD1       30.4270   16.4190   65.0520 C.ar  173  PHE173     -0.0042
    115  CD2       29.8240   18.6510   64.4250 C.ar  173  PHE173     -0.0042
    116  CE1       31.7890   16.7370   64.8880 C.ar  173  PHE173     -0.0003
    117  CE2       31.1830   18.9740   64.2600 C.ar  173  PHE173     -0.0003
    118  CZ        32.1540   18.0110   64.4880 C.ar  173  PHE173     -0.0000
    119  N         35.4060   17.4080   56.3380 N.3   186  GLU186     -0.1245
    120  CA        34.9920   18.8030   56.3570 C.3   186  GLU186      0.1567
    121  C         35.6820   19.4660   55.1770 C.2   186  GLU186      0.2260
    122  O         36.8920   19.3720   55.0390 O.2   186  GLU186     -0.2867
    123  CB        35.3860   19.4210   57.6980 C.3   186  GLU186      0.0388
    124  CG        35.1980   20.9050   57.8460 C.3   186  GLU186      0.1160
    125  CD        35.7620   21.3720   59.1730 C.2   186  GLU186      0.3649
    126  OE1       35.6590   20.5900   60.1690 O.co2 186  GLU186     -0.2457
    127  OE2       36.3260   22.4950   59.2150 O.co2 186  GLU186     -0.2457
    128  N         41.5140   27.9100   63.7970 N.3   193  ASP193     -0.1239
    129  CA        41.1130   27.5270   65.1520 C.3   193  ASP193      0.1674
    130  C         41.6140   28.4320   66.2870 C.2   193  ASP193      0.2266
    131  O         41.1430   28.3230   67.4190 O.2   193  ASP193     -0.2867
    132  CB        41.4970   26.0740   65.4160 C.3   193  ASP193      0.1410
    133  CG        40.7110   25.1250   64.5580 C.2   193  ASP193      0.3668
    134  OD1       39.4550   25.2000   64.5900 O.co2 193  ASP193     -0.2456
    135  OD2       41.3500   24.3200   63.8580 O.co2 193  ASP193     -0.2456
    136  N         36.5350   30.2680   66.2420 N.3   197  ASN197     -0.1240
    137  CA        35.5530   29.4390   66.9380 C.3   197  ASN197      0.1653
    138  C         34.8940   30.1780   68.0880 C.2   197  ASN197      0.2266
    139  O         35.5720   30.6030   69.0340 O.2   197  ASN197     -0.2867
    140  CB        36.2130   28.1780   67.4810 C.3   197  ASN197      0.1155
    141  CG        36.8990   27.3790   66.4010 C.2   197  ASN197      0.2627
    142  OD1       36.4400   27.3390   65.2640 O.2   197  ASN197     -0.2716
    143  ND2       38.0120   26.7500   66.7460 N.am  197  ASN197     -0.0877
    144  N         32.4080   29.2650   70.9340 N.3   199  PHE199     -0.1241
    145  CA        31.6460   28.2460   71.6220 C.3   199  PHE199      0.1605
    146  C         30.5820   28.9200   72.4550 C.2   199  PHE199      0.2264
    147  O         30.8370   29.9420   73.0900 O.2   199  PHE199     -0.2867
    148  CB        32.5680   27.3650   72.4670 C.3   199  PHE199      0.0534
    149  CG        33.4580   26.4800   71.6490 C.ar  199  PHE199     -0.0203
    150  CD1       33.0280   25.2090   71.2670 C.ar  199  PHE199     -0.0042
    151  CD2       34.7130   26.9140   71.2480 C.ar  199  PHE199     -0.0042
    152  CE1       33.8440   24.3770   70.5030 C.ar  199  PHE199     -0.0003
    153  CE2       35.5380   26.0930   70.4780 C.ar  199  PHE199     -0.0003
    154  CZ        35.0890   24.8150   70.1060 C.ar  199  PHE199     -0.0000
    155  N         39.7720   25.5390   73.2070 N.3   205  ARG205     -0.1245
    156  CA        39.7780   24.6880   72.0110 C.3   205  ARG205      0.1563
    157  C         40.9970   23.7520   71.9320 C.2   205  ARG205      0.2260
    158  O         40.8960   22.6480   71.3860 O.2   205  ARG205     -0.2867
    159  CB        39.6310   25.5530   70.7390 C.3   205  ARG205      0.0307
    160  CG        39.7530   24.8300   69.3880 C.3   205  ARG205      0.0489
    161  CD        38.8420   23.6040   69.2790 C.3   205  ARG205      0.2205
    162  NE        38.9390   22.9350   67.9780 N.pl3 205  ARG205     -0.0865
    163  CZ        39.9680   22.1930   67.5710 C.cat 205  ARG205      0.5346
    164  NH1       41.0270   22.0160   68.3480 N.pl3 205  ARG205      0.1354
    165  NH2       39.9390   21.6300   66.3740 N.pl3 205  ARG205      0.1354
@<TRIPOS>BOND
     1   122   121    2
     2   121   120    1
     3    83    84    2
     4    83    82    1
     5    28    29    1
     6    82    81    1
     7    82    85    1
     8    93    92    2
     9   119   120    1
    10    90    91    1
    11   120   123    1
    12    31    30    2
    13    92    91    1
    14    30    29    1
    15    91    94    1
    16    29    32    1
    17    85    86    1
    18   123   124    1
    19    74    73    1
    20    74    75    2
    21   124   125    1
    22    73    72    1
    23    73    76    1
    24    77    76    1
    25    77    78    1
    26    32    33    1
    27    94    95    1
    28    94    96    1
    29    86    87    1
    30    33    34    1
    31    78    79    1
    32   125   127   ar
    33   125   126   ar
    34    95    97    1
    35    37    38    1
    36    89    87   ar
    37    87    88   ar
    38    34    35    1
    39    79    80    1
    40    35    36    1
    41    40    39    2
    42    43    42    1
    43    43    44    1
    44    38    41    1
    45    38    39    1
    46    42    41    1
    47    66    67    1
    48    66    63    1
    49    65    64    2
    50    69    67   ar
    51    69    71   ar
    52    67    68   ar
    53    22    21    1
    54    22    23    2
    55    64    63    1
    56    71    70   ar
    57   106   107   ar
    58   106   104   ar
    59    63    62    1
    60    21    24    1
    61    21    20    1
    62   107   105   ar
    63    24    25    1
    64   104   103   ar
    65    68    70   ar
    66    27    25    1
    67   105   103   ar
    68   103   102    1
    69   128   129    1
    70   135   133   ar
    71   102    99    1
    72    25    26    1
    73   117   115   ar
    74   117   118   ar
    75   115   113   ar
    76   118   116   ar
    77   133   134   ar
    78   133   132    1
    79   113   112    1
    80   113   114   ar
    81   116   114   ar
    82   112   109    1
    83   129   132    1
    84   129   130    1
    85   142   141    2
    86    61    59   ar
    87    61    60   ar
    88    99    98    1
    89    99   100    1
    90    18    17    1
    91    59    57   ar
    92    19    17    1
    93    60    58   ar
    94    55    54    2
    95   136   137    1
    96   130   131    2
    97   165   163    1
    98   141   143   am
    99   141   140    1
   100    17    16    1
   101   109   108    1
   102   109   110    1
   103   100   101    2
   104   137   140    1
   105   137   138    1
   106    54    53    1
   107    57    58   ar
   108    57    56    1
   109   110   111    2
   110   163   162    2
   111   163   164    1
   112    51    49    1
   113    50    49    1
   114    16    13    1
   115   162   161    1
   116   138   139    2
   117    14    13    1
   118    14    15    2
   119    49    46    1
   120    56    53    1
   121    53    52    1
   122    13    12    1
   123   161   160    1
   124   160   159    1
   125    48    47    2
   126    46    45    1
   127    46    47    1
   128    11     9   ar
   129    11    10   ar
   130   154   153   ar
   131   154   152   ar
   132     9     7   ar
   133   153   151   ar
   134   152   150   ar
   135   159   156    1
   136   144   145    1
   137    10     8   ar
   138   151   149   ar
   139   150   149   ar
   140   158   157    2
   141   145   146    1
   142   145   148    1
   143     7     6   ar
   144   149   148    1
   145   157   156    1
   146   156   155    1
   147     8     6   ar
   148   146   147    2
   149     6     5    1
   150     5     2    1
   151     1     2    1
   152     2     3    1
   153     3     4    2
