@<TRIPOS>MOLECULE
tmp/3mpmA00.pdb
 153 142 0 0 0
SMALL
GASTEIGER

@<TRIPOS>ATOM
      1  N         27.8390   14.9250   57.9800 N.3    14  LEU14      -0.1245
      2  CA        27.6160   15.4700   56.6380 C.3    14  LEU14       0.1561
      3  C         26.4550   16.4520   56.6400 C.2    14  LEU14       0.2260
      4  O         26.4050   17.3450   55.8050 O.2    14  LEU14      -0.2867
      5  CB        27.3710   14.3470   55.6050 C.3    14  LEU14       0.0270
      6  CG        28.4300   13.2370   55.4560 C.3    14  LEU14       0.0019
      7  CD1       27.8850   12.0840   54.5930 C.3    14  LEU14       0.0001
      8  CD2       29.8310   13.7170   54.9520 C.3    14  LEU14       0.0001
      9  N         23.0550   13.0960   59.2910 N.3    22  VAL22      -0.1245
     10  CA        23.6940   12.0980   58.4430 C.3    22  VAL22       0.1561
     11  C         25.2140   12.2150   58.6260 C.2    22  VAL22       0.2260
     12  O         25.7800   13.3210   58.5310 O.2    22  VAL22      -0.2867
     13  CB        23.3400   12.3120   56.9460 C.3    22  VAL22       0.0252
     14  CG1       24.1630   11.3720   56.0580 C.3    22  VAL22       0.0019
     15  CG2       21.8550   12.0860   56.7140 C.3    22  VAL22       0.0019
     16  N         27.2880    5.7940   54.7180 N.3    34  ALA34      -0.1245
     17  CA        26.5880    6.9440   55.2770 C.3    34  ALA34       0.1562
     18  C         25.5350    6.4490   56.2860 C.2    34  ALA34       0.2260
     19  O         24.9110    5.4010   56.0830 O.2    34  ALA34      -0.2867
     20  CB        25.9390    7.7770   54.1730 C.3    34  ALA34       0.0290
     21  N         22.2450    7.5080   58.6100 N.3    36  LYS36      -0.1245
     22  CA        21.1920    8.4430   59.0140 C.3    36  LYS36       0.1561
     23  C         20.7530    8.0970   60.4300 C.2    36  LYS36       0.2260
     24  O         20.3840    6.9560   60.7180 O.2    36  LYS36      -0.2867
     25  CB        20.0010    8.3850   58.0330 C.3    36  LYS36       0.0271
     26  CG        18.8520    9.3470   58.3100 C.3    36  LYS36       0.0035
     27  CD        17.7010    9.1860   57.2450 C.3    36  LYS36       0.0206
     28  CE        18.0430    9.9630   55.9520 C.3    36  LYS36       0.1093
     29  NZ        16.8840    9.9480   54.9770 N.3    36  LYS36      -0.1314
     30  N         11.6760    3.5820   55.9630 N.3    51  GLU51      -0.1245
     31  CA        12.6050    3.8700   54.8690 C.3    51  GLU51       0.1567
     32  C         13.5990    2.7250   54.6180 C.2    51  GLU51       0.2260
     33  O         13.8550    2.3820   53.4590 O.2    51  GLU51      -0.2867
     34  CB        13.3460    5.1800   55.1170 C.3    51  GLU51       0.0388
     35  CG        14.2950    5.6040   53.9680 C.3    51  GLU51       0.1160
     36  CD        15.2940    6.6360   54.4120 C.2    51  GLU51       0.3649
     37  OE1       15.0590    7.2630   55.4710 O.co2  51  GLU51      -0.2457
     38  OE2       16.3380    6.8080   53.7340 O.co2  51  GLU51      -0.2457
     39  N         13.9950   -0.0510   51.3220 N.3    55  MET55      -0.1245
     40  CA        15.2520   -0.4100   50.6700 C.3    55  MET55       0.1570
     41  C         15.5000   -1.9330   50.7080 C.2    55  MET55       0.2261
     42  O         16.1220   -2.4790   49.7970 O.2    55  MET55      -0.2867
     43  CB        16.4240    0.3600   51.2790 C.3    55  MET55       0.0387
     44  CG        16.4420    1.8500   50.8900 C.3    55  MET55       0.0595
     45  SD        17.8680    2.7830   51.5060 S.3    55  MET55      -0.1393
     46  CE        17.3690    3.0060   53.1930 C.3    55  MET55       0.0692
     47  N         19.3940    3.5530   46.0340 N.3    64  VAL64      -0.1245
     48  CA        20.3400    3.5420   47.1590 C.3    64  VAL64       0.1561
     49  C         20.2850    2.2130   47.9370 C.2    64  VAL64       0.2260
     50  O         19.2090    1.7510   48.3160 O.2    64  VAL64      -0.2867
     51  CB        20.1260    4.7450   48.1110 C.3    64  VAL64       0.0252
     52  CG1       21.0070    4.6070   49.4110 C.3    64  VAL64       0.0019
     53  CG2       20.4580    6.0430   47.3760 C.3    64  VAL64       0.0019
     54  N         20.1560    4.1850   60.2560 N.3    77  ILE77      -0.1245
     55  CA        20.0100    3.4800   58.9680 C.3    77  ILE77       0.1561
     56  C         21.3450    3.6450   58.2560 C.2    77  ILE77       0.2260
     57  O         21.8050    4.7640   58.0540 O.2    77  ILE77      -0.2867
     58  CB        18.8740    4.0570   58.0670 C.3    77  ILE77       0.0252
     59  CG1       17.5070    3.8860   58.7270 C.3    77  ILE77       0.0019
     60  CG2       18.9070    3.4020   56.6440 C.3    77  ILE77       0.0019
     61  CD1       16.3190    4.5020   57.9050 C.3    77  ILE77       0.0001
     62  N         23.7580    3.0680   54.9110 N.3    79  THR79      -0.1203
     63  CA        23.6940    2.8680   53.4630 C.3    79  THR79       0.1994
     64  C         25.0690    3.0340   52.8270 C.2    79  THR79       0.2618
     65  O         26.0350    3.4510   53.4990 O.2    79  THR79      -0.2717
     66  CB        22.6930    3.8520   52.7670 C.3    79  THR79       0.1784
     67  OG1       23.2110    5.1940   52.7990 O.3    79  THR79      -0.2211
     68  CG2       21.2820    3.8370   53.4110 C.3    79  THR79       0.0376
     69  N         25.1730    2.6870   51.5430 N.am   80  GLU80      -0.1965
     70  CA        26.3660    2.9870   50.7600 C.3    80  GLU80       0.1733
     71  C         26.6700    4.4900   50.7420 C.2    80  GLU80       0.2616
     72  O         25.7780    5.3140   50.6930 O.2    80  GLU80      -0.2715
     73  CB        26.2380    2.4650   49.3180 C.3    80  GLU80       0.0429
     74  CG        25.0670    3.0620   48.5270 C.3    80  GLU80       0.1163
     75  CD        24.9960    2.5400   47.1050 C.2    80  GLU80       0.3649
     76  OE1       26.0630    2.3050   46.4950 O.co2  80  GLU80      -0.2457
     77  OE2       23.8650    2.3660   46.5960 O.co2  80  GLU80      -0.2457
     78  N         27.9460    4.8300   50.7700 N.am   81  TYR81      -0.1960
     79  CA        28.3530    6.2150   50.7700 C.3    81  TYR81       0.1771
     80  C         28.4980    6.7140   49.3070 C.2    81  TYR81       0.2619
     81  O         29.1080    6.0360   48.4570 O.2    81  TYR81      -0.2715
     82  CB        29.6290    6.3710   51.6170 C.3    81  TYR81       0.0574
     83  CG        30.2720    7.7340   51.5100 C.ar   81  TYR81      -0.0198
     84  CD1       29.8110    8.8110   52.2800 C.ar   81  TYR81      -0.0009
     85  CD2       31.3160    7.9550   50.6120 C.ar   81  TYR81      -0.0009
     86  CE1       30.3890   10.0780   52.1570 C.ar   81  TYR81       0.0417
     87  CE2       31.8900    9.2040   50.4800 C.ar   81  TYR81       0.0417
     88  CZ        31.4270   10.2540   51.2600 C.ar   81  TYR81       0.1957
     89  OH        31.9890   11.4910   51.1240 O.3    81  TYR81      -0.2866
     90  N         27.9180    7.8830   49.0230 N.am   82  MET82      -0.1963
     91  CA        27.9990    8.5210   47.6980 C.3    82  MET82       0.1736
     92  C         28.8460    9.7880   47.7410 C.2    82  MET82       0.2616
     93  O         28.4550   10.8000   48.3200 O.2    82  MET82      -0.2715
     94  CB        26.5940    8.8310   47.1790 C.3    82  MET82       0.0427
     95  CG        25.6730    7.6160   47.2010 C.3    82  MET82       0.0599
     96  SD        26.2350    6.3930   46.0260 S.3    82  MET82      -0.1393
     97  CE        25.6750    7.1160   44.4860 C.3    82  MET82       0.0692
     98  N         30.0230    9.7180   47.1260 N.am   83  GLU83      -0.1963
     99  CA        31.0370   10.7620   47.2380 C.3    83  GLU83       0.1733
    100  C         30.5580   12.1670   46.8710 C.2    83  GLU83       0.2616
    101  O         30.9980   13.1370   47.4760 O.2    83  GLU83      -0.2715
    102  CB        32.2960   10.3710   46.4330 C.3    83  GLU83       0.0429
    103  CG        33.4280   11.4260   46.3690 C.3    83  GLU83       0.1163
    104  CD        33.9860   11.8520   47.7420 C.2    83  GLU83       0.3649
    105  OE1       33.8960   11.0870   48.7360 O.co2  83  GLU83      -0.2457
    106  OE2       34.5280   12.9790   47.8140 O.co2  83  GLU83      -0.2457
    107  N         29.6670   12.2830   45.8920 N.am   84  ASN84      -0.1958
    108  CA        29.1840   13.6150   45.4800 C.3    84  ASN84       0.1819
    109  C         27.8570   14.0680   46.1030 C.2    84  ASN84       0.2622
    110  O         27.2980   15.0900   45.7060 O.2    84  ASN84      -0.2715
    111  CB        29.1830   13.7500   43.9490 C.3    84  ASN84       0.1195
    112  CG        30.5730   13.8770   43.3930 C.2    84  ASN84       0.2630
    113  OD1       30.9620   13.1660   42.4610 O.2    84  ASN84      -0.2716
    114  ND2       31.3500   14.7790   43.9760 N.am   84  ASN84      -0.0877
    115  N         27.3910   13.3380   47.1180 N.am   85  GLY85      -0.1940
    116  CA        26.2160   13.7590   47.8700 C.3    85  GLY85       0.2014
    117  C         24.9660   13.8780   46.9960 C.2    85  GLY85       0.2639
    118  O         24.7650   13.1030   46.0410 O.2    85  GLY85      -0.2714
    119  N         24.1400   14.8680   47.3320 N.am   86  SER86      -0.1949
    120  CA        22.8590   15.0920   46.6770 C.3    86  SER86       0.1924
    121  C         23.0450   15.7290   45.3010 C.2    86  SER86       0.2314
    122  O         23.8290   16.6640   45.1480 O.2    86  SER86      -0.2863
    123  CB        22.0200   15.9940   47.5790 C.3    86  SER86       0.2116
    124  OG        20.7890   16.2790   46.9830 O.3    86  SER86      -0.2180
    125  N         22.8050   19.5880   44.9980 N.3    89  ASP89      -0.1239
    126  CA        23.9760   20.3110   45.4830 C.3    89  ASP89       0.1674
    127  C         25.1570   20.0940   44.5690 C.2    89  ASP89       0.2266
    128  O         25.9000   21.0240   44.2970 O.2    89  ASP89      -0.2867
    129  CB        24.3620   19.8670   46.8940 C.3    89  ASP89       0.1410
    130  CG        23.2930   20.1750   47.9130 C.2    89  ASP89       0.3668
    131  OD1       22.7480   21.2980   47.9100 O.co2  89  ASP89      -0.2456
    132  OD2       23.0100   19.2860   48.7290 O.co2  89  ASP89      -0.2456
    133  N         21.2690   10.7110   44.8670 N.3   134  LEU134     -0.1245
    134  CA        22.6470   10.7820   45.3330 C.3   134  LEU134      0.1561
    135  C         23.5810   10.4450   44.1680 C.2   134  LEU134      0.2260
    136  O         23.1970    9.7080   43.2510 O.2   134  LEU134     -0.2867
    137  CB        22.8810    9.8610   46.5420 C.3   134  LEU134      0.0270
    138  CG        22.0240   10.1570   47.7940 C.3   134  LEU134      0.0019
    139  CD1       22.1460    9.0580   48.8330 C.3   134  LEU134      0.0001
    140  CD2       22.4080   11.5270   48.4040 C.3   134  LEU134      0.0001
    141  N         17.0050    7.8480   46.3070 N.3   144  ALA144     -0.1231
    142  CA        16.8620    7.6330   47.7530 C.3   144  ALA144      0.1694
    143  C         15.4570    8.0240   48.1840 C.2   144  ALA144      0.2592
    144  O         14.7740    8.7420   47.4570 O.2   144  ALA144     -0.2718
    145  CB        17.8820    8.4810   48.5170 C.3   144  ALA144      0.0304
    146  N         15.0310    7.5620   49.3610 N.am  145  ASP145     -0.1974
    147  CA        13.7620    8.0160   49.9680 C.3   145  ASP145      0.1709
    148  C         12.5340    7.7530   49.1030 C.2   145  ASP145      0.2293
    149  O         11.6280    8.5830   49.0450 O.2   145  ASP145     -0.2864
    150  CB        13.8070    9.5050   50.3340 C.3   145  ASP145      0.1436
    151  CG        14.8240    9.8080   51.4150 C.2   145  ASP145      0.3671
    152  OD1       14.5680    9.4460   52.5850 O.co2 145  ASP145     -0.2456
    153  OD2       15.8600   10.4070   51.0850 O.co2 145  ASP145     -0.2456
@<TRIPOS>BOND
     1   113   112    2
     2   136   135    2
     3   112   111    1
     4   112   114   am
     5   111   108    1
     6   135   134    1
     7   128   127    2
     8    97    96    1
     9   127   126    1
    10   133   134    1
    11   125   126    1
    12   122   121    2
    13   121   120    1
    14   134   137    1
    15   108   107    1
    16   108   109    1
    17   126   129    1
    18   110   109    2
    19   107   100   am
    20    96    95    1
    21    47    48    1
    22   118   117    2
    23   109   115   am
    24   141   142    1
    25   103   102    1
    26   103   104    1
    27   102    99    1
    28    76    75   ar
    29   137   138    1
    30    77    75   ar
    31   120   119    1
    32   120   123    1
    33   100    99    1
    34   100   101    2
    35   129   130    1
    36   124   123    1
    37   117   119   am
    38   117   116    1
    39    75    74    1
    40   115   116    1
    41    98    99    1
    42    98    92   am
    43    48    49    1
    44    48    51    1
    45    94    95    1
    46    94    91    1
    47    53    51    1
    48   144   143    2
    49    91    92    1
    50    91    90    1
    51    92    93    2
    52   104   106   ar
    53   104   105   ar
    54   142   143    1
    55   142   145    1
    56   138   140    1
    57   138   139    1
    58   131   130   ar
    59   130   132   ar
    60    49    50    2
    61    51    52    1
    62   143   146   am
    63    81    80    2
    64    74    73    1
    65    90    80   am
    66   149   148    2
    67   148   147    1
    68    80    79    1
    69    73    70    1
    70   146   147    1
    71    42    41    2
    72   147   150    1
    73   150   151    1
    74    87    85   ar
    75    87    88   ar
    76    85    83   ar
    77    40    41    1
    78    40    43    1
    79    40    39    1
    80    72    71    2
    81    71    70    1
    82    71    78   am
    83    70    69    1
    84    78    79    1
    85    79    82    1
    86    44    43    1
    87    44    45    1
    88   153   151   ar
    89    89    88    1
    90    88    86   ar
    91   151   152   ar
    92    45    46    1
    93    83    82    1
    94    83    84   ar
    95    69    64   am
    96    86    84   ar
    97    66    67    1
    98    66    68    1
    99    66    63    1
   100    64    63    1
   101    64    65    2
   102    33    32    2
   103    63    62    1
   104    38    36   ar
   105    35    36    1
   106    35    34    1
   107    20    17    1
   108    36    37   ar
   109     7     6    1
   110    32    31    1
   111    16    17    1
   112    31    34    1
   113    31    30    1
   114     8     6    1
   115    29    28    1
   116    17    18    1
   117     6     5    1
   118     5     2    1
   119     4     3    2
   120    28    27    1
   121    14    13    1
   122    19    18    2
   123     2     3    1
   124     2     1    1
   125    60    58    1
   126    15    13    1
   127    13    10    1
   128    27    26    1
   129    61    59    1
   130    25    26    1
   131    25    22    1
   132    57    56    2
   133    58    59    1
   134    58    55    1
   135    56    55    1
   136    10    11    1
   137    10     9    1
   138    12    11    2
   139    21    22    1
   140    55    54    1
   141    22    23    1
   142    23    24    2
