@<TRIPOS>MOLECULE
tmp/3mpnA07.pdb
 123 116 0 0 0
SMALL
GASTEIGER

@<TRIPOS>ATOM
      1  N         23.8990   56.3620   27.4410 N.3    68  GLN68      -0.1245
      2  CA        24.4180   56.8420   28.6950 C.3    68  GLN68       0.1566
      3  C         25.8200   56.3050   29.0090 C.2    68  GLN68       0.2260
      4  O         26.2730   56.4450   30.1110 O.2    68  GLN68      -0.2867
      5  CB        23.4460   56.4760   29.7970 C.3    68  GLN68       0.0367
      6  CG        22.0950   57.1290   29.6630 C.3    68  GLN68       0.0905
      7  CD        21.1690   56.7180   30.7850 C.2    68  GLN68       0.2608
      8  OE1       21.4570   56.9640   31.9620 O.2    68  GLN68      -0.2717
      9  NE2       20.0930   56.0430   30.4400 N.am   68  GLN68      -0.0878
     10  N         27.0410   53.1090   28.9400 N.3    70  HIS70      -0.1241
     11  CA        27.0920   51.7580   29.5070 C.3    70  HIS70       0.1621
     12  C         26.5860   50.6420   28.6290 C.2    70  HIS70       0.2264
     13  O         25.4150   50.6070   28.3010 O.2    70  HIS70      -0.2867
     14  CB        26.3460   51.7350   30.8190 C.3    70  HIS70       0.0745
     15  CG        26.9000   52.7300   31.7870 C.ar   70  HIS70       0.0817
     16  ND1       28.0340   52.4870   32.5190 N.ar   70  HIS70      -0.2268
     17  CD2       26.5630   54.0190   32.0270 C.ar   70  HIS70       0.1154
     18  CE1       28.3250   53.5640   33.2340 C.ar   70  HIS70       0.1986
     19  NE2       27.4530   54.5120   32.9400 N.ar   70  HIS70      -0.2212
     20  N         25.5750   45.0070   34.3880 N.3    74  PRO74      -0.2102
     21  CA        25.6420   45.5190   35.8040 C.3    74  PRO74       0.1504
     22  C         25.1740   46.9950   35.8660 C.2    74  PRO74       0.2575
     23  O         24.3300   47.3890   36.7250 O.2    74  PRO74      -0.2718
     24  CB        27.1160   45.4140   36.1450 C.3    74  PRO74       0.0282
     25  CG        27.6210   44.2620   35.2740 C.3    74  PRO74       0.0208
     26  CD        26.8270   44.3210   33.9800 C.3    74  PRO74       0.0893
     27  N         25.7360   47.7840   34.9790 N.am   75  ALA75      -0.1980
     28  CA        25.3030   49.1670   34.8140 C.3    75  ALA75       0.1597
     29  C         23.8420   49.2620   34.2890 C.2    75  ALA75       0.2287
     30  O         23.0140   50.0070   34.8680 O.2    75  ALA75      -0.2864
     31  CB        26.2420   49.9350   33.9140 C.3    75  ALA75       0.0319
     32  N         20.9990   48.5100   36.6080 N.3    78  TYR78      -0.1227
     33  CA        20.8930   49.5240   37.6200 C.3    78  TYR78       0.1736
     34  C         20.2760   50.8050   37.0450 C.2    78  TYR78       0.2595
     35  O         19.5590   51.4640   37.7090 O.2    78  TYR78      -0.2718
     36  CB        22.2770   49.8300   38.1870 C.3    78  TYR78       0.0548
     37  CG        22.3040   50.7730   39.3650 C.ar   78  TYR78      -0.0200
     38  CD1       21.8980   50.3650   40.5990 C.ar   78  TYR78      -0.0009
     39  CD2       22.8260   52.0700   39.2340 C.ar   78  TYR78      -0.0009
     40  CE1       21.9810   51.2220   41.6960 C.ar   78  TYR78       0.0417
     41  CE2       22.8840   52.9580   40.3290 C.ar   78  TYR78       0.0417
     42  CZ        22.4520   52.5110   41.5550 C.ar   78  TYR78       0.1957
     43  OH        22.4900   53.3420   42.6450 O.3    78  TYR78      -0.2866
     44  N         20.5760   51.1310   35.8000 N.am   79  LEU79      -0.1980
     45  CA        19.9810   52.2870   35.1170 C.3    79  LEU79       0.1596
     46  C         18.5010   52.0490   34.9860 C.2    79  LEU79       0.2287
     47  O         17.7420   52.9750   35.0790 O.2    79  LEU79      -0.2864
     48  CB        20.6030   52.5110   33.7530 C.3    79  LEU79       0.0297
     49  CG        22.0380   53.0410   33.6140 C.3    79  LEU79       0.0022
     50  CD1       22.3420   53.1280   32.1710 C.3    79  LEU79       0.0001
     51  CD2       22.2850   54.4320   34.2780 C.3    79  LEU79       0.0001
     52  N         17.2670   51.0520   40.1130 N.3    82  ARG82      -0.1245
     53  CA        18.3260   51.6440   40.9190 C.3    82  ARG82       0.1563
     54  C         18.2940   51.0140   42.2660 C.2    82  ARG82       0.2260
     55  O         17.8880   51.6140   43.2270 O.2    82  ARG82      -0.2867
     56  CB        18.1040   53.1450   41.0790 C.3    82  ARG82       0.0307
     57  CG        18.0090   53.8630   39.7720 C.3    82  ARG82       0.0489
     58  CD        19.2820   54.5860   39.4630 C.3    82  ARG82       0.2205
     59  NE        19.1310   55.3600   38.2280 N.pl3  82  ARG82      -0.0865
     60  CZ        20.1220   56.0400   37.6470 C.cat  82  ARG82       0.5346
     61  NH1       21.3480   56.0570   38.1930 N.pl3  82  ARG82       0.1354
     62  NH2       19.8900   56.7120   36.5210 N.pl3  82  ARG82       0.1354
     63  N         22.5820   45.4700   40.3180 N.3    87  LYS87      -0.1245
     64  CA        23.9780   45.3540   39.9190 C.3    87  LYS87       0.1561
     65  C         24.4790   43.8820   40.0050 C.2    87  LYS87       0.2260
     66  O         25.2310   43.4240   39.1310 O.2    87  LYS87      -0.2867
     67  CB        24.8910   46.2680   40.7290 C.3    87  LYS87       0.0271
     68  CG        24.6760   47.7520   40.5460 C.3    87  LYS87       0.0035
     69  CD        25.8160   48.6320   41.1480 C.3    87  LYS87       0.0206
     70  CE        25.3110   50.0570   41.4080 C.3    87  LYS87       0.1093
     71  NZ        26.2640   51.1260   41.8730 N.3    87  LYS87      -0.1314
     72  N         32.6290   46.1330   29.5170 N.3   360  PHE360     -0.1241
     73  CA        32.5930   46.4080   30.9260 C.3   360  PHE360      0.1605
     74  C         33.9160   47.0440   31.3970 C.2   360  PHE360      0.2264
     75  O         33.9100   47.9970   32.1980 O.2   360  PHE360     -0.2867
     76  CB        32.3540   45.1410   31.7130 C.3   360  PHE360      0.0534
     77  CG        32.5670   45.3260   33.1730 C.ar  360  PHE360     -0.0203
     78  CD1       31.5740   45.8820   33.9390 C.ar  360  PHE360     -0.0042
     79  CD2       33.7920   45.0100   33.7610 C.ar  360  PHE360     -0.0042
     80  CE1       31.7480   46.0980   35.2740 C.ar  360  PHE360     -0.0003
     81  CE2       33.9690   45.2120   35.1370 C.ar  360  PHE360     -0.0003
     82  CZ        32.9310   45.7660   35.8800 C.ar  360  PHE360     -0.0000
     83  N         33.2990   50.7280   32.4540 N.3   364  GLU364     -0.1245
     84  CA        33.1800   50.8570   33.9220 C.3   364  GLU364      0.1567
     85  C         34.4660   51.0200   34.6570 C.2   364  GLU364      0.2260
     86  O         34.4610   51.6070   35.7130 O.2   364  GLU364     -0.2867
     87  CB        32.3910   49.6810   34.5240 C.3   364  GLU364      0.0388
     88  CG        31.1930   49.2420   33.6730 C.3   364  GLU364      0.1160
     89  CD        30.1990   50.3920   33.4250 C.2   364  GLU364      0.3649
     90  OE1       30.2020   51.3200   34.2450 O.co2 364  GLU364     -0.2457
     91  OE2       29.3570   50.3150   32.4920 O.co2 364  GLU364     -0.2457
     92  N         32.7270   44.7860   39.7600 N.3   495  VAL495     -0.1245
     93  CA        31.5840   45.6630   39.8150 C.3   495  VAL495      0.1561
     94  C         31.7270   46.5650   41.0000 C.2   495  VAL495      0.2260
     95  O         31.5670   47.8020   40.8830 O.2   495  VAL495     -0.2867
     96  CB        30.2710   44.8900   39.7610 C.3   495  VAL495      0.0252
     97  CG1       29.0690   45.7860   40.0970 C.3   495  VAL495      0.0019
     98  CG2       30.0890   44.2510   38.3220 C.3   495  VAL495      0.0019
     99  N         34.3250   49.1430   40.3690 N.3   498  ALA498     -0.1231
    100  CA        33.7770   50.1030   39.4050 C.3   498  ALA498      0.1694
    101  C         32.8570   51.0480   40.1460 C.2   498  ALA498      0.2591
    102  O         32.9290   52.2020   39.9070 O.2   498  ALA498     -0.2718
    103  CB        33.0140   49.4200   38.2870 C.3   498  ALA498      0.0304
    104  N         32.0320   50.5530   41.0760 N.am  499  GLU499     -0.1979
    105  CA        31.2120   51.4680   41.8430 C.3   499  GLU499      0.1602
    106  C         32.0480   52.4140   42.7550 C.2   499  GLU499      0.2287
    107  O         31.6890   53.5890   42.8700 O.2   499  GLU499     -0.2864
    108  CB        29.9890   50.8190   42.5220 C.3   499  GLU499      0.0415
    109  CG        30.1900   49.6790   43.4740 C.3   499  GLU499      0.1163
    110  CD        28.8460   49.0490   43.9240 C.2   499  GLU499      0.3649
    111  OE1       27.7750   49.5500   43.5670 O.co2 499  GLU499     -0.2457
    112  OE2       28.8620   48.0580   44.6490 O.co2 499  GLU499     -0.2457
    113  N         33.6260   55.2790   40.4500 N.3   502  ARG502     -0.1245
    114  CA        32.5780   56.3050   40.2590 C.3   502  ARG502      0.1563
    115  C         32.5030   57.3050   41.4200 C.2   502  ARG502      0.2260
    116  O         32.7190   58.5020   41.2390 O.2   502  ARG502     -0.2867
    117  CB        31.1950   55.6600   40.1280 C.3   502  ARG502      0.0307
    118  CG        30.6790   55.4730   38.7410 C.3   502  ARG502      0.0489
    119  CD        29.1520   55.4370   38.7840 C.3   502  ARG502      0.2205
    120  NE        28.5960   56.7760   39.0360 N.pl3 502  ARG502     -0.0865
    121  CZ        27.5130   57.0500   39.7750 C.cat 502  ARG502      0.5346
    122  NH1       26.8180   56.0840   40.3790 N.pl3 502  ARG502      0.1354
    123  NH2       27.1180   58.3120   39.9160 N.pl3 502  ARG502      0.1354
@<TRIPOS>BOND
     1     1     2    1
     2    13    12    2
     3    12    11    1
     4     2     3    1
     5     2     5    1
     6    10    11    1
     7     3     4    2
     8    11    14    1
     9    72    73    1
    10     6     5    1
    11     6     7    1
    12     9     7   am
    13     7     8    2
    14    14    15    1
    15    73    74    1
    16    73    76    1
    17    74    75    2
    18    76    77    1
    19    15    17   ar
    20    15    16   ar
    21    17    19   ar
    22    50    49    1
    23    83    84    1
    24    91    89   ar
    25    16    18   ar
    26    19    18   ar
    27    77    79   ar
    28    77    78   ar
    29    89    88    1
    30    89    90   ar
    31    49    48    1
    32    49    51    1
    33    88    87    1
    34    48    45    1
    35    79    81   ar
    36    31    28    1
    37    84    87    1
    38    84    85    1
    39    78    80   ar
    40    26    20    1
    41    26    25    1
    42    29    28    1
    43    29    30    2
    44    20    21    1
    45    85    86    2
    46    28    27    1
    47    27    22   am
    48    46    47    2
    49    46    45    1
    50    45    44    1
    51    81    82   ar
    52    80    82   ar
    53    25    24    1
    54    44    34   am
    55    21    22    1
    56    21    24    1
    57    22    23    2
    58    62    60    1
    59    32    33    1
    60    34    33    1
    61    34    35    2
    62    33    36    1
    63    60    61    1
    64    60    59    2
    65    36    37    1
    66    59    58    1
    67   103   100    1
    68    98    96    1
    69   118   119    1
    70   118   117    1
    71   119   120    1
    72   120   121    2
    73    66    65    2
    74    39    37   ar
    75    39    41   ar
    76    37    38   ar
    77   100   101    1
    78   100    99    1
    79    58    57    1
    80    92    93    1
    81    96    93    1
    82    96    97    1
    83    57    56    1
    84   121   123    1
    85   121   122    1
    86    93    94    1
    87   102   101    2
    88    64    65    1
    89    64    63    1
    90    64    67    1
    91    52    53    1
    92   117   114    1
    93   101   104   am
    94   114   113    1
    95   114   115    1
    96    41    42   ar
    97    68    67    1
    98    68    69    1
    99    38    40   ar
   100    95    94    2
   101    53    56    1
   102    53    54    1
   103   104   105    1
   104    69    70    1
   105   116   115    2
   106    70    71    1
   107    42    40   ar
   108    42    43    1
   109   105   108    1
   110   105   106    1
   111    54    55    2
   112   108   109    1
   113   106   107    2
   114   109   110    1
   115   111   110   ar
   116   110   112   ar
