@<TRIPOS>MOLECULE
tmp/3mprA00.pdb
 107 112 0 0 0
SMALL
GASTEIGER

@<TRIPOS>ATOM
      1  N         58.3070   64.3290   21.6590 N.3     4  PRO4       -0.2116
      2  CA        58.2260   62.8790   21.4570 C.3     4  PRO4        0.1372
      3  C         58.1130   62.5980   19.9650 C.2     4  PRO4        0.2244
      4  O         57.6650   63.4570   19.2030 O.2     4  PRO4       -0.2868
      5  CB        56.9220   62.4790   22.1650 C.3     4  PRO4        0.0268
      6  CG        56.1950   63.7820   22.4900 C.3     4  PRO4        0.0207
      7  CD        56.9850   64.9260   21.9150 C.3     4  PRO4        0.0892
      8  N         63.9790   48.3840   24.2200 N.3   230  PRO230     -0.2102
      9  CA        62.8740   48.5360   25.1760 C.3   230  PRO230      0.1504
     10  C         62.5420   50.0040   25.4420 C.2   230  PRO230      0.2576
     11  O         61.4950   50.2910   26.0150 O.2   230  PRO230     -0.2718
     12  CB        63.4050   47.8760   26.4580 C.3   230  PRO230      0.0282
     13  CG        64.6310   47.1110   26.0470 C.3   230  PRO230      0.0208
     14  CD        65.1690   47.7590   24.8140 C.3   230  PRO230      0.0893
     15  N         63.4080   50.9200   25.0170 N.am  231  SER231     -0.1938
     16  CA        63.1450   52.3480   25.1890 C.3   231  SER231      0.2055
     17  C         62.0160   52.8560   24.2880 C.2   231  SER231      0.2643
     18  O         61.4140   53.9020   24.5640 O.2   231  SER231     -0.2714
     19  CB        64.4240   53.1640   24.9730 C.3   231  SER231      0.2130
     20  OG        65.0050   52.8620   23.7190 O.3   231  SER231     -0.2179
     21  N         61.7150   52.1180   23.2160 N.am  232  PHE232     -0.1959
     22  CA        60.5400   52.4420   22.4110 C.3   232  PHE232      0.1771
     23  C         59.2690   51.9800   23.0980 C.2   232  PHE232      0.2619
     24  O         59.2300   50.9120   23.7020 O.2   232  PHE232     -0.2715
     25  CB        60.5690   51.7580   21.0360 C.3   232  PHE232      0.0574
     26  CG        61.4930   52.3870   20.0580 C.ar  232  PHE232     -0.0200
     27  CD1       61.1310   53.5510   19.3870 C.ar  232  PHE232     -0.0042
     28  CD2       62.7170   51.7980   19.7710 C.ar  232  PHE232     -0.0042
     29  CE1       61.9850   54.1240   18.4590 C.ar  232  PHE232     -0.0003
     30  CE2       63.5730   52.3700   18.8410 C.ar  232  PHE232     -0.0003
     31  CZ        63.2070   53.5280   18.1830 C.ar  232  PHE232     -0.0000
     32  N         58.2150   52.7670   22.9790 N.am  233  HIS233     -0.1973
     33  CA        56.9030   52.2690   23.3650 C.3   233  HIS233      0.1656
     34  C         56.2040   51.7360   22.1150 C.2   233  HIS233      0.2291
     35  O         56.0790   52.4490   21.1200 O.2   233  HIS233     -0.2864
     36  CB        56.0500   53.3570   23.9930 C.3   233  HIS233      0.0771
     37  CG        54.7320   52.8490   24.4840 C.ar  233  HIS233      0.0820
     38  ND1       54.6230   52.0000   25.5650 N.ar  233  HIS233     -0.2267
     39  CD2       53.4750   53.0260   24.0160 C.ar  233  HIS233      0.1154
     40  CE1       53.3510   51.6950   25.7560 C.ar  233  HIS233      0.1986
     41  NE2       52.6340   52.3060   24.8290 N.ar  233  HIS233     -0.2212
     42  N         56.3240   54.9060   19.5160 N.3   268  VAL268     -0.1231
     43  CA        56.5430   56.2460   20.0280 C.3   268  VAL268      0.1692
     44  C         57.8170   56.2530   20.8500 C.2   268  VAL268      0.2592
     45  O         58.1040   55.2930   21.5830 O.2   268  VAL268     -0.2718
     46  CB        55.3860   56.7440   20.9230 C.3   268  VAL268      0.0266
     47  CG1       55.7230   58.1270   21.4790 C.3   268  VAL268      0.0020
     48  CG2       54.0860   56.7960   20.1420 C.3   268  VAL268      0.0020
     49  N         58.5830   57.3320   20.7280 N.am  269  PHE269     -0.1962
     50  CA        59.7830   57.4980   21.5420 C.3   269  PHE269      0.1771
     51  C         59.7380   58.8400   22.2830 C.2   269  PHE269      0.2619
     52  O         59.6140   59.9000   21.6700 O.2   269  PHE269     -0.2715
     53  CB        61.0440   57.4120   20.6790 C.3   269  PHE269      0.0574
     54  CG        62.3170   57.3130   21.4830 C.ar  269  PHE269     -0.0200
     55  CD1       62.9680   58.4530   21.9260 C.ar  269  PHE269     -0.0042
     56  CD2       62.8460   56.0760   21.8060 C.ar  269  PHE269     -0.0042
     57  CE1       64.1390   58.3610   22.6650 C.ar  269  PHE269     -0.0003
     58  CE2       64.0180   55.9740   22.5380 C.ar  269  PHE269     -0.0003
     59  CZ        64.6590   57.1210   22.9770 C.ar  269  PHE269     -0.0000
     60  N         59.8280   58.7740   23.6060 N.am  270  ASP270     -0.1971
     61  CA        59.8290   59.9580   24.4630 C.3   270  ASP270      0.1709
     62  C         61.2910   60.3100   24.7530 C.2   270  ASP270      0.2293
     63  O         61.9630   59.6040   25.4910 O.2   270  ASP270     -0.2864
     64  CB        59.0900   59.5880   25.7560 C.3   270  ASP270      0.1436
     65  CG        58.9360   60.7490   26.7320 C.2   270  ASP270      0.3671
     66  OD1       59.7410   61.6860   26.7190 O.co2 270  ASP270     -0.2456
     67  OD2       57.9900   60.7020   27.5390 O.co2 270  ASP270     -0.2456
     68  N         61.9170   60.8580   28.8030 N.3   273  HIS273     -0.1226
     69  CA        61.8330   59.6790   29.6670 C.3   273  HIS273      0.1752
     70  C         61.5640   58.4050   28.8720 C.2   273  HIS273      0.2596
     71  O         60.4400   58.1740   28.4330 O.2   273  HIS273     -0.2718
     72  CB        60.7230   59.8690   30.7030 C.3   273  HIS273      0.0759
     73  CG        60.8550   61.1310   31.4970 C.ar  273  HIS273      0.0818
     74  ND1       61.7510   61.2680   32.5350 N.ar  273  HIS273     -0.2268
     75  CD2       60.2100   62.3170   31.3960 C.ar  273  HIS273      0.1154
     76  CE1       61.6480   62.4820   33.0460 C.ar  273  HIS273      0.1986
     77  NE2       60.7190   63.1390   32.3730 N.ar  273  HIS273     -0.2212
     78  N         62.5890   57.5810   28.6950 N.am  274  HIS274     -0.1961
     79  CA        62.4330   56.3610   27.9260 C.3   274  HIS274      0.1787
     80  C         63.1850   55.2030   28.5530 C.2   274  HIS274      0.2620
     81  O         63.4880   54.2290   27.8860 O.2   274  HIS274     -0.2715
     82  CB        62.9140   56.5750   26.4960 C.3   274  HIS274      0.0785
     83  CG        64.2360   57.2750   26.4050 C.ar  274  HIS274      0.0821
     84  ND1       65.4380   56.6260   26.5900 N.ar  274  HIS274     -0.2267
     85  CD2       64.5410   58.5690   26.1460 C.ar  274  HIS274      0.1154
     86  CE1       66.4280   57.4920   26.4530 C.ar  274  HIS274      0.1986
     87  NE2       65.9100   58.6780   26.1850 N.ar  274  HIS274     -0.2212
     88  N         63.4920   55.3060   29.8380 N.am  275  HIS275     -0.1959
     89  CA        64.2190   54.2320   30.4960 C.3   275  HIS275      0.1787
     90  C         63.3050   53.2610   31.2260 C.2   275  HIS275      0.2620
     91  O         62.2380   53.6260   31.7240 O.2   275  HIS275     -0.2715
     92  CB        65.2790   54.7800   31.4500 C.3   275  HIS275      0.0785
     93  CG        66.4550   53.8690   31.6110 C.ar  275  HIS275      0.0821
     94  ND1       67.4350   53.7460   30.6490 N.ar  275  HIS275     -0.2267
     95  CD2       66.7940   53.0150   32.6050 C.ar  275  HIS275      0.1154
     96  CE1       68.3350   52.8660   31.0510 C.ar  275  HIS275      0.1986
     97  NE2       67.9690   52.4060   32.2340 N.ar  275  HIS275     -0.2212
     98  N         63.7260   52.0040   31.2590 N.am  276  HIS276     -0.1973
     99  CA        63.0030   50.9720   31.9730 C.3   276  HIS276      0.1656
    100  C         63.8740   50.4710   33.1020 C.2   276  HIS276      0.2291
    101  O         65.0720   50.2500   32.9200 O.2   276  HIS276     -0.2864
    102  CB        62.6450   49.8200   31.0390 C.3   276  HIS276      0.0771
    103  CG        61.5310   50.1400   30.0950 C.ar  276  HIS276      0.0820
    104  ND1       60.3130   49.4960   30.1370 N.ar  276  HIS276     -0.2267
    105  CD2       61.4410   51.0530   29.0980 C.ar  276  HIS276      0.1154
    106  CE1       59.5260   49.9880   29.1970 C.ar  276  HIS276      0.1986
    107  NE2       60.1850   50.9370   28.5560 N.ar  276  HIS276     -0.2212
@<TRIPOS>BOND
     1    31    29   ar
     2    31    30   ar
     3    29    27   ar
     4    30    28   ar
     5     4     3    2
     6    27    26   ar
     7    42    43    1
     8    28    26   ar
     9     3     2    1
    10    43    44    1
    11    43    46    1
    12    26    25    1
    13    48    46    1
    14    53    54    1
    15    53    50    1
    16    49    44   am
    17    49    50    1
    18    44    45    2
    19    46    47    1
    20    25    22    1
    21    35    34    2
    22     2     1    1
    23     2     5    1
    24    54    56   ar
    25    54    55   ar
    26    50    51    1
    27     1     7    1
    28    52    51    2
    29    56    58   ar
    30     7     6    1
    31    55    57   ar
    32    34    33    1
    33     5     6    1
    34    51    60   am
    35    22    23    1
    36    22    21    1
    37    58    59   ar
    38    57    59   ar
    39    32    23   am
    40    32    33    1
    41    23    24    2
    42    21    17   am
    43    33    36    1
    44    60    61    1
    45    20    19    1
    46    36    37    1
    47    39    37   ar
    48    39    41   ar
    49     8    14    1
    50     8     9    1
    51    17    18    2
    52    17    16    1
    53    61    62    1
    54    61    64    1
    55    37    38   ar
    56    62    63    2
    57    14    13    1
    58    41    40   ar
    59    19    16    1
    60    15    16    1
    61    15    10   am
    62     9    10    1
    63     9    12    1
    64    10    11    2
    65    38    40   ar
    66    64    65    1
    67    13    12    1
    68    85    87   ar
    69    85    83   ar
    70    87    86   ar
    71    83    82    1
    72    83    84   ar
    73    86    84   ar
    74    82    79    1
    75    66    65   ar
    76    65    67   ar
    77    81    80    2
    78    79    80    1
    79    79    78    1
    80    71    70    2
    81    80    88   am
    82   107   105   ar
    83   107   106   ar
    84    78    70   am
    85    68    69    1
    86    70    69    1
    87   105   103   ar
    88   106   104   ar
    89    69    72    1
    90    88    89    1
    91   103   104   ar
    92   103   102    1
    93    89    90    1
    94    89    92    1
    95    94    96   ar
    96    94    93   ar
    97    72    73    1
    98   102    99    1
    99    96    97   ar
   100    90    98   am
   101    90    91    2
   102    98    99    1
   103    75    73   ar
   104    75    77   ar
   105    92    93    1
   106    73    74   ar
   107    93    95   ar
   108    99   100    1
   109    97    95   ar
   110    77    76   ar
   111    74    76   ar
   112   101   100    2
