@<TRIPOS>MOLECULE
tmp/3mptA00.pdb
 149 137 0 0 0
SMALL
GASTEIGER

@<TRIPOS>ATOM
      1  N         46.5350   31.9640   22.0060 N.3    27  VAL27      -0.1245
      2  CA        47.6130   31.9650   23.0080 C.3    27  VAL27       0.1561
      3  C         47.8680   30.5720   23.5870 C.2    27  VAL27       0.2260
      4  O         48.4480   30.4270   24.6580 O.2    27  VAL27      -0.2867
      5  CB        47.3980   33.0240   24.1450 C.3    27  VAL27       0.0252
      6  CG1       47.4970   34.4570   23.6000 C.3    27  VAL27       0.0019
      7  CG2       46.0660   32.8030   24.8750 C.3    27  VAL27       0.0019
      8  N         43.9420   25.8060   26.9310 N.3    30  GLY30      -0.1210
      9  CA        43.7830   25.6750   28.3860 C.3    30  GLY30       0.1956
     10  C         43.0010   24.4060   28.7090 C.2    30  GLY30       0.2611
     11  O         42.9870   23.4530   27.9130 O.2    30  GLY30      -0.2717
     12  N         42.3420   24.3830   29.8640 N.am   31  ALA31      -0.1979
     13  CA        41.5570   23.2150   30.2540 C.3    31  ALA31       0.1597
     14  C         40.3690   22.9440   29.3020 C.2    31  ALA31       0.2287
     15  O         39.3550   23.6710   29.2980 O.2    31  ALA31      -0.2864
     16  CB        41.1070   23.3120   31.7120 C.3    31  ALA31       0.0319
     17  N         42.4770   28.7150   23.6010 N.3    35  VAL35      -0.1245
     18  CA        42.2660   30.0420   24.1800 C.3    35  VAL35       0.1561
     19  C         42.7780   31.1610   23.2520 C.2    35  VAL35       0.2260
     20  O         43.8370   31.0250   22.6130 O.2    35  VAL35      -0.2867
     21  CB        42.9520   30.1800   25.5650 C.3    35  VAL35       0.0252
     22  CG1       42.5600   31.4810   26.2300 C.3    35  VAL35       0.0019
     23  CG2       42.6240   29.0050   26.4690 C.3    35  VAL35       0.0019
     24  N         40.7350   36.5970   28.1610 N.3    48  ALA48      -0.1245
     25  CA        40.9990   35.2930   27.5970 C.3    48  ALA48       0.1562
     26  C         39.6580   34.7160   27.2090 C.2    48  ALA48       0.2260
     27  O         38.7360   34.7040   28.0100 O.2    48  ALA48      -0.2867
     28  CB        41.7430   34.3880   28.5820 C.3    48  ALA48       0.0290
     29  N         38.0240   31.2710   25.8540 N.3    50  LYS50      -0.1245
     30  CA        38.2120   29.8650   25.5970 C.3    50  LYS50       0.1561
     31  C         37.0130   29.2680   24.8800 C.2    50  LYS50       0.2260
     32  O         35.8870   29.4070   25.3450 O.2    50  LYS50      -0.2867
     33  CB        38.4530   29.1420   26.9130 C.3    50  LYS50       0.0271
     34  CG        38.4840   27.6450   26.7920 C.3    50  LYS50       0.0035
     35  CD        39.1730   27.0010   27.9750 C.3    50  LYS50       0.0206
     36  CE        38.3870   27.1680   29.2510 C.3    50  LYS50       0.1093
     37  NZ        39.0230   26.2850   30.2850 N.3    50  LYS50      -0.1314
     38  N         32.5450   22.8710   34.5990 N.3    68  GLU68      -0.1245
     39  CA        33.4360   24.0160   34.5370 C.3    68  GLU68       0.1567
     40  C         32.6420   25.2930   34.6100 C.2    68  GLU68       0.2260
     41  O         33.0190   26.1990   35.3420 O.2    68  GLU68      -0.2867
     42  CB        34.3540   24.0120   33.3270 C.3    68  GLU68       0.0388
     43  CG        35.4120   25.1070   33.4190 C.3    68  GLU68       0.1160
     44  CD        36.2510   25.2290   32.1640 C.2    68  GLU68       0.3649
     45  OE1       35.9540   24.5280   31.1700 O.co2  68  GLU68      -0.2457
     46  OE2       37.2200   26.0180   32.1910 O.co2  68  GLU68      -0.2457
     47  N         32.9930   28.2550   37.3650 N.3    72  LEU72      -0.1245
     48  CA        33.3650   29.6060   36.9680 C.3    72  LEU72       0.1561
     49  C         32.2690   30.6220   37.2960 C.2    72  LEU72       0.2260
     50  O         32.5850   31.7720   37.6580 O.2    72  LEU72      -0.2867
     51  CB        33.7390   29.6520   35.4780 C.3    72  LEU72       0.0270
     52  CG        35.0160   28.9250   35.0670 C.3    72  LEU72       0.0019
     53  CD1       35.1750   28.9720   33.5470 C.3    72  LEU72       0.0001
     54  CD2       36.2240   29.5220   35.7430 C.3    72  LEU72       0.0001
     55  N         40.0340   33.2440   39.5410 N.3    81  ILE81      -0.1245
     56  CA        39.5100   33.5590   38.2060 C.3    81  ILE81       0.1561
     57  C         37.9740   33.3630   38.1800 C.2    81  ILE81       0.2260
     58  O         37.4530   32.2750   38.4750 O.2    81  ILE81      -0.2867
     59  CB        40.2250   32.7340   37.0840 C.3    81  ILE81       0.0252
     60  CG1       40.3950   33.5580   35.8250 C.3    81  ILE81       0.0019
     61  CG2       39.4730   31.4290   36.7450 C.3    81  ILE81       0.0019
     62  CD1       41.4000   34.6800   35.9680 C.3    81  ILE81       0.0001
     63  N         33.8940   30.7160   26.9630 N.3   101  LEU101     -0.1245
     64  CA        34.0680   31.2600   28.3180 C.3   101  LEU101      0.1561
     65  C         35.0610   32.4160   28.2590 C.2   101  LEU101      0.2260
     66  O         36.0930   32.2910   27.6110 O.2   101  LEU101     -0.2867
     67  CB        34.5880   30.1530   29.2500 C.3   101  LEU101      0.0270
     68  CG        33.7050   28.9050   29.2600 C.3   101  LEU101      0.0019
     69  CD1       34.4400   27.6790   29.7970 C.3   101  LEU101      0.0001
     70  CD2       32.4590   29.1490   30.0560 C.3   101  LEU101      0.0001
     71  N         37.3090   35.2780   30.5460 N.3   103  THR103     -0.1203
     72  CA        37.8720   35.6560   31.8540 C.3   103  THR103      0.1994
     73  C         39.0290   36.6660   31.6970 C.2   103  THR103      0.2618
     74  O         39.5060   36.9330   30.5730 O.2   103  THR103     -0.2717
     75  CB        38.4150   34.4240   32.6500 C.3   103  THR103      0.1784
     76  OG1       39.6450   33.9680   32.0690 O.3   103  THR103     -0.2211
     77  CG2       37.4050   33.2760   32.7030 C.3   103  THR103      0.0376
     78  N         39.4920   37.2230   32.8130 N.am  104  HIS104     -0.1961
     79  CA        40.6710   38.0910   32.8090 C.3   104  HIS104      0.1787
     80  C         41.8780   37.3780   32.2280 C.2   104  HIS104      0.2620
     81  O         42.0480   36.1730   32.4440 O.2   104  HIS104     -0.2715
     82  CB        41.0320   38.4420   34.2270 C.3   104  HIS104      0.0785
     83  CG        40.0500   39.3470   34.8800 C.ar  104  HIS104      0.0821
     84  ND1       40.0790   40.7150   34.7070 N.ar  104  HIS104     -0.2267
     85  CD2       39.0060   39.0880   35.7030 C.ar  104  HIS104      0.1154
     86  CE1       39.1010   41.2650   35.4060 C.ar  104  HIS104      0.1986
     87  NE2       38.4310   40.2990   36.0130 N.ar  104  HIS104     -0.2212
     88  N         42.7040   38.1100   31.4870 N.am  105  LEU105     -0.1963
     89  CA        43.9550   37.5680   30.9860 C.3   105  LEU105      0.1728
     90  C         45.0330   38.3600   31.6850 C.2   105  LEU105      0.2616
     91  O         45.0880   39.5710   31.5540 O.2   105  LEU105     -0.2715
     92  CB        44.0790   37.6930   29.4570 C.3   105  LEU105      0.0311
     93  CG        45.3670   37.0560   28.8780 C.3   105  LEU105      0.0022
     94  CD1       45.5050   35.5690   29.2470 C.3   105  LEU105      0.0001
     95  CD2       45.4470   37.1830   27.3930 C.3   105  LEU105      0.0001
     96  N         45.8710   37.6880   32.4640 N.am  106  MET106     -0.1963
     97  CA        46.9060   38.3900   33.2210 C.3   106  MET106      0.1736
     98  C         48.1860   38.2990   32.4020 C.2   106  MET106      0.2617
     99  O         48.3020   37.4430   31.5240 O.2   106  MET106     -0.2715
    100  CB        47.0960   37.7440   34.5990 C.3   106  MET106      0.0427
    101  CG        45.8050   37.2720   35.2870 C.3   106  MET106      0.0599
    102  SD        44.9330   38.4330   36.3530 S.3   106  MET106     -0.1393
    103  CE        45.9870   38.5030   37.7960 C.3   106  MET106      0.0692
    104  N         49.1550   39.1590   32.6770 N.am  107  GLY107     -0.1940
    105  CA        50.4200   39.1130   31.9080 C.3   107  GLY107      0.2014
    106  C         51.1200   37.7520   31.8190 C.2   107  GLY107      0.2639
    107  O         51.6750   37.3990   30.7720 O.2   107  GLY107     -0.2714
    108  N         51.0930   36.9780   32.9040 N.am  108  ALA108     -0.1963
    109  CA        51.8370   35.7230   32.9430 C.3   108  ALA108      0.1728
    110  C         51.4120   34.7790   34.0560 C.2   108  ALA108      0.2616
    111  O         50.5810   35.1120   34.8920 O.2   108  ALA108     -0.2715
    112  CB        53.3400   36.0330   33.0840 C.3   108  ALA108      0.0334
    113  N         51.9990   33.5940   34.0770 N.am  109  ASP109     -0.1971
    114  CA        51.7920   32.7230   35.2270 C.3   109  ASP109      0.1709
    115  C         52.9860   32.7790   36.1940 C.2   109  ASP109      0.2293
    116  O         54.0030   33.4410   35.9220 O.2   109  ASP109     -0.2864
    117  CB        51.5010   31.2970   34.7880 C.3   109  ASP109      0.1436
    118  CG        52.6720   30.6550   34.1230 C.2   109  ASP109      0.3671
    119  OD1       53.8070   30.8580   34.5890 O.co2 109  ASP109     -0.2456
    120  OD2       52.4530   29.9350   33.1450 O.co2 109  ASP109     -0.2456
    121  N         56.6500   31.9050   35.1090 N.3   112  ASN112     -0.1240
    122  CA        57.4470   32.9300   34.4460 C.3   112  ASN112      0.1653
    123  C         58.0930   33.8680   35.4190 C.2   112  ASN112      0.2266
    124  O         59.1730   34.3920   35.1740 O.2   112  ASN112     -0.2867
    125  CB        56.5870   33.7470   33.4850 C.3   112  ASN112      0.1155
    126  CG        56.0770   32.9250   32.3230 C.2   112  ASN112      0.2627
    127  OD1       56.5480   31.7960   32.0950 O.2   112  ASN112     -0.2716
    128  ND2       55.1070   33.4770   31.5740 N.am  112  ASN112     -0.0877
    129  N         47.8480   32.8020   37.9210 N.3   154  ALA154     -0.1245
    130  CA        47.9440   33.9430   37.0300 C.3   154  ALA154      0.1562
    131  C         48.3910   35.1760   37.8090 C.2   154  ALA154      0.2260
    132  O         47.7990   35.5550   38.8500 O.2   154  ALA154     -0.2867
    133  CB        46.6100   34.1830   36.3810 C.3   154  ALA154      0.0290
    134  N         43.6330   29.5710   38.9570 N.3   164  LEU164     -0.1231
    135  CA        42.8940   29.0350   37.8010 C.3   164  LEU164      0.1693
    136  C         42.7780   27.5200   37.8880 C.2   164  LEU164      0.2592
    137  O         43.5840   26.8650   38.5570 O.2   164  LEU164     -0.2718
    138  CB        43.6610   29.3090   36.4930 C.3   164  LEU164      0.0284
    139  CG        44.5830   30.5050   36.2660 C.3   164  LEU164      0.0019
    140  CD1       45.5960   30.1340   35.2490 C.3   164  LEU164      0.0001
    141  CD2       43.8340   31.7590   35.8460 C.3   164  LEU164      0.0001
    142  N         41.8050   26.9650   37.1690 N.am  165  ASP165     -0.1974
    143  CA        41.6230   25.5040   37.0160 C.3   165  ASP165      0.1709
    144  C         41.2940   24.6760   38.2580 C.2   165  ASP165      0.2293
    145  O         41.7140   23.5260   38.3730 O.2   165  ASP165     -0.2864
    146  CB        42.8150   24.8900   36.2760 C.3   165  ASP165      0.1436
    147  CG        42.8790   25.3100   34.8030 C.2   165  ASP165      0.3671
    148  OD1       41.8130   25.5310   34.1690 O.co2 165  ASP165     -0.2456
    149  OD2       44.0120   25.4050   34.2760 O.co2 165  ASP165     -0.2456
@<TRIPOS>BOND
     1     1     2    1
     2    20    19    2
     3     2     3    1
     4     2     5    1
     5    19    18    1
     6     3     4    2
     7     6     5    1
     8    17    18    1
     9     5     7    1
    10    18    21    1
    11    31    32    2
    12    31    30    1
    13    21    22    1
    14    21    23    1
    15    30    29    1
    16    30    33    1
    17    34    33    1
    18    34    35    1
    19     8     9    1
    20    63    64    1
    21    26    25    1
    22    26    27    2
    23    95    93    1
    24    25    24    1
    25    25    28    1
    26    66    65    2
    27    11    10    2
    28    35    36    1
    29    65    64    1
    30    64    67    1
    31     9    10    1
    32    10    12   am
    33    93    94    1
    34    93    92    1
    35    67    68    1
    36    36    37    1
    37    68    69    1
    38    68    70    1
    39    15    14    2
    40    14    13    1
    41    92    89    1
    42    12    13    1
    43    13    16    1
    44    71    72    1
    45    74    73    2
    46   107   106    2
    47    89    88    1
    48    89    90    1
    49    45    44   ar
    50    88    80   am
    51    99    98    2
    52    91    90    2
    53   128   126   am
    54    90    96   am
    55    73    72    1
    56    73    78   am
    57   106   105    1
    58   106   108   am
    59    72    75    1
    60   105   104    1
    61    76    75    1
    62   127   126    2
    63    44    46   ar
    64    44    43    1
    65    80    81    2
    66    80    79    1
    67   126   125    1
    68    98   104   am
    69    98    97    1
    70    96    97    1
    71    75    77    1
    72    79    78    1
    73    79    82    1
    74   108   109    1
    75   109   112    1
    76   109   110    1
    77   120   118   ar
    78    97   100    1
    79    42    43    1
    80    42    39    1
    81   125   122    1
    82    53    52    1
    83   110   113   am
    84   110   111    2
    85   113   114    1
    86   118   119   ar
    87   118   117    1
    88   148   147   ar
    89    82    83    1
    90   149   147   ar
    91   122   121    1
    92   122   123    1
    93    39    38    1
    94    39    40    1
    95   100   101    1
    96    40    41    2
    97    84    83   ar
    98    84    86   ar
    99   117   114    1
   100   147   146    1
   101    83    85   ar
   102    52    51    1
   103    52    54    1
   104   124   123    2
   105   114   115    1
   106   140   139    1
   107   101   102    1
   108    86    87   ar
   109    51    48    1
   110    85    87   ar
   111    60    62    1
   112    60    59    1
   113   141   139    1
   114   116   115    2
   115   139   138    1
   116   146   143    1
   117   102   103    1
   118   133   130    1
   119   138   135    1
   120    61    59    1
   121    48    49    1
   122    48    47    1
   123   143   142    1
   124   143   144    1
   125   130   131    1
   126   130   129    1
   127    59    56    1
   128   142   136   am
   129    49    50    2
   130   135   136    1
   131   135   134    1
   132   131   132    2
   133   136   137    2
   134    57    56    1
   135    57    58    2
   136    56    55    1
   137   144   145    2
