@<TRIPOS>MOLECULE
tmp/3mq1A00.pdb
 73 66 0 0 0
SMALL
GASTEIGER

@<TRIPOS>ATOM
      1  N         33.9140   45.8060   88.6830 N.3    11  ILE11      -0.1245
      2  CA        34.0230   45.1920   87.3660 C.3    11  ILE11       0.1561
      3  C         34.8920   43.9380   87.4160 C.2    11  ILE11       0.2260
      4  O         34.5060   42.8850   86.9070 O.2    11  ILE11      -0.2867
      5  CB        34.6000   46.1690   86.3250 C.3    11  ILE11       0.0252
      6  CG1       33.6840   47.3840   86.1650 C.3    11  ILE11       0.0019
      7  CG2       34.7780   45.4710   84.9920 C.3    11  ILE11       0.0019
      8  CD1       34.2230   48.4360   85.2180 C.3    11  ILE11       0.0001
      9  N         33.4970   40.3700   88.5090 N.3    14  GLY14      -0.1210
     10  CA        32.9320   39.4120   87.5780 C.3    14  GLY14       0.1956
     11  C         33.9600   38.4110   87.0910 C.2    14  GLY14       0.2611
     12  O         33.7020   37.2090   87.0520 O.2    14  GLY14      -0.2717
     13  N         35.1330   38.9120   86.7180 N.am   15  GLU15      -0.1979
     14  CA        36.2200   38.0570   86.2560 C.3    15  GLU15       0.1602
     15  C         36.6920   37.1340   87.3750 C.2    15  GLU15       0.2287
     16  O         36.9820   35.9610   87.1440 O.2    15  GLU15      -0.2864
     17  CB        37.3860   38.9000   85.7360 C.3    15  GLU15       0.0415
     18  CG        37.0360   39.7790   84.5440 C.3    15  GLU15       0.1163
     19  CD        38.2340   40.5380   84.0050 C.2    15  GLU15       0.3649
     20  OE1       39.3480   40.3490   84.5370 O.co2  15  GLU15      -0.2457
     21  OE2       38.0620   41.3230   83.0490 O.co2  15  GLU15      -0.2457
     22  N         35.0120   35.8390   89.8280 N.3    17  ALA17      -0.1231
     23  CA        34.0650   34.7400   89.9710 C.3    17  ALA17       0.1694
     24  C         34.3380   33.6310   88.9610 C.2    17  ALA17       0.2591
     25  O         34.3570   32.4520   89.3120 O.2    17  ALA17      -0.2718
     26  CB        32.6400   35.2510   89.8250 C.3    17  ALA17       0.0304
     27  N         34.5450   34.0170   87.7070 N.am   18  LEU18      -0.1980
     28  CA        34.7880   33.0540   86.6380 C.3    18  LEU18       0.1596
     29  C         36.1080   32.3200   86.8420 C.2    18  LEU18       0.2287
     30  O         36.1630   31.0920   86.7740 O.2    18  LEU18      -0.2864
     31  CB        34.7700   33.7470   85.2740 C.3    18  LEU18       0.0297
     32  CG        33.4370   34.3720   84.8630 C.3    18  LEU18       0.0022
     33  CD1       33.5630   35.0680   83.5180 C.3    18  LEU18       0.0001
     34  CD2       32.3400   33.3190   84.8240 C.3    18  LEU18       0.0001
     35  N         24.9340   32.0910   87.6240 N.3    47  ILE47      -0.1245
     36  CA        25.6320   32.9290   86.6560 C.3    47  ILE47       0.1561
     37  C         24.8830   32.9630   85.3270 C.2    47  ILE47       0.2260
     38  O         24.7330   34.0190   84.7150 O.2    47  ILE47      -0.2867
     39  CB        27.0700   32.4320   86.4140 C.3    47  ILE47       0.0252
     40  CG1       27.8670   32.4470   87.7200 C.3    47  ILE47       0.0019
     41  CG2       27.7590   33.2830   85.3580 C.3    47  ILE47       0.0019
     42  CD1       29.3120   32.0340   87.5570 C.3    47  ILE47       0.0001
     43  N         21.8570   35.0900   85.4650 N.3    50  MET50      -0.1230
     44  CA        22.2060   36.5000   85.3740 C.3    50  MET50       0.1702
     45  C         22.3710   36.9210   83.9180 C.2    50  MET50       0.2592
     46  O         21.9250   37.9960   83.5190 O.2    50  MET50      -0.2718
     47  CB        23.4880   36.7890   86.1570 C.3    50  MET50       0.0401
     48  CG        23.8310   38.2650   86.2630 C.3    50  MET50       0.0596
     49  SD        25.2870   38.5690   87.2820 S.3    50  MET50      -0.1393
     50  CE        25.3090   40.3600   87.3120 C.3    50  MET50       0.0692
     51  N         23.0120   36.0650   83.1280 N.am   51  ILE51      -0.1980
     52  CA        23.2070   36.3340   81.7080 C.3    51  ILE51       0.1595
     53  C         21.8690   36.4330   80.9830 C.2    51  ILE51       0.2287
     54  O         21.6560   37.3350   80.1740 O.2    51  ILE51      -0.2864
     55  CB        24.0680   35.2480   81.0380 C.3    51  ILE51       0.0276
     56  CG1       25.4310   35.1470   81.7260 C.3    51  ILE51       0.0022
     57  CG2       24.2390   35.5430   79.5560 C.3    51  ILE51       0.0022
     58  CD1       26.3420   34.1000   81.1240 C.3    51  ILE51       0.0001
     59  N         20.2230   39.7600   82.0010 N.3    54  VAL54      -0.1245
     60  CA        20.8790   40.9000   81.3700 C.3    54  VAL54       0.1561
     61  C         20.5390   40.9910   79.8860 C.2    54  VAL54       0.2260
     62  O         20.3220   42.0810   79.3570 O.2    54  VAL54      -0.2867
     63  CB        22.4100   40.8360   81.5350 C.3    54  VAL54       0.0252
     64  CG1       23.0780   41.9380   80.7270 C.3    54  VAL54       0.0019
     65  CG2       22.7900   40.9390   83.0040 C.3    54  VAL54       0.0019
     66  N         29.6340   33.5740   76.4810 N.3    85  LEU85      -0.1245
     67  CA        29.8510   33.1310   77.8540 C.3    85  LEU85       0.1561
     68  C         28.8800   32.0260   78.2590 C.2    85  LEU85       0.2260
     69  O         29.2820   31.0200   78.8420 O.2    85  LEU85      -0.2867
     70  CB        29.7430   34.3090   78.8260 C.3    85  LEU85       0.0270
     71  CG        29.9230   33.9810   80.3090 C.3    85  LEU85       0.0019
     72  CD1       31.2360   33.2500   80.5470 C.3    85  LEU85       0.0001
     73  CD2       29.8460   35.2430   81.1540 C.3    85  LEU85       0.0001
@<TRIPOS>BOND
     1    66    67    1
     2    67    68    1
     3    67    70    1
     4    68    69    2
     5    70    71    1
     6    62    61    2
     7    57    55    1
     8    61    60    1
     9    54    53    2
    10    71    72    1
    11    71    73    1
    12    64    63    1
    13    53    52    1
    14    55    52    1
    15    55    56    1
    16    58    56    1
    17    60    63    1
    18    60    59    1
    19    63    65    1
    20    52    51    1
    21    21    19   ar
    22    51    45   am
    23    33    32    1
    24    46    45    2
    25    45    44    1
    26    19    20   ar
    27    19    18    1
    28    18    17    1
    29    38    37    2
    30    34    32    1
    31    32    31    1
    32     7     5    1
    33     8     6    1
    34    31    28    1
    35    37    36    1
    36    41    39    1
    37    44    43    1
    38    44    47    1
    39    17    14    1
    40    47    48    1
    41     6     5    1
    42    14    13    1
    43    14    15    1
    44    48    49    1
    45     5     2    1
    46    39    36    1
    47    39    40    1
    48    28    29    1
    49    28    27    1
    50    36    35    1
    51    13    11   am
    52    30    29    2
    53     4     3    2
    54    12    11    2
    55    11    10    1
    56    16    15    2
    57    49    50    1
    58     2     3    1
    59     2     1    1
    60    42    40    1
    61    10     9    1
    62    27    24   am
    63    24    25    2
    64    24    23    1
    65    26    23    1
    66    22    23    1
