@<TRIPOS>MOLECULE
tmp/3mq2A00.pdb
 189 187 0 0 0
SMALL
GASTEIGER

@<TRIPOS>ATOM
      1  N          8.4650    7.5370    1.9010 N.3    30  ASP30      -0.1239
      2  CA         7.7540    6.4420    1.2430 C.3    30  ASP30       0.1674
      3  C          6.8200    5.8010    2.2700 C.2    30  ASP30       0.2266
      4  O          7.2810    5.2940    3.2880 O.2    30  ASP30      -0.2867
      5  CB         8.7390    5.3950    0.7030 C.3    30  ASP30       0.1410
      6  CG         8.0760    4.3800   -0.2220 C.2    30  ASP30       0.3668
      7  OD1        7.0620    4.7300   -0.8570 O.co2  30  ASP30      -0.2456
      8  OD2        8.5670    3.2340   -0.3300 O.co2  30  ASP30      -0.2456
      9  N          4.1750    2.9330    3.3640 N.3    32  GLY32      -0.1210
     10  CA         3.8430    1.5670    3.0000 C.3    32  GLY32       0.1956
     11  C          4.9250    0.9350    2.1480 C.2    32  GLY32       0.2613
     12  O          4.6500    0.3800    1.0890 O.2    32  GLY32      -0.2717
     13  N          6.1590    0.9940    2.6340 N.am   33  THR33      -0.1938
     14  CA         7.3330    0.6810    1.8180 C.3    33  THR33       0.2028
     15  C          7.5910   -0.8200    1.6340 C.2    33  THR33       0.2643
     16  O          8.3880   -1.2270    0.7640 O.2    33  THR33      -0.2714
     17  CB         8.5760    1.3700    2.4080 C.3    33  THR33       0.1808
     18  OG1        9.6090    1.4730    1.4180 O.3    33  THR33      -0.2208
     19  CG2        9.0850    0.6020    3.6280 C.3    33  THR33       0.0379
     20  N          6.9400   -1.6530    2.4420 N.am   34  GLY34      -0.1939
     21  CA         7.0740   -3.0940    2.2680 C.3    34  GLY34       0.2014
     22  C          8.5000   -3.5290    2.5490 C.2    34  GLY34       0.2638
     23  O          9.0450   -3.1980    3.6030 O.2    34  GLY34      -0.2714
     24  N          9.1190   -4.2610    1.6220 N.am   35  ASP35      -0.1971
     25  CA        10.5130   -4.6680    1.8310 C.3    35  ASP35       0.1709
     26  C         11.5460   -3.5400    1.7150 C.2    35  ASP35       0.2293
     27  O         12.7210   -3.7430    2.0320 O.2    35  ASP35      -0.2864
     28  CB        10.9100   -5.8680    0.9580 C.3    35  ASP35       0.1436
     29  CG        10.9920   -5.5380   -0.5180 C.2    35  ASP35       0.3671
     30  OD1       11.0450   -4.3460   -0.9000 O.co2  35  ASP35      -0.2456
     31  OD2       11.0300   -6.5020   -1.3090 O.co2  35  ASP35      -0.2456
     32  N         12.5370    0.2130   -2.7870 N.3    38  HIS38      -0.1241
     33  CA        12.3640    1.4760   -3.5010 C.3    38  HIS38       0.1621
     34  C         13.1060    2.6360   -2.8390 C.2    38  HIS38       0.2264
     35  O         13.8770    3.3370   -3.4810 O.2    38  HIS38      -0.2867
     36  CB        10.8690    1.8050   -3.6440 C.3    38  HIS38       0.0745
     37  CG        10.5960    3.2130   -4.0770 C.ar   38  HIS38       0.0817
     38  ND1       10.9510    3.6930   -5.3200 N.ar   38  HIS38      -0.2268
     39  CD2       10.0160    4.2490   -3.4250 C.ar   38  HIS38       0.1154
     40  CE1       10.5980    4.9630   -5.4150 C.ar   38  HIS38       0.1986
     41  NE2       10.0230    5.3230   -4.2800 N.ar   38  HIS38      -0.2212
     42  N          8.3790    4.0150    5.6960 N.3    54  LEU54      -0.1231
     43  CA         7.7100    3.3590    6.8080 C.3    54  LEU54       0.1693
     44  C          6.7700    2.2640    6.3430 C.2    54  LEU54       0.2592
     45  O          6.3160    2.2480    5.1850 O.2    54  LEU54      -0.2718
     46  CB         6.9870    4.3780    7.6830 C.3    54  LEU54       0.0284
     47  CG         6.0370    5.3420    6.9840 C.3    54  LEU54       0.0019
     48  CD1        4.6850    4.6860    6.8280 C.3    54  LEU54       0.0001
     49  CD2        5.9070    6.6290    7.7850 C.3    54  LEU54       0.0001
     50  N          6.5150    1.3170    7.2400 N.am   55  ASP55      -0.1960
     51  CA         5.5130    0.2980    6.9730 C.3    55  ASP55       0.1840
     52  C          4.9230   -0.1280    8.2950 C.2    55  ASP55       0.2622
     53  O          5.5970   -0.0670    9.3300 O.2    55  ASP55      -0.2715
     54  CB         6.1300   -0.9270    6.3010 C.3    55  ASP55       0.1450
     55  CG         5.0980   -1.7670    5.5700 C.2    55  ASP55       0.3671
     56  OD1        4.9270   -1.5560    4.3480 O.co2  55  ASP55      -0.2456
     57  OD2        4.4400   -2.6190    6.2110 O.co2  55  ASP55      -0.2456
     58  N          3.6760   -0.5800    8.2460 N.am   56  ALA56      -0.1963
     59  CA         3.0040   -1.0990    9.4470 C.3    56  ALA56       0.1728
     60  C          3.6370   -2.3990    9.9290 C.2    56  ALA56       0.2616
     61  O          3.5480   -2.7410   11.1140 O.2    56  ALA56      -0.2715
     62  CB         1.5350   -1.3220    9.1530 C.3    56  ALA56       0.0334
     63  N          4.2610   -3.1390    9.0120 N.am   57  ASP57      -0.1971
     64  CA         4.8360   -4.4450    9.3410 C.3    57  ASP57       0.1709
     65  C          6.3660   -4.3840    9.4120 C.2    57  ASP57       0.2293
     66  O          7.0350   -4.3360    8.3800 O.2    57  ASP57      -0.2864
     67  CB         4.4000   -5.4780    8.2940 C.3    57  ASP57       0.1436
     68  CG         4.9510   -6.8730    8.5670 C.2    57  ASP57       0.3671
     69  OD1        5.8230   -7.0320    9.4480 O.co2  57  ASP57      -0.2456
     70  OD2        4.5100   -7.8200    7.8830 O.co2  57  ASP57      -0.2456
     71  N          8.9320   -6.8990    7.4070 N.3    60  ARG60      -0.1245
     72  CA         9.1950   -6.7830    5.9720 C.3    60  ARG60       0.1563
     73  C         10.4940   -6.0410    5.6930 C.2    60  ARG60       0.2260
     74  O         11.1870   -6.3230    4.7220 O.2    60  ARG60      -0.2867
     75  CB         8.0550   -6.0490    5.2530 C.3    60  ARG60       0.0307
     76  CG         6.7040   -6.7370    5.2840 C.3    60  ARG60       0.0489
     77  CD         6.7100   -8.0740    4.5540 C.3    60  ARG60       0.2205
     78  NE         7.1980   -7.9920    3.1770 N.pl3  60  ARG60      -0.0865
     79  CZ         6.5740   -7.3600    2.1860 C.cat  60  ARG60       0.5346
     80  NH1        5.4380   -6.7130    2.4070 N.pl3  60  ARG60       0.1354
     81  NH2        7.1000   -7.3590    0.9690 N.pl3  60  ARG60       0.1354
     82  N          5.5110    2.2250   11.3830 N.3    85  ALA85      -0.1231
     83  CA         4.3520    3.0910   11.5880 C.3    85  ALA85       0.1694
     84  C          3.2890    2.8250   10.5480 C.2    85  ALA85       0.2593
     85  O          3.5960    2.3950    9.4430 O.2    85  ALA85      -0.2718
     86  CB         4.7650    4.5660   11.5210 C.3    85  ALA85       0.0304
     87  N          2.0380    3.0990   10.9070 N.am   86  THR86      -0.1939
     88  CA         0.9450    3.0050    9.9450 C.3    86  THR86       0.2028
     89  C          0.6230    4.3650    9.3560 C.2    86  THR86       0.2642
     90  O          0.9460    5.4040    9.9320 O.2    86  THR86      -0.2714
     91  CB        -0.3370    2.5000   10.6140 C.3    86  THR86       0.1808
     92  OG1       -0.8090    3.4860   11.5380 O.3    86  THR86      -0.2208
     93  CG2       -0.0610    1.1970   11.3580 C.3    86  THR86       0.0379
     94  N         -0.0680    4.3590    8.2210 N.am   87  ALA87      -0.1963
     95  CA        -0.5180    5.6080    7.6300 C.3    87  ALA87       0.1728
     96  C         -1.5770    6.3050    8.4870 C.2    87  ALA87       0.2616
     97  O         -1.7390    7.5280    8.4060 O.2    87  ALA87      -0.2715
     98  CB        -1.0310    5.3800    6.2060 C.3    87  ALA87       0.0334
     99  N         -2.2910    5.5370    9.3090 N.am   88  GLU88      -0.1977
    100  CA        -3.2720    6.1110   10.2260 C.3    88  GLU88       0.1602
    101  C         -2.6060    6.8720   11.3670 C.2    88  GLU88       0.2287
    102  O         -3.1680    7.8310   11.9010 O.2    88  GLU88      -0.2864
    103  CB        -4.1570    5.0080   10.8170 C.3    88  GLU88       0.0415
    104  CG        -5.1830    4.4280    9.8460 C.3    88  GLU88       0.1163
    105  CD        -4.6590    3.2830    9.0110 C.2    88  GLU88       0.3649
    106  OE1       -3.4340    3.0220    9.0210 O.co2  88  GLU88      -0.2457
    107  OE2       -5.4900    2.6410    8.3340 O.co2  88  GLU88      -0.2457
    108  N          3.3660    3.6730   -3.0960 N.3   102  LEU102     -0.1231
    109  CA         3.5060    2.8040   -4.2670 C.3   102  LEU102      0.1693
    110  C          2.8040    1.4690   -4.0710 C.2   102  LEU102      0.2592
    111  O          3.0660    0.7620   -3.1130 O.2   102  LEU102     -0.2718
    112  CB         4.9840    2.5700   -4.5970 C.3   102  LEU102      0.0284
    113  CG         5.8810    3.8000   -4.7450 C.3   102  LEU102      0.0019
    114  CD1        7.2610    3.3740   -5.2310 C.3   102  LEU102      0.0001
    115  CD2        5.2710    4.8010   -5.7070 C.3   102  LEU102      0.0001
    116  N          1.9120    1.1310   -4.9930 N.am  103  MET103     -0.1966
    117  CA         1.1900   -0.1480   -4.9540 C.3   103  MET103      0.1721
    118  C          0.4870   -0.4240   -3.6310 C.2   103  MET103      0.2458
    119  O          0.6210   -1.5180   -3.0870 O.2   103  MET103     -0.2730
    120  CB         2.1420   -1.3200   -5.2470 C.3   103  MET103      0.0427
    121  CG         3.2630   -0.9940   -6.1910 C.3   103  MET103      0.0599
    122  SD         2.5740   -0.6390   -7.8080 S.3   103  MET103     -0.1393
    123  CE         2.1190   -2.2980   -8.3060 C.3   103  MET103      0.0692
    124  N         -0.2910    0.5430   -3.1200 N.am  104  PRO104     -0.2716
    125  CA        -0.9210    0.3150   -1.8180 C.3   104  PRO104      0.1536
    126  C         -2.0040   -0.7540   -1.8790 C.2   104  PRO104      0.2599
    127  O         -2.6210   -0.9750   -2.9280 O.2   104  PRO104     -0.2715
    128  CB        -1.5460    1.6760   -1.4970 C.3   104  PRO104      0.0310
    129  CG        -1.8620    2.2480   -2.8550 C.3   104  PRO104      0.0237
    130  CD        -0.6710    1.8500   -3.6920 C.3   104  PRO104      0.0939
    131  N         -2.2190   -1.4180   -0.7490 N.am  105  TRP105     -0.1960
    132  CA        -3.4110   -2.2330   -0.5600 C.3   105  TRP105      0.1771
    133  C         -3.9010   -2.0400    0.8700 C.2   105  TRP105      0.2620
    134  O         -3.2730   -1.3160    1.6490 O.2   105  TRP105     -0.2715
    135  CB        -3.1630   -3.7170   -0.8960 C.3   105  TRP105      0.0590
    136  CG        -2.1000   -4.4380   -0.0940 C.ar  105  TRP105      0.0006
    137  CD1       -0.7660   -4.5340   -0.3880 C.ar  105  TRP105      0.0946
    138  CD2       -2.3030   -5.1970    1.1040 C.ar  105  TRP105      0.0152
    139  NE1       -0.1270   -5.3020    0.5700 N.ar  105  TRP105     -0.2442
    140  CE2       -1.0500   -5.7110    1.4950 C.ar  105  TRP105      0.0810
    141  CE3       -3.4280   -5.4950    1.8830 C.ar  105  TRP105      0.0012
    142  CZ2       -0.8870   -6.5040    2.6370 C.ar  105  TRP105      0.0191
    143  CZ3       -3.2630   -6.2780    3.0260 C.ar  105  TRP105      0.0001
    144  CH2       -2.0010   -6.7780    3.3830 C.ar  105  TRP105      0.0015
    145  N         -5.0260   -2.6600    1.2060 N.am  106  GLY106     -0.1940
    146  CA        -5.5630   -2.5240    2.5500 C.3   106  GLY106      0.2014
    147  C         -6.0440   -1.1120    2.8130 C.2   106  GLY106      0.2640
    148  O         -6.5130   -0.4300    1.9060 O.2   106  GLY106     -0.2714
    149  N         -5.9130   -0.6620    4.0550 N.am  107  SER107     -0.1935
    150  CA        -6.4960    0.6170    4.4430 C.3   107  SER107      0.2055
    151  C         -5.7840    1.7890    3.7780 C.2   107  SER107      0.2642
    152  O         -6.3870    2.8360    3.5730 O.2   107  SER107     -0.2714
    153  CB        -6.4770    0.7790    5.9700 C.3   107  SER107      0.2130
    154  OG        -5.1480    0.8780    6.4580 O.3   107  SER107     -0.2179
    155  N         -4.5140    1.6070    3.4310 N.am  108  LEU108     -0.1977
    156  CA        -3.7730    2.6570    2.7320 C.3   108  LEU108      0.1596
    157  C         -4.3600    2.8760    1.3340 C.2   108  LEU108      0.2287
    158  O         -4.4400    4.0040    0.8510 O.2   108  LEU108     -0.2864
    159  CB        -2.2840    2.3130    2.6460 C.3   108  LEU108      0.0297
    160  CG        -1.3700    3.3380    1.9590 C.3   108  LEU108      0.0022
    161  CD1       -1.5440    4.7100    2.5710 C.3   108  LEU108      0.0001
    162  CD2        0.0900    2.8900    2.0400 C.3   108  LEU108      0.0001
    163  N         10.3060   -1.7020   -6.8470 N.3   191  THR191     -0.1203
    164  CA         9.5440   -2.3250   -5.7730 C.3   191  THR191      0.1994
    165  C          9.4580   -3.8430   -5.9660 C.2   191  THR191      0.2619
    166  O          9.6690   -4.3520   -7.0660 O.2   191  THR191     -0.2717
    167  CB         8.1340   -1.7010   -5.6050 C.3   191  THR191      0.1784
    168  OG1        7.1530   -2.4810   -6.2960 O.3   191  THR191     -0.2211
    169  CG2        8.1070   -0.2620   -6.1140 C.3   191  THR191      0.0376
    170  N          9.1420   -4.5540   -4.8910 N.am  192  SER192     -0.1937
    171  CA         9.0240   -6.0060   -4.9360 C.3   192  SER192      0.2055
    172  C          7.8930   -6.4370   -5.8610 C.2   192  SER192      0.2643
    173  O          7.7810   -7.6130   -6.2190 O.2   192  SER192     -0.2714
    174  CB         8.7770   -6.5680   -3.5320 C.3   192  SER192      0.2130
    175  OG         7.5090   -6.1730   -3.0280 O.3   192  SER192     -0.2179
    176  N          7.0510   -5.4870   -6.2490 N.am  193  TRP193     -0.1973
    177  CA         5.8650   -5.8270   -7.0200 C.3   193  TRP193      0.1640
    178  C          6.2030   -6.1600   -8.4620 C.2   193  TRP193      0.2290
    179  O          5.4060   -6.7880   -9.1520 O.2   193  TRP193     -0.2864
    180  CB         4.8170   -4.7140   -6.9400 C.3   193  TRP193      0.0576
    181  CG         4.2270   -4.5980   -5.5710 C.ar  193  TRP193      0.0006
    182  CD1        4.7340   -3.8930   -4.5200 C.ar  193  TRP193      0.0946
    183  CD2        3.0280   -5.2260   -5.0940 C.ar  193  TRP193      0.0152
    184  NE1        3.9240   -4.0380   -3.4180 N.ar  193  TRP193     -0.2442
    185  CE2        2.8690   -4.8490   -3.7440 C.ar  193  TRP193      0.0810
    186  CE3        2.0710   -6.0610   -5.6780 C.ar  193  TRP193      0.0012
    187  CZ2        1.7920   -5.2840   -2.9660 C.ar  193  TRP193      0.0191
    188  CZ3        1.0020   -6.4910   -4.9040 C.ar  193  TRP193      0.0001
    189  CH2        0.8730   -6.1020   -3.5630 C.ar  193  TRP193      0.0015
@<TRIPOS>BOND
     1   179   178    2
     2   178   177    1
     3   123   122    1
     4   122   121    1
     5   166   165    2
     6   177   180    1
     7   177   176    1
     8   180   181    1
     9   163   164    1
    10   168   167    1
    11   176   172   am
    12   173   172    2
    13   121   120    1
    14   169   167    1
    15   165   164    1
    16   165   170   am
    17   172   171    1
    18   164   167    1
    19   115   113    1
    20   186   183   ar
    21   186   188   ar
    22   181   183   ar
    23   181   182   ar
    24    40    38   ar
    25    40    41   ar
    26    38    37   ar
    27   120   117    1
    28   114   113    1
    29   183   185   ar
    30   116   117    1
    31   116   110   am
    32   117   118    1
    33   171   170    1
    34   171   174    1
    35   188   189   ar
    36   113   112    1
    37   112   109    1
    38   182   184   ar
    39    41    39   ar
    40   109   110    1
    41   109   108    1
    42    37    36    1
    43    37    39   ar
    44   110   111    2
    45   185   184   ar
    46   185   187   ar
    47   130   124    1
    48   130   129    1
    49    36    33    1
    50   118   124   am
    51   118   119    2
    52   189   187   ar
    53   174   175    1
    54    33    34    1
    55    33    32    1
    56    35    34    2
    57   124   125    1
    58   127   126    2
    59   129   128    1
    60   126   125    1
    61   126   131   am
    62   125   128    1
    63    31    29   ar
    64    30    29   ar
    65   135   132    1
    66   135   136    1
    67     7     6   ar
    68   131   132    1
    69   132   133    1
    70    29    28    1
    71   137   136   ar
    72   137   139   ar
    73     8     6   ar
    74     6     5    1
    75   136   138   ar
    76   139   140   ar
    77     5     2    1
    78    16    15    2
    79   158   157    2
    80   133   145   am
    81   133   134    2
    82    28    25    1
    83    81    79    1
    84    12    11    2
    85   138   140   ar
    86   138   141   ar
    87   145   146    1
    88     2     1    1
    89     2     3    1
    90   157   156    1
    91    18    17    1
    92   140   142   ar
    93    24    25    1
    94    24    22   am
    95    15    14    1
    96    15    20   am
    97    26    25    1
    98    26    27    2
    99    14    17    1
   100    14    13    1
   101   141   143   ar
   102   148   147    2
   103   160   162    1
   104   160   161    1
   105   160   159    1
   106    11    13   am
   107    11    10    1
   108    79    80    1
   109    79    78    2
   110    21    20    1
   111    21    22    1
   112     3     4    2
   113    17    19    1
   114    22    23    2
   115   146   147    1
   116   142   144   ar
   117   159   156    1
   118   156   155    1
   119   147   149   am
   120    10     9    1
   121   143   144   ar
   122    78    77    1
   123   155   151   am
   124   152   151    2
   125   151   150    1
   126   149   150    1
   127    56    55   ar
   128   150   153    1
   129    77    76    1
   130    74    73    2
   131    45    44    2
   132    75    76    1
   133    75    72    1
   134    55    57   ar
   135    55    54    1
   136    73    72    1
   137    42    43    1
   138   153   154    1
   139    72    71    1
   140    98    95    1
   141    54    51    1
   142    44    43    1
   143    44    50   am
   144    43    46    1
   145    48    47    1
   146    51    50    1
   147    51    52    1
   148    47    46    1
   149    47    49    1
   150    95    94    1
   151    95    96    1
   152    70    68   ar
   153    94    89   am
   154    58    52   am
   155    58    59    1
   156    67    68    1
   157    67    64    1
   158    52    53    2
   159   107   105   ar
   160    66    65    2
   161    97    96    2
   162    96    99   am
   163    68    69   ar
   164   105   106   ar
   165   105   104    1
   166    63    64    1
   167    63    60   am
   168    62    59    1
   169    99   100    1
   170    64    65    1
   171    89    90    2
   172    89    88    1
   173    85    84    2
   174    59    60    1
   175   104   103    1
   176    60    61    2
   177    88    91    1
   178    88    87    1
   179   100   103    1
   180   100   101    1
   181    84    87   am
   182    84    83    1
   183    91    93    1
   184    91    92    1
   185   101   102    2
   186    82    83    1
   187    86    83    1
