@<TRIPOS>MOLECULE
tmp/3mq4A00.pdb
 124 116 0 0 0
SMALL
GASTEIGER

@<TRIPOS>ATOM
      1  N        -23.5540  -25.2160  -23.2240 N.3    26  LYS26      -0.1245
      2  CA       -23.7000  -26.4290  -22.4290 C.3    26  LYS26       0.1561
      3  C        -23.4100  -26.0390  -20.9500 C.2    26  LYS26       0.2260
      4  O        -22.2600  -25.7580  -20.5800 O.2    26  LYS26      -0.2867
      5  CB       -22.7730  -27.5450  -22.9660 C.3    26  LYS26       0.0271
      6  CG       -23.3750  -28.2600  -24.1690 C.3    26  LYS26       0.0035
      7  CD       -22.7850  -29.6540  -24.3700 C.3    26  LYS26       0.0206
      8  CE       -23.2900  -30.6690  -23.3380 C.3    26  LYS26       0.1093
      9  NZ       -22.6650  -32.0110  -23.5590 N.3    26  LYS26      -0.1314
     10  N        -21.5880  -29.3850  -18.2680 N.3    29  ASN29      -0.1240
     11  CA       -20.4050  -29.8960  -18.9390 C.3    29  ASN29       0.1653
     12  C        -19.4470  -28.8180  -19.4700 C.2    29  ASN29       0.2266
     13  O        -18.2540  -29.0820  -19.6210 O.2    29  ASN29      -0.2867
     14  CB       -20.8300  -30.8550  -20.0330 C.3    29  ASN29       0.1155
     15  CG       -21.6240  -32.0150  -19.5130 C.2    29  ASN29       0.2627
     16  OD1      -21.0680  -33.0370  -19.1070 O.2    29  ASN29      -0.2716
     17  ND2      -22.9450  -31.8610  -19.4750 N.am   29  ASN29      -0.0877
     18  N        -17.7000  -27.0500  -15.4930 N.3    33  ARG33      -0.1245
     19  CA       -16.3990  -27.6700  -15.7190 C.3    33  ARG33       0.1563
     20  C        -15.2910  -26.6640  -15.9550 C.2    33  ARG33       0.2260
     21  O        -14.2390  -26.8140  -15.3450 O.2    33  ARG33      -0.2867
     22  CB       -16.4550  -28.7380  -16.8170 C.3    33  ARG33       0.0307
     23  CG       -17.2800  -29.9660  -16.4390 C.3    33  ARG33       0.0489
     24  CD       -17.0600  -31.0900  -17.4310 C.3    33  ARG33       0.2205
     25  NE       -17.7590  -32.3060  -17.0270 N.pl3  33  ARG33      -0.0865
     26  CZ       -17.8340  -33.4100  -17.7600 C.cat  33  ARG33       0.5346
     27  NH1      -17.2720  -33.4570  -18.9650 N.pl3  33  ARG33       0.1354
     28  NH2      -18.4730  -34.4780  -17.2970 N.pl3  33  ARG33       0.1354
     29  N        -12.9100  -32.9660  -22.8620 N.3    98  SER98      -0.1202
     30  CA       -14.1300  -33.6060  -22.3850 C.3    98  SER98       0.2020
     31  C        -14.7060  -34.1840  -23.6680 C.2    98  SER98       0.2619
     32  O        -14.9320  -33.4430  -24.6590 O.2    98  SER98      -0.2717
     33  CB       -15.0690  -32.5700  -21.7790 C.3    98  SER98       0.2103
     34  OG       -16.3700  -33.0800  -21.5420 O.3    98  SER98      -0.2182
     35  N        -14.8300  -35.5090  -23.6780 N.am   99  GLY99      -0.1942
     36  CA       -15.2490  -36.2510  -24.8580 C.3    99  GLY99       0.2014
     37  C        -13.9920  -36.8240  -25.4670 C.2    99  GLY99       0.2640
     38  O        -13.1490  -36.0730  -25.9820 O.2    99  GLY99      -0.2714
     39  N        -13.8280  -38.1510  -25.3340 N.am  100  SER100     -0.1935
     40  CA       -12.6700  -38.9310  -25.7890 C.3   100  SER100      0.2055
     41  C        -12.1870  -38.7010  -27.1980 C.2   100  SER100      0.2643
     42  O        -10.9790  -38.7190  -27.4070 O.2   100  SER100     -0.2714
     43  CB       -12.9050  -40.4150  -25.5680 C.3   100  SER100      0.2130
     44  OG       -13.0880  -40.6940  -24.1900 O.3   100  SER100     -0.2179
     45  N        -13.0920  -38.5120  -28.1690 N.am  101  SER101     -0.1949
     46  CA       -12.6710  -38.2970  -29.5600 C.3   101  SER101      0.1924
     47  C        -11.9070  -36.9730  -29.6680 C.2   101  SER101      0.2314
     48  O        -10.8570  -36.9190  -30.3190 O.2   101  SER101     -0.2863
     49  CB       -13.8590  -38.3390  -30.5140 C.3   101  SER101      0.2116
     50  OG       -14.4460  -37.0590  -30.6800 O.3   101  SER101     -0.2180
     51  N        -12.4790  -36.0220  -18.0590 N.3   121  ALA121     -0.1231
     52  CA       -13.7300  -36.6680  -18.4730 C.3   121  ALA121      0.1694
     53  C        -13.6380  -37.7160  -19.5550 C.2   121  ALA121      0.2593
     54  O        -14.5620  -38.5140  -19.6680 O.2   121  ALA121     -0.2718
     55  CB       -14.7540  -35.6210  -18.8660 C.3   121  ALA121      0.0304
     56  N        -12.5770  -37.7030  -20.3810 N.am  122  SER122     -0.1938
     57  CA       -12.3790  -38.6630  -21.4770 C.3   122  SER122      0.2055
     58  C        -12.0560  -40.0340  -20.9080 C.2   122  SER122      0.2644
     59  O        -11.0030  -40.2240  -20.2840 O.2   122  SER122     -0.2714
     60  CB       -11.2960  -38.1800  -22.4350 C.3   122  SER122      0.2130
     61  OG       -11.7800  -37.0610  -23.1590 O.3   122  SER122     -0.2179
     62  N        -13.0020  -40.9720  -21.0960 N.am  123  THR123     -0.1936
     63  CA       -12.9910  -42.3270  -20.5380 C.3   123  THR123      0.2028
     64  C        -12.6370  -43.4900  -21.4880 C.2   123  THR123      0.2642
     65  O        -12.4340  -44.6080  -21.0000 O.2   123  THR123     -0.2714
     66  CB       -14.3050  -42.5820  -19.7530 C.3   123  THR123      0.1808
     67  OG1      -15.4140  -41.9780  -20.4330 O.3   123  THR123     -0.2208
     68  CG2      -14.2430  -42.0880  -18.3250 C.3   123  THR123      0.0379
     69  N        -12.5380  -43.2380  -22.8150 N.am  124  ALA124     -0.1977
     70  CA       -12.2450  -44.2540  -23.8500 C.3   124  ALA124      0.1597
     71  C        -11.0410  -45.1740  -23.6040 C.2   124  ALA124      0.2287
     72  O         -9.9560  -44.6920  -23.2600 O.2   124  ALA124     -0.2864
     73  CB       -12.1160  -43.6120  -25.2180 C.3   124  ALA124      0.0319
     74  N        -12.9320  -46.8030  -18.9630 N.3   143  ASP143     -0.1239
     75  CA       -14.1210  -47.6430  -18.7840 C.3   143  ASP143      0.1674
     76  C        -13.8020  -49.1640  -18.7310 C.2   143  ASP143      0.2266
     77  O        -14.6520  -49.9640  -18.3320 O.2   143  ASP143     -0.2867
     78  CB       -15.1590  -47.3230  -19.8650 C.3   143  ASP143      0.1410
     79  CG       -15.7700  -45.9440  -19.7500 C.2   143  ASP143      0.3668
     80  OD1      -15.9880  -45.3080  -20.7980 O.co2 143  ASP143     -0.2456
     81  OD2      -16.0980  -45.5290  -18.6130 O.co2 143  ASP143     -0.2456
     82  N        -20.8620  -46.5810  -29.4290 N.3   167  SER167     -0.1202
     83  CA       -19.4180  -46.6790  -29.1610 C.3   167  SER167      0.2020
     84  C        -19.0850  -47.1780  -27.7470 C.2   167  SER167      0.2618
     85  O        -18.0560  -47.8360  -27.5660 O.2   167  SER167     -0.2717
     86  CB       -18.7320  -45.3370  -29.4120 C.3   167  SER167      0.2103
     87  OG       -17.3390  -45.3850  -29.1440 O.3   167  SER167     -0.2182
     88  N        -19.9320  -46.8440  -26.7530 N.am  168  TYR168     -0.1975
     89  CA       -19.7360  -47.2400  -25.3610 C.3   168  TYR168      0.1639
     90  C        -20.2220  -48.6650  -25.0980 C.2   168  TYR168      0.2290
     91  O        -19.4400  -49.4900  -24.6230 O.2   168  TYR168     -0.2864
     92  CB       -20.3910  -46.2250  -24.4040 C.3   168  TYR168      0.0560
     93  CG       -20.2770  -46.5810  -22.9360 C.ar  168  TYR168     -0.0198
     94  CD1      -19.0760  -46.4250  -22.2500 C.ar  168  TYR168     -0.0009
     95  CD2      -21.3820  -47.0420  -22.2230 C.ar  168  TYR168     -0.0009
     96  CE1      -18.9690  -46.7380  -20.8950 C.ar  168  TYR168      0.0417
     97  CE2      -21.2880  -47.3550  -20.8660 C.ar  168  TYR168      0.0417
     98  CZ       -20.0800  -47.2010  -20.2060 C.ar  168  TYR168      0.1957
     99  OH       -19.9800  -47.5060  -18.8700 O.3   168  TYR168     -0.2866
    100  N        -26.1160  -48.0740  -20.5190 N.3   213  ASN213     -0.1225
    101  CA       -26.1410  -46.7920  -19.8120 C.3   213  ASN213      0.1785
    102  C        -27.0680  -45.8010  -20.5540 C.2   213  ASN213      0.2597
    103  O        -27.0490  -45.7820  -21.7870 O.2   213  ASN213     -0.2718
    104  CB       -24.7170  -46.2190  -19.7050 C.3   213  ASN213      0.1169
    105  CG       -24.1400  -46.4910  -18.3840 C.2   213  ASN213      0.2627
    106  OD1      -24.6090  -45.9660  -17.3170 O.2   213  ASN213     -0.2716
    107  ND2      -23.2560  -47.4720  -18.3740 N.am  213  ASN213     -0.0877
    108  N        -27.8700  -44.9690  -19.8460 N.am  214  ASP214     -0.1974
    109  CA       -28.0140  -44.8730  -18.3880 C.3   214  ASP214      0.1709
    110  C        -29.4860  -45.0290  -17.9940 C.2   214  ASP214      0.2293
    111  O        -29.7810  -45.4620  -16.8780 O.2   214  ASP214     -0.2864
    112  CB       -27.4540  -43.5350  -17.8770 C.3   214  ASP214      0.1436
    113  CG       -27.4260  -43.4600  -16.3570 C.2   214  ASP214      0.3671
    114  OD1      -27.4690  -44.5160  -15.6320 O.co2 214  ASP214     -0.2456
    115  OD2      -27.2180  -42.3500  -15.8450 O.co2 214  ASP214     -0.2456
    116  N        -18.2070  -34.4520  -12.7890 N.3   293  LYS293     -0.1245
    117  CA       -16.7860  -34.4370  -13.1180 C.3   293  LYS293      0.1561
    118  C        -16.0490  -33.1310  -12.7550 C.2   293  LYS293      0.2260
    119  O        -14.8520  -33.0090  -13.0330 O.2   293  LYS293     -0.2867
    120  CB       -16.5200  -34.9470  -14.5450 C.3   293  LYS293      0.0271
    121  CG       -16.3700  -36.4680  -14.6280 C.3   293  LYS293      0.0035
    122  CD       -16.6700  -37.0130  -16.0190 C.3   293  LYS293      0.0206
    123  CE       -16.5580  -38.5220  -16.1050 C.3   293  LYS293      0.1093
    124  NZ       -17.4200  -39.0940  -17.1860 N.3   293  LYS293     -0.1314
@<TRIPOS>BOND
     1    50    49    1
     2    49    46    1
     3    48    47    2
     4    47    46    1
     5    46    45    1
     6    82    83    1
     7    86    83    1
     8    86    87    1
     9    83    84    1
    10    45    41   am
    11    84    85    2
    12    84    88   am
    13    42    41    2
    14    41    40    1
    15    88    89    1
    16    38    37    2
    17    40    43    1
    18    40    39    1
    19    43    44    1
    20    37    39   am
    21    37    36    1
    22    89    90    1
    23    89    92    1
    24    73    70    1
    25    90    91    2
    26    36    35    1
    27    32    31    2
    28    92    93    1
    29     7     6    1
    30     7     8    1
    31     6     5    1
    32    70    71    1
    33    70    69    1
    34    35    31   am
    35    31    30    1
    36    71    72    2
    37     9     8    1
    38     1     2    1
    39    61    60    1
    40     5     2    1
    41    93    94   ar
    42    93    95   ar
    43    29    30    1
    44    69    64   am
    45    60    57    1
    46     2     3    1
    47    30    33    1
    48    94    96   ar
    49    95    97   ar
    50   103   102    2
    51    33    34    1
    52    64    65    2
    53    64    63    1
    54    57    58    1
    55    57    56    1
    56    62    58   am
    57    62    63    1
    58     3     4    2
    59    58    59    2
    60    96    98   ar
    61    97    98   ar
    62    80    79   ar
    63   102   108   am
    64   102   101    1
    65    63    66    1
    66   100   101    1
    67    67    66    1
    68    56    53   am
    69    98    99    1
    70    14    15    1
    71    14    11    1
    72    78    79    1
    73    78    75    1
    74   108   109    1
    75   101   104    1
    76    66    68    1
    77    79    81   ar
    78   104   105    1
    79    54    53    2
    80    13    12    2
    81    53    52    1
    82    15    17   am
    83    15    16    2
    84    12    11    1
    85    27    26    1
    86    74    75    1
    87    11    10    1
    88    55    52    1
    89    75    76    1
    90    76    77    2
    91    52    51    1
    92   109   110    1
    93   109   112    1
    94   105   107   am
    95   105   106    2
    96   110   111    2
    97   112   113    1
    98    26    28    1
    99    26    25    2
   100    24    25    1
   101    24    23    1
   102   124   123    1
   103    22    23    1
   104    22    19    1
   105   113   115   ar
   106   113   114   ar
   107   123   122    1
   108   122   121    1
   109    20    19    1
   110    20    21    2
   111    19    18    1
   112   121   120    1
   113   120   117    1
   114   117   116    1
   115   117   118    1
   116   119   118    2
