@<TRIPOS>MOLECULE
tmp/3mqdA00.pdb
 88 83 0 0 0
SMALL
GASTEIGER

@<TRIPOS>ATOM
      1  N         21.8460   -2.9160   25.1220 N.3   105  GLY105     -0.1210
      2  CA        20.4520   -3.2580   25.1140 C.3   105  GLY105      0.1956
      3  C         20.0390   -4.3440   26.0600 C.2   105  GLY105      0.2612
      4  O         18.8950   -4.3740   26.5100 O.2   105  GLY105     -0.2717
      5  N         20.9820   -5.2150   26.3510 N.am  106  GLY106     -0.1942
      6  CA        20.8960   -6.2100   27.4490 C.3   106  GLY106      0.1998
      7  C         22.2610   -6.3450   28.0390 C.2   106  GLY106      0.2480
      8  O         23.2170   -5.8590   27.5520 O.2   106  GLY106     -0.2729
      9  N         22.3990   -7.0960   29.1600 N.am  107  PRO107     -0.2726
     10  CA        23.7170   -7.4200   29.7480 C.3   107  PRO107      0.1402
     11  C         24.2560   -8.6540   29.0670 C.2   107  PRO107      0.2269
     12  O         23.8790   -9.0030   27.9640 O.2   107  PRO107     -0.2865
     13  CB        23.4080   -7.6360   31.1910 C.3   107  PRO107      0.0296
     14  CG        22.0210   -8.3720   31.0960 C.3   107  PRO107      0.0237
     15  CD        21.3130   -7.6040   29.9350 C.3   107  PRO107      0.0939
     16  N         23.7810  -11.9930   28.5310 N.3   109  THR109     -0.1218
     17  CA        22.9000  -13.1320   28.6380 C.3   109  THR109      0.1862
     18  C         23.7030  -14.4170   28.7780 C.2   109  THR109      0.2287
     19  O         23.2580  -15.3610   29.4570 O.2   109  THR109     -0.2866
     20  CB        21.9220  -13.2080   27.4680 C.3   109  THR109      0.1770
     21  OG1       22.6060  -13.2870   26.2210 O.3   109  THR109     -0.2211
     22  CG2       20.9870  -12.0270   27.4220 C.3   109  THR109      0.0375
     23  N         16.6810   -0.2940   24.0650 N.3   160  ALA160     -0.1231
     24  CA        16.6540   -1.2730   22.9840 C.3   160  ALA160      0.1694
     25  C         17.5560   -0.7550   21.8830 C.2   160  ALA160      0.2592
     26  O         18.6870   -0.3870   22.1450 O.2   160  ALA160     -0.2718
     27  CB        15.1810   -1.5860   22.5960 C.3   160  ALA160      0.0304
     28  N         17.1100   -0.7040   20.6440 N.am  161  CYS161     -0.1970
     29  CA        18.0120   -0.3000   19.6120 C.3   161  CYS161      0.1712
     30  C         18.3630    1.1830   19.5820 C.2   161  CYS161      0.2296
     31  O         19.2750    1.5490   18.8660 O.2   161  CYS161     -0.2864
     32  CB        17.4520   -0.8450   18.2840 C.3   161  CYS161      0.0983
     33  SG        17.4030   -2.6810   18.2850 S.3   161  CYS161     -0.0798
     34  N         27.0730   -4.4280   22.5910 N.3   189  GLU189     -0.1245
     35  CA        26.2330   -5.6040   22.7230 C.3   189  GLU189      0.1567
     36  C         27.1280   -6.8340   22.4790 C.2   189  GLU189      0.2260
     37  O         27.8370   -6.8570   21.4820 O.2   189  GLU189     -0.2867
     38  CB        25.0400   -5.6170   21.7580 C.3   189  GLU189      0.0388
     39  CG        23.8710   -6.4540   22.3040 C.3   189  GLU189      0.1160
     40  CD        23.0880   -5.7010   23.3480 C.2   189  GLU189      0.3649
     41  OE1       23.0060   -6.1460   24.5310 O.co2 189  GLU189     -0.2457
     42  OE2       22.5510   -4.5950   23.0160 O.co2 189  GLU189     -0.2457
     43  N         20.9680  -14.5680   23.3320 N.3   195  LEU195     -0.1245
     44  CA        20.2720  -13.3600   22.9500 C.3   195  LEU195      0.1561
     45  C         19.5870  -13.5120   21.6050 C.2   195  LEU195      0.2260
     46  O         18.4040  -13.2190   21.4370 O.2   195  LEU195     -0.2867
     47  CB        21.2410  -12.1690   22.9720 C.3   195  LEU195      0.0270
     48  CG        20.6440  -10.8410   22.5540 C.3   195  LEU195      0.0019
     49  CD1       19.4280  -10.4770   23.3480 C.3   195  LEU195      0.0001
     50  CD2       21.7480   -9.7460   22.5900 C.3   195  LEU195      0.0001
     51  N         16.0930  -15.1660   21.1240 N.3   198  LEU198     -0.1231
     52  CA        14.9010  -14.4140   21.5060 C.3   198  LEU198      0.1693
     53  C         14.2870  -13.7430   20.2770 C.2   198  LEU198      0.2592
     54  O         13.0470  -13.6390   20.1430 O.2   198  LEU198     -0.2718
     55  CB        15.2100  -13.3960   22.6260 C.3   198  LEU198      0.0284
     56  CG        15.9380  -13.9380   23.8550 C.3   198  LEU198      0.0019
     57  CD1       16.1570  -12.8060   24.8170 C.3   198  LEU198      0.0001
     58  CD2       15.2340  -15.1090   24.5140 C.3   198  LEU198      0.0001
     59  N         15.1550  -13.2560   19.4040 N.am  199  PHE199     -0.1976
     60  CA        14.7150  -12.6320   18.1630 C.3   199  PHE199      0.1639
     61  C         14.3210  -13.6730   17.1120 C.2   199  PHE199      0.2290
     62  O         13.3510  -13.4610   16.3620 O.2   199  PHE199     -0.2864
     63  CB        15.8110  -11.7410   17.6090 C.3   199  PHE199      0.0560
     64  CG        16.1040  -10.5140   18.4520 C.ar  199  PHE199     -0.0200
     65  CD1       15.2700   -9.4310   18.4170 C.ar  199  PHE199     -0.0042
     66  CD2       17.1800  -10.4960   19.3160 C.ar  199  PHE199     -0.0042
     67  CE1       15.5610   -8.2980   19.1910 C.ar  199  PHE199     -0.0003
     68  CE2       17.4490   -9.3850   20.0690 C.ar  199  PHE199     -0.0003
     69  CZ        16.6640   -8.2980   19.9850 C.ar  199  PHE199     -0.0000
     70  N         22.2300   -3.6530   17.9120 N.3   335  LEU335     -0.1245
     71  CA        21.4100   -3.5410   19.0780 C.3   335  LEU335      0.1561
     72  C         21.9080   -2.3390   19.9480 C.2   335  LEU335      0.2260
     73  O         21.9210   -1.1920   19.4720 O.2   335  LEU335     -0.2867
     74  CB        21.2340   -4.8900   19.7810 C.3   335  LEU335      0.0270
     75  CG        20.7200   -6.0530   18.8890 C.3   335  LEU335      0.0019
     76  CD1       20.6310   -7.3000   19.7330 C.3   335  LEU335      0.0001
     77  CD2       19.4200   -5.7280   18.2550 C.3   335  LEU335      0.0001
     78  N         12.3770   -1.0720   20.2900 N.3   393  PHE393     -0.1241
     79  CA        11.1920   -1.6790   20.8560 C.3   393  PHE393      0.1605
     80  C         10.7080   -0.8710   22.0410 C.2   393  PHE393      0.2264
     81  O         11.4990   -0.2150   22.7590 O.2   393  PHE393     -0.2867
     82  CB        11.4820   -3.1220   21.3270 C.3   393  PHE393      0.0534
     83  CG        11.6530   -4.1550   20.2410 C.ar  393  PHE393     -0.0203
     84  CD1       11.8750   -5.4840   20.6070 C.ar  393  PHE393     -0.0042
     85  CD2       11.4430   -3.8990   18.8940 C.ar  393  PHE393     -0.0042
     86  CE1       12.0010   -6.4720   19.6270 C.ar  393  PHE393     -0.0003
     87  CE2       11.5640   -4.8930   17.9490 C.ar  393  PHE393     -0.0003
     88  CZ        11.8480   -6.1490   18.3150 C.ar  393  PHE393     -0.0000
@<TRIPOS>BOND
     1    62    61    2
     2    61    60    1
     3    63    60    1
     4    63    64    1
     5    70    71    1
     6    87    88   ar
     7    87    85   ar
     8    60    59    1
     9    77    75    1
    10    32    33    1
    11    32    29    1
    12    88    86   ar
    13    65    64   ar
    14    65    67   ar
    15    64    66   ar
    16    31    30    2
    17    75    76    1
    18    75    74    1
    19    85    83   ar
    20    71    74    1
    21    71    72    1
    22    67    69   ar
    23    66    68   ar
    24    59    53   am
    25    73    72    2
    26    30    29    1
    27    29    28    1
    28    86    84   ar
    29    69    68   ar
    30    54    53    2
    31    83    84   ar
    32    83    82    1
    33    53    52    1
    34    78    79    1
    35    28    25   am
    36    79    82    1
    37    79    80    1
    38    51    52    1
    39    46    45    2
    40    37    36    2
    41    52    55    1
    42    45    44    1
    43    38    39    1
    44    38    35    1
    45    25    26    2
    46    25    24    1
    47    80    81    2
    48    39    40    1
    49    36    35    1
    50    48    50    1
    51    48    47    1
    52    48    49    1
    53    34    35    1
    54    27    24    1
    55    55    56    1
    56    44    47    1
    57    44    43    1
    58    24    23    1
    59    42    40   ar
    60    40    41   ar
    61    56    58    1
    62    56    57    1
    63     2     1    1
    64     2     3    1
    65     3     5   am
    66     3     4    2
    67    21    20    1
    68     5     6    1
    69    22    20    1
    70     6     7    1
    71    20    17    1
    72     8     7    2
    73    12    11    2
    74     7     9   am
    75    16    17    1
    76    17    18    1
    77    18    19    2
    78    11    10    1
    79     9    10    1
    80     9    15    1
    81    10    13    1
    82    15    14    1
    83    14    13    1
