@<TRIPOS>MOLECULE
tmp/3mqeA05.pdb
 209 200 0 0 0
SMALL
GASTEIGER

@<TRIPOS>ATOM
      1  N         13.8700   -9.9780  -50.1410 N.3    58  HIS58      -0.1241
      2  CA        13.1960  -10.0060  -51.4540 C.3    58  HIS58       0.1621
      3  C         12.1870   -8.8670  -51.6140 C.2    58  HIS58       0.2264
      4  O         12.1900   -8.1700  -52.6280 O.2    58  HIS58      -0.2867
      5  CB        12.5000  -11.3560  -51.7030 C.3    58  HIS58       0.0745
      6  CG        11.9620  -11.5040  -53.0930 C.ar   58  HIS58       0.0817
      7  ND1       10.6730  -11.1520  -53.4350 N.ar   58  HIS58      -0.2268
      8  CD2       12.5480  -11.9390  -54.2350 C.ar   58  HIS58       0.1154
      9  CE1       10.4820  -11.3760  -54.7230 C.ar   58  HIS58       0.1986
     10  NE2       11.6050  -11.8530  -55.2320 N.ar   58  HIS58      -0.2212
     11  N         25.5760   -4.1930  -54.8910 N.3    82  MET82      -0.1245
     12  CA        25.9550   -5.4130  -55.6080 C.3    82  MET82       0.1570
     13  C         26.8600   -6.2730  -54.7270 C.2    82  MET82       0.2261
     14  O         26.6090   -7.4640  -54.5390 O.2    82  MET82      -0.2867
     15  CB        26.6480   -5.0960  -56.9370 C.3    82  MET82       0.0387
     16  CG        26.7700   -6.2940  -57.8500 C.3    82  MET82       0.0595
     17  SD        25.1570   -6.9840  -58.2450 S.3    82  MET82      -0.1393
     18  CE        25.5970   -8.5640  -58.9550 C.3    82  MET82       0.0692
     19  N         24.8590   -8.3390  -52.5320 N.3    85  VAL85      -0.1245
     20  CA        24.2160   -9.5310  -53.1150 C.3    85  VAL85       0.1561
     21  C         25.2620  -10.6260  -53.3540 C.2    85  VAL85       0.2260
     22  O         25.0030  -11.8030  -53.1020 O.2    85  VAL85      -0.2867
     23  CB        23.3980   -9.2630  -54.4280 C.3    85  VAL85       0.0252
     24  CG1       22.6730   -7.9330  -54.3660 C.3    85  VAL85       0.0019
     25  CG2       24.2720   -9.3420  -55.6590 C.3    85  VAL85       0.0019
     26  N         25.9830  -14.3240  -50.1010 N.3    89  ARG89      -0.1245
     27  CA        25.7740  -15.6790  -50.5850 C.3    89  ARG89       0.1563
     28  C         26.8890  -16.6600  -50.2390 C.2    89  ARG89       0.2260
     29  O         26.6250  -17.8520  -50.0920 O.2    89  ARG89      -0.2867
     30  CB        25.6300  -15.6610  -52.1200 C.3    89  ARG89       0.0307
     31  CG        24.2330  -15.9940  -52.6520 C.3    89  ARG89       0.0489
     32  CD        23.2840  -14.8050  -52.6380 C.3    89  ARG89       0.2205
     33  NE        21.9280  -15.2370  -52.3340 N.pl3  89  ARG89      -0.0865
     34  CZ        20.8910  -14.4200  -52.2120 C.cat  89  ARG89       0.5346
     35  NH1       21.0280  -13.1100  -52.3940 N.pl3  89  ARG89       0.1354
     36  NH2       19.7050  -14.9240  -51.9120 N.pl3  89  ARG89       0.1354
     37  N         22.6330  -22.2360  -72.8070 N.3   174  PHE174     -0.1241
     38  CA        23.7210  -21.7920  -71.9340 C.3   174  PHE174      0.1605
     39  C         24.1420  -22.8540  -70.9280 C.2   174  PHE174      0.2264
     40  O         25.3270  -23.0890  -70.7550 O.2   174  PHE174     -0.2867
     41  CB        23.3270  -20.4830  -71.2030 C.3   174  PHE174      0.0534
     42  CG        24.1880  -20.1590  -70.0120 C.ar  174  PHE174     -0.0203
     43  CD1       25.4720  -19.6820  -70.1790 C.ar  174  PHE174     -0.0042
     44  CD2       23.7060  -20.3430  -68.7190 C.ar  174  PHE174     -0.0042
     45  CE1       26.2680  -19.3900  -69.0770 C.ar  174  PHE174     -0.0003
     46  CE2       24.4900  -20.0490  -67.6220 C.ar  174  PHE174     -0.0003
     47  CZ        25.7780  -19.5680  -67.7990 C.ar  174  PHE174     -0.0000
     48  N         24.6280  -12.8150  -68.7750 N.3   313  VAL313     -0.1245
     49  CA        24.0210  -13.6800  -67.7640 C.3   313  VAL313      0.1561
     50  C         23.5750  -12.8700  -66.5310 C.2   313  VAL313      0.2260
     51  O         22.4120  -12.9480  -66.1170 O.2   313  VAL313     -0.2867
     52  CB        24.9630  -14.8740  -67.3710 C.3   313  VAL313      0.0252
     53  CG1       24.5410  -15.5160  -66.0580 C.3   313  VAL313      0.0019
     54  CG2       24.9790  -15.9300  -68.4830 C.3   313  VAL313      0.0019
     55  N         19.7990  -11.7720  -68.0340 N.3   317  TYR317     -0.1227
     56  CA        19.1850  -13.0630  -67.6650 C.3   317  TYR317      0.1736
     57  C         18.8270  -13.1960  -66.1970 C.2   317  TYR317      0.2595
     58  O         17.6960  -13.5360  -65.8790 O.2   317  TYR317     -0.2718
     59  CB        20.1380  -14.1940  -68.0500 C.3   317  TYR317      0.0548
     60  CG        19.6820  -15.6220  -67.8080 C.ar  317  TYR317     -0.0200
     61  CD1       19.1080  -16.3720  -68.8350 C.ar  317  TYR317     -0.0009
     62  CD2       19.9090  -16.2570  -66.5890 C.ar  317  TYR317     -0.0009
     63  CE1       18.7220  -17.7140  -68.6440 C.ar  317  TYR317      0.0417
     64  CE2       19.5270  -17.5990  -66.3830 C.ar  317  TYR317      0.0417
     65  CZ        18.9360  -18.3190  -67.4200 C.ar  317  TYR317      0.1957
     66  OH        18.5500  -19.6340  -67.2380 O.3   317  TYR317     -0.2866
     67  N         19.7720  -12.9570  -65.2970 N.am  318  VAL318     -0.1980
     68  CA        19.4740  -13.0620  -63.8600 C.3   318  VAL318      0.1595
     69  C         18.6980  -11.8510  -63.3680 C.2   318  VAL318      0.2287
     70  O         17.8260  -11.9940  -62.5130 O.2   318  VAL318     -0.2864
     71  CB        20.7420  -13.2500  -62.9920 C.3   318  VAL318      0.0276
     72  CG1       20.4380  -12.9650  -61.5140 C.3   318  VAL318      0.0022
     73  CG2       21.3190  -14.6790  -63.1770 C.3   318  VAL318      0.0022
     74  N         15.0630  -12.6300  -63.8470 N.3   321  LEU321     -0.1231
     75  CA        14.4710  -13.5450  -62.8490 C.3   321  LEU321      0.1693
     76  C         14.1800  -12.7890  -61.5600 C.2   321  LEU321      0.2592
     77  O         13.0850  -12.8960  -61.0170 O.2   321  LEU321     -0.2718
     78  CB        15.3870  -14.7560  -62.5510 C.3   321  LEU321      0.0284
     79  CG        15.3470  -15.9480  -63.5130 C.3   321  LEU321      0.0019
     80  CD1       14.7700  -15.5420  -64.8410 C.3   321  LEU321      0.0001
     81  CD2       16.7370  -16.5910  -63.6900 C.3   321  LEU321      0.0001
     82  N         15.1680  -12.0160  -61.1050 N.am  322  SER322     -0.1952
     83  CA        15.1170  -11.2890  -59.8270 C.3   322  SER322      0.1924
     84  C         13.8150  -10.5280  -59.5760 C.2   322  SER322      0.2314
     85  O         13.2860  -10.5540  -58.4630 O.2   322  SER322     -0.2863
     86  CB        16.2940  -10.3020  -59.7300 C.3   322  SER322      0.2116
     87  OG        16.1420   -9.1840  -60.6060 O.3   322  SER322     -0.2180
     88  N         13.8390   -7.4120  -59.5170 N.3   324  TYR324     -0.1241
     89  CA        14.3140   -6.3060  -58.6790 C.3   324  TYR324      0.1605
     90  C         14.1900   -5.0040  -59.4470 C.2   324  TYR324      0.2264
     91  O         14.3240   -5.0020  -60.6690 O.2   324  TYR324     -0.2867
     92  CB        15.7940   -6.5160  -58.3150 C.3   324  TYR324      0.0534
     93  CG        16.1090   -7.6100  -57.2920 C.ar  324  TYR324     -0.0201
     94  CD1       15.1240   -8.4770  -56.8050 C.ar  324  TYR324     -0.0009
     95  CD2       17.4140   -7.7920  -56.8300 C.ar  324  TYR324     -0.0009
     96  CE1       15.4350   -9.4880  -55.8690 C.ar  324  TYR324      0.0417
     97  CE2       17.7330   -8.7920  -55.9030 C.ar  324  TYR324      0.0417
     98  CZ        16.7390   -9.6350  -55.4230 C.ar  324  TYR324      0.1957
     99  OH        17.0420  -10.6080  -54.4930 O.3   324  TYR324     -0.2866
    100  N         21.5080   -4.8740  -61.3450 N.3   328  LEU328     -0.1245
    101  CA        22.7140   -5.6450  -61.0130 C.3   328  LEU328      0.1561
    102  C         23.9030   -5.2830  -61.8840 C.2   328  LEU328      0.2260
    103  O         23.7420   -4.8640  -63.0290 O.2   328  LEU328     -0.2867
    104  CB        22.4630   -7.1400  -61.1680 C.3   328  LEU328      0.0270
    105  CG        21.3920   -7.7520  -60.2780 C.3   328  LEU328      0.0019
    106  CD1       20.9600   -9.0840  -60.8680 C.3   328  LEU328      0.0001
    107  CD2       21.8860   -7.9000  -58.8400 C.3   328  LEU328      0.0001
    108  N         22.4590  -28.9300  -58.2410 N.3   350  PHE350     -0.1241
    109  CA        22.3250  -27.8600  -59.2020 C.3   350  PHE350      0.1605
    110  C         21.7390  -28.4350  -60.4940 C.2   350  PHE350      0.2264
    111  O         20.7390  -27.9390  -61.0000 O.2   350  PHE350     -0.2867
    112  CB        23.6880  -27.1990  -59.4450 C.3   350  PHE350      0.0534
    113  CG        23.6290  -25.8540  -60.1580 C.ar  350  PHE350     -0.0203
    114  CD1       22.5970  -24.9410  -59.9250 C.ar  350  PHE350     -0.0042
    115  CD2       24.6640  -25.4800  -61.0220 C.ar  350  PHE350     -0.0042
    116  CE1       22.5870  -23.6970  -60.5690 C.ar  350  PHE350     -0.0003
    117  CE2       24.6590  -24.2450  -61.6640 C.ar  350  PHE350     -0.0003
    118  CZ        23.6210  -23.3500  -61.4400 C.ar  350  PHE350     -0.0000
    119  N         17.9680  -29.3410  -59.8230 N.3   353  LEU353     -0.1231
    120  CA        17.0830  -28.1860  -59.6190 C.3   353  LEU353      0.1693
    121  C         16.8330  -27.3840  -60.8850 C.2   353  LEU353      0.2592
    122  O         15.8500  -26.6580  -60.9560 O.2   353  LEU353     -0.2718
    123  CB        17.5880  -27.2620  -58.4910 C.3   353  LEU353      0.0284
    124  CG        18.8380  -26.3900  -58.6600 C.3   353  LEU353      0.0019
    125  CD1       18.6160  -25.1950  -59.5830 C.3   353  LEU353      0.0001
    126  CD2       19.3290  -25.9000  -57.2980 C.3   353  LEU353      0.0001
    127  N         17.7150  -27.5140  -61.8750 N.am  354  TYR354     -0.1976
    128  CA        17.6120  -26.7270  -63.1150 C.3   354  TYR354      0.1639
    129  C         16.8660  -27.4930  -64.2210 C.2   354  TYR354      0.2290
    130  O         16.9730  -27.1270  -65.3830 O.2   354  TYR354     -0.2864
    131  CB        19.0170  -26.3110  -63.6100 C.3   354  TYR354      0.0560
    132  CG        19.1770  -24.8680  -64.1190 C.ar  354  TYR354     -0.0198
    133  CD1       19.9530  -23.9440  -63.4150 C.ar  354  TYR354     -0.0009
    134  CD2       18.5940  -24.4410  -65.3190 C.ar  354  TYR354     -0.0009
    135  CE1       20.1260  -22.6270  -63.8720 C.ar  354  TYR354      0.0417
    136  CE2       18.7700  -23.1310  -65.7910 C.ar  354  TYR354      0.0417
    137  CZ        19.5340  -22.2270  -65.0600 C.ar  354  TYR354      0.1957
    138  OH        19.6940  -20.9220  -65.4990 O.3   354  TYR354     -0.2866
    139  N         13.9290  -27.2740  -65.5800 N.3   356  TRP356     -0.1241
    140  CA        12.8100  -26.3420  -65.6640 C.3   356  TRP356      0.1605
    141  C         11.9600  -26.5470  -66.9090 C.2   356  TRP356      0.2264
    142  O         11.6720  -25.5940  -67.6520 O.2   356  TRP356     -0.2867
    143  CB        13.3340  -24.9150  -65.7220 C.3   356  TRP356      0.0550
    144  CG        14.0910  -24.4630  -64.5470 C.ar  356  TRP356      0.0003
    145  CD1       14.1840  -25.0710  -63.3260 C.ar  356  TRP356      0.0946
    146  CD2       14.8280  -23.2450  -64.4490 C.ar  356  TRP356      0.0152
    147  NE1       14.9640  -24.3130  -62.4820 N.ar  356  TRP356     -0.2442
    148  CE2       15.3650  -23.1830  -63.1500 C.ar  356  TRP356      0.0810
    149  CE3       15.1010  -22.2080  -65.3440 C.ar  356  TRP356      0.0012
    150  CZ2       16.1580  -22.1230  -62.7270 C.ar  356  TRP356      0.0191
    151  CZ3       15.8930  -21.1670  -64.9280 C.ar  356  TRP356      0.0001
    152  CH2       16.4160  -21.1310  -63.6300 C.ar  356  TRP356      0.0015
    153  N          9.4870  -18.3420  -59.6840 N.3   487  PHE487     -0.1241
    154  CA         9.9870  -19.3320  -58.7120 C.3   487  PHE487      0.1605
    155  C          9.5270  -19.0150  -57.3010 C.2   487  PHE487      0.2264
    156  O          8.9220  -17.9700  -57.0620 O.2   487  PHE487     -0.2867
    157  CB        11.5210  -19.3360  -58.6520 C.3   487  PHE487      0.0534
    158  CG        12.1920  -19.5850  -59.9590 C.ar  487  PHE487     -0.0203
    159  CD1       11.8890  -20.7120  -60.7030 C.ar  487  PHE487     -0.0042
    160  CD2       13.1660  -18.7140  -60.4200 C.ar  487  PHE487     -0.0042
    161  CE1       12.5240  -20.9490  -61.9020 C.ar  487  PHE487     -0.0003
    162  CE2       13.8020  -18.9380  -61.6150 C.ar  487  PHE487     -0.0003
    163  CZ        13.4860  -20.0530  -62.3600 C.ar  487  PHE487     -0.0000
    164  N         14.0690  -22.6650  -54.7060 N.3   491  MET491     -0.1230
    165  CA        14.7630  -22.6620  -56.0000 C.3   491  MET491      0.1702
    166  C         15.8500  -21.5870  -56.0560 C.2   491  MET491      0.2592
    167  O         16.9740  -21.8900  -56.4400 O.2   491  MET491     -0.2718
    168  CB        13.7860  -22.4850  -57.1700 C.3   491  MET491      0.0401
    169  CG        14.4180  -22.5980  -58.5600 C.3   491  MET491      0.0596
    170  SD        14.6820  -24.2990  -59.1110 S.3   491  MET491     -0.1393
    171  CE        13.0550  -24.6850  -59.7730 C.3   491  MET491      0.0692
    172  N         15.5330  -20.3510  -55.6670 N.am  492  VAL492     -0.1980
    173  CA        16.5110  -19.2550  -55.7220 C.3   492  VAL492      0.1595
    174  C         17.6760  -19.4200  -54.7240 C.2   492  VAL492      0.2287
    175  O         18.8560  -19.3540  -55.1110 O.2   492  VAL492     -0.2864
    176  CB        15.8380  -17.8690  -55.4720 C.3   492  VAL492      0.0276
    177  CG1       16.8930  -16.7810  -55.2710 C.3   492  VAL492      0.0022
    178  CG2       14.8880  -17.4990  -56.6170 C.3   492  VAL492      0.0022
    179  N         19.8250  -22.1120  -55.8030 N.3   495  GLY495     -0.1210
    180  CA        20.2950  -21.7790  -57.1440 C.3   495  GLY495      0.1956
    181  C         21.3560  -20.7010  -57.2130 C.2   495  GLY495      0.2611
    182  O         22.3530  -20.8750  -57.8960 O.2   495  GLY495     -0.2717
    183  N         21.1590  -19.6010  -56.4990 N.am  496  ALA496     -0.1979
    184  CA        22.0300  -18.4270  -56.6460 C.3   496  ALA496      0.1597
    185  C         23.4850  -18.6680  -56.2000 C.2   496  ALA496      0.2287
    186  O         24.4230  -18.2890  -56.9200 O.2   496  ALA496     -0.2864
    187  CB        21.4240  -17.1990  -55.9230 C.3   496  ALA496      0.0319
    188  N         25.3370  -20.8290  -58.6410 N.3   499  SER499     -0.1202
    189  CA        25.5730  -20.1540  -59.9020 C.3   499  SER499      0.2020
    190  C         26.6500  -19.0680  -59.8100 C.2   499  SER499      0.2618
    191  O         27.5430  -19.0050  -60.6720 O.2   499  SER499     -0.2717
    192  CB        24.2880  -19.5730  -60.4590 C.3   499  SER499      0.2103
    193  OG        24.4890  -19.3010  -61.8340 O.3   499  SER499     -0.2182
    194  N         26.5860  -18.2320  -58.7730 N.am  500  LEU500     -0.1979
    195  CA        27.6070  -17.2030  -58.5970 C.3   500  LEU500      0.1596
    196  C         29.0100  -17.8020  -58.5580 C.2   500  LEU500      0.2287
    197  O         29.9690  -17.1780  -59.0080 O.2   500  LEU500     -0.2864
    198  CB        27.3490  -16.3660  -57.3410 C.3   500  LEU500      0.0297
    199  CG        26.2430  -15.3000  -57.4250 C.3   500  LEU500      0.0022
    200  CD1       26.2710  -14.4130  -56.1900 C.3   500  LEU500      0.0001
    201  CD2       26.3650  -14.4660  -58.6800 C.3   500  LEU500      0.0001
    202  N         29.6810  -18.3850  -62.3980 N.3   503  LEU503     -0.1245
    203  CA        29.9540  -17.0650  -62.9900 C.3   503  LEU503      0.1561
    204  C         31.2550  -16.4320  -62.4570 C.2   503  LEU503      0.2260
    205  O         32.2140  -16.2760  -63.2150 O.2   503  LEU503     -0.2867
    206  CB        28.7870  -16.1030  -62.7690 C.3   503  LEU503      0.0270
    207  CG        27.4410  -16.3330  -63.4770 C.3   503  LEU503      0.0019
    208  CD1       27.6180  -16.8690  -64.8970 C.3   503  LEU503      0.0001
    209  CD2       26.5280  -17.2300  -62.6460 C.3   503  LEU503      0.0001
@<TRIPOS>BOND
     1    37    38    1
     2    38    41    1
     3    38    39    1
     4    41    42    1
     5    39    40    2
     6    43    42   ar
     7    43    45   ar
     8    42    44   ar
     9    45    47   ar
    10    61    63   ar
    11    61    60   ar
    12    48    49    1
    13    44    46   ar
    14    63    65   ar
    15    54    52    1
    16    59    60    1
    17    59    56    1
    18    55    56    1
    19    60    62   ar
    20    47    46   ar
    21    49    52    1
    22    49    50    1
    23    56    57    1
    24   142   141    2
    25    65    66    1
    26    65    64   ar
    27    52    53    1
    28   141   140    1
    29    62    64   ar
    30    50    51    2
    31    57    58    2
    32    57    67   am
    33   136   134   ar
    34   136   137   ar
    35   143   140    1
    36   143   144    1
    37   140   139    1
    38   138   137    1
    39   130   129    2
    40   149   151   ar
    41   149   146   ar
    42   134   132   ar
    43    67    68    1
    44   137   135   ar
    45   151   152   ar
    46   208   207    1
    47    80    79    1
    48   144   146   ar
    49   144   145   ar
    50   146   148   ar
    51   129   128    1
    52   132   131    1
    53   132   133   ar
    54   135   133   ar
    55    68    69    1
    56    68    71    1
    57    74    75    1
    58    81    79    1
    59   152   150   ar
    60   131   128    1
    61    79    78    1
    62   207   206    1
    63   207   209    1
    64    69    70    2
    65   145   147   ar
    66   205   204    2
    67    73    71    1
    68   148   150   ar
    69   148   147   ar
    70   128   127    1
    71   103   102    2
    72    71    72    1
    73   203   206    1
    74   203   204    1
    75   203   202    1
    76    75    78    1
    77    75    76    1
    78   163   161   ar
    79   163   162   ar
    80   161   159   ar
    81   102   101    1
    82   127   121   am
    83   193   192    1
    84   117   118   ar
    85   117   115   ar
    86   162   160   ar
    87    76    82   am
    88    76    77    2
    89   118   116   ar
    90   100   101    1
    91   104   101    1
    92   104   105    1
    93    82    83    1
    94   115   113   ar
    95   111   110    2
    96   122   121    2
    97   121   120    1
    98   106   105    1
    99   159   158   ar
   100   191   190    2
   101    91    90    2
   102    87    86    1
   103   116   114   ar
   104   110   109    1
   105   192   189    1
   106   160   158   ar
   107   105   107    1
   108   113   114   ar
   109   113   112    1
   110   158   157    1
   111   189   190    1
   112   189   188    1
   113    83    86    1
   114    83    84    1
   115   119   120    1
   116   190   194   am
   117   171   170    1
   118   153   154    1
   119   120   123    1
   120   125   124    1
   121    84    85    2
   122    88    89    1
   123    90    89    1
   124   112   109    1
   125   109   108    1
   126   170   169    1
   127   197   196    2
   128    18    17    1
   129   194   195    1
   130   154   157    1
   131   154   155    1
   132   201   199    1
   133    89    92    1
   134   124   123    1
   135   124   126    1
   136   195   196    1
   137   195   198    1
   138   169   168    1
   139    92    93    1
   140    17    16    1
   141   182   181    2
   142    16    15    1
   143   199   198    1
   144   199   200    1
   145   155   156    2
   146    93    95   ar
   147    93    94   ar
   148   181   180    1
   149   181   183   am
   150   168   165    1
   151   180   179    1
   152    15    12    1
   153   186   185    2
   154    95    97   ar
   155    94    96   ar
   156   184   183    1
   157   184   185    1
   158   184   187    1
   159   178   176    1
   160   167   166    2
   161   166   165    1
   162   166   172   am
   163   165   164    1
   164    97    98   ar
   165    96    98   ar
   166   173   172    1
   167   173   176    1
   168   173   174    1
   169    25    23    1
   170    12    11    1
   171    12    13    1
   172   176   177    1
   173    98    99    1
   174    10     9   ar
   175    10     8   ar
   176   175   174    2
   177    13    14    2
   178     9     7   ar
   179    23    24    1
   180    23    20    1
   181     8     6   ar
   182     7     6   ar
   183    21    20    1
   184    21    22    2
   185    20    19    1
   186     6     5    1
   187    31    32    1
   188    31    30    1
   189    32    33    1
   190     4     3    2
   191    35    34    1
   192    33    34    2
   193    34    36    1
   194    30    27    1
   195     5     2    1
   196     3     2    1
   197     2     1    1
   198    27    28    1
   199    27    26    1
   200    28    29    2
