@<TRIPOS>MOLECULE
tmp/3mqgC04.pdb
 106 100 0 0 0
SMALL
GASTEIGER

@<TRIPOS>ATOM
      1  N         -6.8240   -6.9210  -17.4190 N.3    35  GLU35      -0.1245
      2  CA        -6.1380   -8.1910  -17.5100 C.3    35  GLU35       0.1567
      3  C         -5.3300   -8.1880  -18.7930 C.2    35  GLU35       0.2260
      4  O         -5.8810   -7.8910  -19.8560 O.2    35  GLU35      -0.2867
      5  CB        -7.0980   -9.3850  -17.4650 C.3    35  GLU35       0.0388
      6  CG        -7.8220   -9.5250  -16.1430 C.3    35  GLU35       0.1160
      7  CD        -8.3920  -10.9090  -15.8710 C.2    35  GLU35       0.3649
      8  OE1       -8.9840  -11.0540  -14.7580 O.co2  35  GLU35      -0.2457
      9  OE2       -8.2090  -11.8170  -16.7090 O.co2  35  GLU35      -0.2457
     10  N        -12.0340   -1.9460  -17.8590 N.3    51  ARG51      -0.1245
     11  CA       -12.8840   -2.9270  -18.5100 C.3    51  ARG51       0.1563
     12  C        -12.1880   -3.3530  -19.8040 C.2    51  ARG51       0.2260
     13  O        -12.6910   -3.0950  -20.9030 O.2    51  ARG51      -0.2867
     14  CB       -14.3060   -2.4350  -18.7830 C.3    51  ARG51       0.0307
     15  CG       -15.2330   -3.6080  -19.1370 C.3    51  ARG51       0.0489
     16  CD       -16.7210   -3.2530  -19.1080 C.3    51  ARG51       0.2205
     17  NE       -17.5160   -4.3800  -19.5860 N.pl3  51  ARG51      -0.0865
     18  CZ       -17.8930   -4.5800  -20.8490 C.cat  51  ARG51       0.5346
     19  NH1      -17.5560   -3.7300  -21.8060 N.pl3  51  ARG51       0.1354
     20  NH2      -18.6160   -5.6450  -21.1720 N.pl3  51  ARG51       0.1354
     21  N         -9.6050   -6.5760  -21.6190 N.3    53  ARG53      -0.1231
     22  CA        -8.8580   -7.8280  -21.6220 C.3    53  ARG53       0.1694
     23  C         -7.9630   -7.8230  -22.8290 C.2    53  ARG53       0.2592
     24  O         -8.4580   -7.5690  -23.9380 O.2    53  ARG53      -0.2718
     25  CB        -9.7330   -9.0830  -21.6350 C.3    53  ARG53       0.0321
     26  CG       -10.6460   -9.2040  -20.4190 C.3    53  ARG53       0.0489
     27  CD       -11.2910  -10.6150  -20.4200 C.3    53  ARG53       0.2205
     28  NE       -11.9270  -10.7760  -21.7300 N.pl3  53  ARG53      -0.0865
     29  CZ       -13.1470  -10.3180  -21.9480 C.cat  53  ARG53       0.5346
     30  NH1      -13.7760   -9.7430  -20.9320 N.pl3  53  ARG53       0.1354
     31  NH2      -13.7260  -10.4250  -23.1440 N.pl3  53  ARG53       0.1354
     32  N         -6.6840   -8.1220  -22.6030 N.am   54  ILE54      -0.1966
     33  CA        -5.6300   -8.1840  -23.6250 C.3    54  ILE54       0.1727
     34  C         -5.0360   -9.5740  -23.5250 C.2    54  ILE54       0.2616
     35  O         -4.6540   -9.9830  -22.4180 O.2    54  ILE54      -0.2715
     36  CB        -4.5590   -7.0880  -23.3740 C.3    54  ILE54       0.0290
     37  CG1       -5.1700   -5.6980  -23.5980 C.3    54  ILE54       0.0022
     38  CG2       -3.3320   -7.2870  -24.3180 C.3    54  ILE54       0.0023
     39  CD1       -4.4010   -4.5070  -23.1250 C.3    54  ILE54       0.0001
     40  N         -4.9810  -10.2760  -24.6430 N.am   55  GLY55      -0.1955
     41  CA        -4.4790  -11.6570  -24.6590 C.3    55  GLY55       0.1869
     42  C         -2.9600  -11.7570  -24.5720 C.2    55  GLY55       0.2309
     43  O         -2.2910  -10.8860  -23.9860 O.2    55  GLY55      -0.2863
     44  N        -11.2080   -4.9510  -26.3270 N.3    71  PHE71      -0.1227
     45  CA       -10.7760   -6.3140  -26.0600 C.3    71  PHE71       0.1736
     46  C         -9.9210   -6.8170  -27.1850 C.2    71  PHE71       0.2595
     47  O        -10.3740   -6.8060  -28.3370 O.2    71  PHE71      -0.2718
     48  CB       -12.0130   -7.2210  -25.8690 C.3    71  PHE71       0.0547
     49  CG       -12.9620   -6.7140  -24.8150 C.ar   71  PHE71      -0.0202
     50  CD1      -12.6750   -6.9880  -23.4810 C.ar   71  PHE71      -0.0042
     51  CD2      -14.0430   -5.8880  -25.1290 C.ar   71  PHE71      -0.0042
     52  CE1      -13.4910   -6.5240  -22.4310 C.ar   71  PHE71      -0.0003
     53  CE2      -14.8590   -5.3960  -24.0760 C.ar   71  PHE71      -0.0003
     54  CZ       -14.5620   -5.6990  -22.7430 C.ar   71  PHE71      -0.0000
     55  N         -8.7100   -7.2370  -26.8230 N.am   72  LEU72      -0.1966
     56  CA        -7.6840   -7.5920  -27.8270 C.3    72  LEU72       0.1728
     57  C         -7.2960   -9.0470  -27.6680 C.2    72  LEU72       0.2616
     58  O         -6.8090   -9.4560  -26.6110 O.2    72  LEU72      -0.2715
     59  CB        -6.4260   -6.7320  -27.7220 C.3    72  LEU72       0.0311
     60  CG        -6.6650   -5.2360  -27.6210 C.3    72  LEU72       0.0022
     61  CD1       -5.3350   -4.4890  -27.5250 C.3    72  LEU72       0.0001
     62  CD2       -7.4540   -4.7840  -28.8740 C.3    72  LEU72       0.0001
     63  N         -7.5310   -9.8710  -28.6730 N.am   73  GLU73      -0.1963
     64  CA        -7.0930  -11.2640  -28.6640 C.3    73  GLU73       0.1733
     65  C         -5.5970  -11.4170  -28.8400 C.2    73  GLU73       0.2616
     66  O         -4.8450  -10.4870  -29.1060 O.2    73  GLU73      -0.2715
     67  CB        -7.8480  -12.0740  -29.7320 C.3    73  GLU73       0.0429
     68  CG        -9.3250  -12.2280  -29.3500 C.3    73  GLU73       0.1163
     69  CD       -10.0580  -13.2630  -30.2040 C.2    73  GLU73       0.3649
     70  OE1      -11.1500  -13.6950  -29.7410 O.co2  73  GLU73      -0.2457
     71  OE2       -9.6420  -13.6740  -31.3040 O.co2  73  GLU73      -0.2457
     72  N         -5.1270  -12.6540  -28.7130 N.am   74  ASP74      -0.1971
     73  CA        -3.7200  -13.0320  -28.8160 C.3    74  ASP74       0.1709
     74  C         -3.1940  -12.5040  -30.1500 C.2    74  ASP74       0.2293
     75  O         -3.8620  -12.4960  -31.1990 O.2    74  ASP74      -0.2864
     76  CB        -3.5020  -14.5670  -28.8840 C.3    74  ASP74       0.1436
     77  CG        -3.9340  -15.3250  -27.6480 C.2    74  ASP74       0.3671
     78  OD1       -4.2240  -16.5450  -27.7610 O.co2  74  ASP74      -0.2456
     79  OD2       -3.9960  -14.6940  -26.6080 O.co2  74  ASP74      -0.2456
     80  N        -18.6500   -1.9350  -27.4420 N.3   102  ASP102     -0.1239
     81  CA       -17.4260   -2.7500  -27.3580 C.3   102  ASP102      0.1674
     82  C        -16.6630   -2.7170  -28.6680 C.2   102  ASP102      0.2266
     83  O        -17.2260   -2.6880  -29.7620 O.2   102  ASP102     -0.2867
     84  CB       -17.7220   -4.2300  -27.1110 C.3   102  ASP102      0.1410
     85  CG       -18.3120   -4.5010  -25.7450 C.2   102  ASP102      0.3668
     86  OD1      -18.1100   -3.6700  -24.8400 O.co2 102  ASP102     -0.2456
     87  OD2      -18.9450   -5.5640  -25.5380 O.co2 102  ASP102     -0.2456
     88  N        -13.8860   -5.1370  -30.4660 N.3   104  ILE104     -0.1245
     89  CA       -13.2250   -6.4320  -30.2900 C.3   104  ILE104      0.1561
     90  C        -12.2740   -6.6210  -31.4440 C.2   104  ILE104      0.2260
     91  O        -12.6750   -6.5090  -32.6240 O.2   104  ILE104     -0.2867
     92  CB       -14.2800   -7.5450  -30.2930 C.3   104  ILE104      0.0252
     93  CG1      -15.2820   -7.3460  -29.1440 C.3   104  ILE104      0.0019
     94  CG2      -13.6150   -8.8950  -30.1880 C.3   104  ILE104      0.0019
     95  CD1      -16.4820   -8.3250  -29.2150 C.3   104  ILE104      0.0001
     96  N         -9.8030   -9.3510  -33.0580 N.3   106  ARG106     -0.1245
     97  CA        -9.5450  -10.7820  -33.0800 C.3   106  ARG106      0.1563
     98  C         -8.1000  -11.1610  -33.3620 C.2   106  ARG106      0.2260
     99  O         -7.3010  -10.3370  -33.8750 O.2   106  ARG106     -0.2867
    100  CB       -10.5100  -11.5420  -34.0230 C.3   106  ARG106      0.0307
    101  CG       -12.0000  -11.3110  -33.6800 C.3   106  ARG106      0.0489
    102  CD       -12.4150  -11.8900  -32.3340 C.3   106  ARG106      0.2205
    103  NE       -13.8810  -11.7780  -32.1520 N.pl3 106  ARG106     -0.0865
    104  CZ       -14.5030  -12.2430  -31.0700 C.cat 106  ARG106      0.5346
    105  NH1      -13.8680  -12.8650  -30.1010 N.pl3 106  ARG106      0.1354
    106  NH2      -15.8180  -12.0730  -30.9930 N.pl3 106  ARG106      0.1354
@<TRIPOS>BOND
     1   100   101    1
     2   100    97    1
     3    99    98    2
     4   101   102    1
     5    98    97    1
     6    97    96    1
     7    91    90    2
     8   102   103    1
     9   103   104    2
    10    90    89    1
    11    71    69   ar
    12    75    74    2
    13   104   106    1
    14   104   105    1
    15    88    89    1
    16    92    89    1
    17    92    94    1
    18    92    93    1
    19    69    70   ar
    20    69    68    1
    21    74    73    1
    22    83    82    2
    23    67    68    1
    24    67    64    1
    25    95    93    1
    26    66    65    2
    27    76    73    1
    28    76    77    1
    29    62    60    1
    30    65    72   am
    31    65    64    1
    32    73    72    1
    33    63    64    1
    34    63    57   am
    35    82    81    1
    36    47    46    2
    37    56    59    1
    38    56    57    1
    39    56    55    1
    40    78    77   ar
    41    59    60    1
    42    57    58    2
    43    77    79   ar
    44    60    61    1
    45    80    81    1
    46    81    84    1
    47    46    55   am
    48    46    45    1
    49    84    85    1
    50    44    45    1
    51    45    48    1
    52    48    49    1
    53    85    87   ar
    54    85    86   ar
    55    51    49   ar
    56    51    53   ar
    57    49    50   ar
    58    41    40    1
    59    41    42    1
    60    40    34   am
    61    42    43    2
    62    38    36    1
    63    53    54   ar
    64    24    23    2
    65    33    34    1
    66    33    36    1
    67    33    32    1
    68    37    36    1
    69    37    39    1
    70    34    35    2
    71    50    52   ar
    72    31    29    1
    73    23    32   am
    74    23    22    1
    75    54    52   ar
    76    29    28    2
    77    29    30    1
    78    19    18    1
    79    28    27    1
    80    25    22    1
    81    25    26    1
    82    22    21    1
    83    20    18    1
    84    13    12    2
    85    18    17    2
    86    27    26    1
    87     4     3    2
    88    12    11    1
    89    17    16    1
    90    15    16    1
    91    15    14    1
    92     3     2    1
    93    14    11    1
    94    11    10    1
    95     2     5    1
    96     2     1    1
    97     5     6    1
    98     9     7   ar
    99     6     7    1
   100     7     8   ar
