@<TRIPOS>MOLECULE
tmp/3mqgC03.pdb
 88 86 0 0 0
SMALL
GASTEIGER

@<TRIPOS>ATOM
      1  N          6.3220   -6.9000  -20.9930 N.3    23  ARG23      -0.1245
      2  CA         7.1410   -5.7180  -20.7680 C.3    23  ARG23       0.1563
      3  C          6.2820   -4.4600  -20.8380 C.2    23  ARG23       0.2260
      4  O          5.4570   -4.2790  -21.7490 O.2    23  ARG23      -0.2867
      5  CB         8.2400   -5.6280  -21.8130 C.3    23  ARG23       0.0307
      6  CG         9.2660   -6.7610  -21.7680 C.3    23  ARG23       0.0489
      7  CD         9.9890   -6.8520  -23.1090 C.3    23  ARG23       0.2205
      8  NE         9.4260   -7.9080  -23.9460 N.pl3  23  ARG23      -0.0865
      9  CZ         8.1920   -8.3840  -23.8120 C.cat  23  ARG23       0.5346
     10  NH1        7.3820   -7.8900  -22.8870 N.pl3  23  ARG23       0.1354
     11  NH2        7.7690   -9.3630  -24.5960 N.pl3  23  ARG23       0.1354
     12  N          6.6090   -0.2870  -20.5990 N.3    25  TRP25      -0.1227
     13  CA         7.6370    0.7100  -20.7320 C.3    25  TRP25       0.1737
     14  C          7.2860    2.0090  -20.0070 C.2    25  TRP25       0.2595
     15  O          6.4510    2.0270  -19.1120 O.2    25  TRP25      -0.2718
     16  CB         7.9190    0.8720  -22.2250 C.3    25  TRP25       0.0564
     17  CG         8.6280   -0.3550  -22.7180 C.ar   25  TRP25       0.0003
     18  CD1        8.1090   -1.3900  -23.4490 C.ar   25  TRP25       0.0946
     19  CD2       10.0060   -0.6770  -22.4630 C.ar   25  TRP25       0.0152
     20  NE1        9.0960   -2.3240  -23.6920 N.ar   25  TRP25      -0.2442
     21  CE2       10.2660   -1.9080  -23.1060 C.ar   25  TRP25       0.0810
     22  CE3       11.0330   -0.0260  -21.7680 C.ar   25  TRP25       0.0012
     23  CZ2       11.5150   -2.5240  -23.0610 C.ar   25  TRP25       0.0191
     24  CZ3       12.2810   -0.6320  -21.7400 C.ar   25  TRP25       0.0001
     25  CH2       12.5040   -1.8690  -22.3660 C.ar   25  TRP25       0.0015
     26  N          8.0120    3.0810  -20.3530 N.am   26  HIS26      -0.1975
     27  CA         7.9980    4.3140  -19.5720 C.3    26  HIS26       0.1656
     28  C          6.6670    5.0260  -19.4570 C.2    26  HIS26       0.2291
     29  O          5.9310    5.1990  -20.4650 O.2    26  HIS26      -0.2864
     30  CB         9.0110    5.3290  -20.1060 C.3    26  HIS26       0.0771
     31  CG        10.3760    4.7520  -20.2890 C.ar   26  HIS26       0.0820
     32  ND1       10.6690    3.7140  -21.1450 N.ar   26  HIS26      -0.2267
     33  CD2       11.5600    5.1770  -19.7840 C.ar   26  HIS26       0.1154
     34  CE1       11.9650    3.4610  -21.1020 C.ar   26  HIS26       0.1986
     35  NE2       12.5220    4.3410  -20.2860 N.ar   26  HIS26      -0.2212
     36  N          3.8270   -6.4820  -24.9550 N.3    41  SER41      -0.1217
     37  CA         4.7270   -5.3350  -24.8590 C.3    41  SER41       0.1889
     38  C          3.8570   -4.0950  -24.8950 C.2    41  SER41       0.2288
     39  O          3.0150   -3.9850  -25.8080 O.2    41  SER41      -0.2866
     40  CB         5.7040   -5.3280  -26.0120 C.3    41  SER41       0.2089
     41  OG         6.5530   -4.2050  -25.8010 O.3    41  SER41      -0.2183
     42  N          4.1450    0.0450  -24.9570 N.3    43  GLY43      -0.1210
     43  CA         5.1000    1.1120  -25.2050 C.3    43  GLY43       0.1956
     44  C          4.8540    2.3260  -24.3360 C.2    43  GLY43       0.2611
     45  O          3.9030    2.4370  -23.5650 O.2    43  GLY43      -0.2717
     46  N          5.7580    3.2770  -24.5400 N.am   44  GLN44      -0.1979
     47  CA         5.7340    4.5560  -23.8160 C.3    44  GLN44       0.1601
     48  C          4.3660    5.2420  -23.7900 C.2    44  GLN44       0.2287
     49  O          3.7410    5.3290  -24.8710 O.2    44  GLN44      -0.2864
     50  CB         6.7660    5.5220  -24.4240 C.3    44  GLN44       0.0394
     51  CG         6.8820    6.8440  -23.6790 C.3    44  GLN44       0.0908
     52  CD         8.0710    7.6190  -24.1880 C.2    44  GLN44       0.2608
     53  OE1        9.1720    7.0730  -24.3060 O.2    44  GLN44      -0.2717
     54  NE2        7.8620    8.8910  -24.5480 N.am   44  GLN44      -0.0878
     55  N          1.2340   -6.7520  -28.9370 N.3    59  LYS59      -0.1231
     56  CA         2.2750   -5.7240  -29.0090 C.3    59  LYS59       0.1693
     57  C          1.5680   -4.4080  -29.1910 C.2    59  LYS59       0.2592
     58  O          0.9080   -4.1760  -30.2100 O.2    59  LYS59      -0.2718
     59  CB         3.2330   -6.0260  -30.1690 C.3    59  LYS59       0.0285
     60  CG         4.0660   -7.2730  -29.7890 C.3    59  LYS59       0.0035
     61  CD         5.1870   -7.5560  -30.7850 C.3    59  LYS59       0.0206
     62  CE         5.8410   -8.9130  -30.5250 C.3    59  LYS59       0.1093
     63  NZ         6.9740   -8.9920  -31.5110 N.3    59  LYS59      -0.1314
     64  N          1.6810   -3.5380  -28.2090 N.am   60  ILE60      -0.1966
     65  CA         0.9950   -2.2500  -28.1700 C.3    60  ILE60       0.1727
     66  C          2.0590   -1.1900  -28.2040 C.2    60  ILE60       0.2616
     67  O          2.8360   -1.0570  -27.2270 O.2    60  ILE60      -0.2715
     68  CB         0.1190   -2.1100  -26.9450 C.3    60  ILE60       0.0290
     69  CG1       -0.9180   -3.2330  -26.9210 C.3    60  ILE60       0.0022
     70  CG2       -0.6030   -0.7450  -26.9730 C.3    60  ILE60       0.0023
     71  CD1       -1.7930   -3.3040  -25.6870 C.3    60  ILE60       0.0001
     72  N          2.1470   -0.4450  -29.2980 N.am   61  GLN61      -0.1963
     73  CA         3.1840    0.5450  -29.4560 C.3    61  GLN61       0.1733
     74  C          2.8930    1.8250  -28.6830 C.2    61  GLN61       0.2616
     75  O          1.8760    1.9580  -27.9940 O.2    61  GLN61      -0.2715
     76  CB         3.4190    0.8040  -30.9630 C.3    61  GLN61       0.0408
     77  CG         3.8410   -0.4180  -31.7710 C.3    61  GLN61       0.0908
     78  CD         4.9950   -1.2350  -31.3070 C.2    61  GLN61       0.2608
     79  OE1        4.8520   -2.4490  -31.0760 O.2    61  GLN61      -0.2717
     80  NE2        6.1370   -0.6120  -31.2400 N.am   61  GLN61      -0.0878
     81  N          3.7950    2.7940  -28.8000 N.am   62  ASN62      -0.1972
     82  CA         3.6990    4.0060  -27.9980 C.3    62  ASN62       0.1688
     83  C          2.3750    4.7360  -28.1990 C.2    62  ASN62       0.2292
     84  O          1.8340    4.7490  -29.3290 O.2    62  ASN62      -0.2864
     85  CB         4.8070    4.9930  -28.3710 C.3    62  ASN62       0.1181
     86  CG         6.1900    4.5130  -28.0430 C.2    62  ASN62       0.2629
     87  OD1        6.3910    3.4610  -27.4220 O.2    62  ASN62      -0.2716
     88  ND2        7.1970    5.3040  -28.4480 N.am   62  ASN62      -0.0877
@<TRIPOS>BOND
     1    77    78    1
     2    77    76    1
     3    63    62    1
     4    78    80   am
     5    78    79    2
     6    76    73    1
     7    61    62    1
     8    61    60    1
     9    58    57    2
    10    59    60    1
    11    59    56    1
    12    73    72    1
    13    73    74    1
    14    84    83    2
    15    72    66   am
    16    57    56    1
    17    57    64   am
    18    56    55    1
    19    81    74   am
    20    81    82    1
    21    74    75    2
    22    88    86   am
    23    85    86    1
    24    85    82    1
    25    64    65    1
    26    66    65    1
    27    66    67    2
    28    83    82    1
    29    65    68    1
    30    86    87    2
    31    70    68    1
    32    68    69    1
    33    69    71    1
    34    40    41    1
    35    40    37    1
    36    39    38    2
    37    43    42    1
    38    43    44    1
    39    36    37    1
    40    38    37    1
    41    49    48    2
    42    11     9    1
    43    54    52   am
    44    46    44   am
    45    46    47    1
    46    50    47    1
    47    50    51    1
    48    44    45    2
    49    53    52    2
    50    52    51    1
    51     8     9    2
    52     8     7    1
    53    47    48    1
    54     9    10    1
    55    20    18   ar
    56    20    21   ar
    57    18    17   ar
    58     7     6    1
    59    21    23   ar
    60    21    19   ar
    61    23    25   ar
    62    17    19   ar
    63    17    16    1
    64    19    22   ar
    65    25    24   ar
    66    16    13    1
    67     5     6    1
    68     5     2    1
    69    22    24   ar
    70     4     3    2
    71    32    34   ar
    72    32    31   ar
    73    34    35   ar
    74     1     2    1
    75     3     2    1
    76    13    12    1
    77    13    14    1
    78    29    28    2
    79    26    14   am
    80    26    27    1
    81    31    30    1
    82    31    33   ar
    83    35    33   ar
    84    30    27    1
    85    14    15    2
    86    27    28    1
