@<TRIPOS>MOLECULE
tmp/3mqgE02.pdb
 88 86 0 0 0
SMALL
GASTEIGER

@<TRIPOS>ATOM
      1  N         41.5290   28.1740   18.1210 N.3    21  ARG21      -0.1245
      2  CA        40.5920   28.1900   19.2350 C.3    21  ARG21       0.1563
      3  C         39.7280   26.9320   19.1630 C.2    21  ARG21       0.2260
      4  O         39.1310   26.6770   18.1020 O.2    21  ARG21      -0.2867
      5  CB        39.6770   29.4270   19.1300 C.3    21  ARG21       0.0307
      6  CG        40.4620   30.7410   19.1080 C.3    21  ARG21       0.0489
      7  CD        39.6680   31.9670   18.6150 C.3    21  ARG21       0.2205
      8  NE        39.1540   31.9680   17.2420 N.pl3  21  ARG21      -0.0865
      9  CZ        39.8520   32.0920   16.1130 C.cat  21  ARG21       0.5346
     10  NH1       39.2110   32.0970   14.9480 N.pl3  21  ARG21       0.1354
     11  NH2       41.1740   32.2140   16.1230 N.pl3  21  ARG21       0.1354
     12  N         36.6230   25.0770   21.0600 N.3    23  TRP23      -0.1227
     13  CA        35.5210   25.4370   21.9500 C.3    23  TRP23       0.1737
     14  C         34.9960   24.2370   22.7490 C.2    23  TRP23       0.2595
     15  O         35.6830   23.2010   22.9030 O.2    23  TRP23      -0.2718
     16  CB        34.4670   26.1990   21.1280 C.3    23  TRP23       0.0564
     17  CG        34.9570   27.5210   20.6980 C.ar   23  TRP23       0.0003
     18  CD1       35.4750   27.8540   19.4850 C.ar   23  TRP23       0.0946
     19  CD2       34.9640   28.7170   21.4930 C.ar   23  TRP23       0.0152
     20  NE1       35.8100   29.2030   19.4710 N.ar   23  TRP23      -0.2442
     21  CE2       35.5130   29.7420   20.6960 C.ar   23  TRP23       0.0810
     22  CE3       34.5660   29.0060   22.7970 C.ar   23  TRP23       0.0012
     23  CZ2       35.6580   31.0550   21.1560 C.ar   23  TRP23       0.0191
     24  CZ3       34.7190   30.3180   23.2510 C.ar   23  TRP23       0.0001
     25  CH2       35.2440   31.3110   22.4360 C.ar   23  TRP23       0.0015
     26  N         33.8170   24.3860   23.3350 N.am   24  HIS24      -0.1975
     27  CA        33.3240   23.4880   24.3590 C.3    24  HIS24       0.1656
     28  C         33.0830   22.0660   23.8830 C.2    24  HIS24       0.2291
     29  O         32.4910   21.8620   22.7950 O.2    24  HIS24      -0.2864
     30  CB        31.9970   23.9820   24.9120 C.3    24  HIS24       0.0771
     31  CG        32.0040   25.3970   25.3960 C.ar   24  HIS24       0.0820
     32  ND1       32.2120   26.5000   24.5940 N.ar   24  HIS24      -0.2267
     33  CD2       31.7590   25.8660   26.6410 C.ar   24  HIS24       0.1154
     34  CE1       32.1470   27.5920   25.3440 C.ar   24  HIS24       0.1986
     35  NE2       31.8290   27.2320   26.5720 N.ar   24  HIS24      -0.2212
     36  N         39.2900   27.6110   14.0000 N.3    39  SER39      -0.1217
     37  CA        38.2860   27.7050   15.0490 C.3    39  SER39       0.1889
     38  C         37.4590   26.4290   14.9700 C.2    39  SER39       0.2288
     39  O         36.9600   26.1380   13.8530 O.2    39  SER39      -0.2866
     40  CB        37.3520   28.8780   14.7630 C.3    39  SER39       0.2089
     41  OG        36.4130   28.9340   15.8090 O.3    39  SER39      -0.2183
     42  N         34.1450   24.6480   16.6660 N.3    41  GLY41      -0.1210
     43  CA        33.0470   24.9740   17.5400 C.3    41  GLY41       0.1956
     44  C         32.5850   23.8370   18.4190 C.2    41  GLY41       0.2611
     45  O         33.1460   22.7510   18.4690 O.2    41  GLY41      -0.2717
     46  N         31.4930   24.0770   19.1210 N.am   42  GLN42      -0.1979
     47  CA        30.9570   23.1700   20.1450 C.3    42  GLN42       0.1601
     48  C         30.7290   21.7740   19.5600 C.2    42  GLN42       0.2287
     49  O         30.1560   21.6250   18.4620 O.2    42  GLN42      -0.2864
     50  CB        29.6220   23.7040   20.7140 C.3    42  GLN42       0.0394
     51  CG        28.9750   22.8340   21.7800 C.3    42  GLN42       0.0908
     52  CD        27.8080   23.5520   22.4030 C.2    42  GLN42       0.2608
     53  OE1       27.9360   24.7240   22.7750 O.2    42  GLN42      -0.2717
     54  NE2       26.6620   22.8840   22.5040 N.am   42  GLN42      -0.0878
     55  N         37.5920   27.2990    9.4820 N.3    57  LYS57      -0.1231
     56  CA        36.5560   27.5510   10.4770 C.3    57  LYS57       0.1693
     57  C         35.5780   26.3860   10.4380 C.2    57  LYS57       0.2592
     58  O         34.9770   26.1100    9.3880 O.2    57  LYS57      -0.2718
     59  CB        35.8780   28.9080   10.2410 C.3    57  LYS57       0.0285
     60  CG        36.9460   29.9950   10.0160 C.3    57  LYS57       0.0035
     61  CD        36.6320   31.3880   10.5470 C.3    57  LYS57       0.0206
     62  CE        37.7250   32.3640   10.0950 C.3    57  LYS57       0.1093
     63  NZ        39.0370   31.6790    9.8650 N.3    57  LYS57      -0.1314
     64  N         35.4710   25.6970   11.5660 N.am   58  ILE58      -0.1966
     65  CA        34.6360   24.4900   11.6690 C.3    58  ILE58       0.1727
     66  C         33.5730   24.8230   12.6830 C.2    58  ILE58       0.2616
     67  O         33.8860   25.0050   13.8660 O.2    58  ILE58      -0.2715
     68  CB        35.4690   23.2740   12.0730 C.3    58  ILE58       0.0290
     69  CG1       36.5520   23.0450   11.0200 C.3    58  ILE58       0.0022
     70  CG2       34.5600   22.0380   12.1070 C.3    58  ILE58       0.0023
     71  CD1       37.5300   21.9560   11.3600 C.3    58  ILE58       0.0001
     72  N         32.3340   24.9530   12.2300 N.am   59  GLN59      -0.1963
     73  CA        31.2330   25.3330   13.0940 C.3    59  GLN59       0.1733
     74  C         30.7760   24.1500   13.9650 C.2    59  GLN59       0.2616
     75  O         31.2870   23.0290   13.8980 O.2    59  GLN59      -0.2715
     76  CB        30.0690   25.9700   12.2850 C.3    59  GLN59       0.0408
     77  CG        30.4280   27.2550   11.5250 C.3    59  GLN59       0.0908
     78  CD        30.9500   28.4040   12.3660 C.2    59  GLN59       0.2608
     79  OE1       30.2130   28.9620   13.1590 O.2    59  GLN59      -0.2717
     80  NE2       32.2020   28.7910   12.1440 N.am   59  GLN59      -0.0878
     81  N         29.7570   24.3950   14.7750 N.am   60  ASN60      -0.1972
     82  CA        29.3010   23.4470   15.8000 C.3    60  ASN60       0.1688
     83  C         28.8960   22.1280   15.1190 C.2    60  ASN60       0.2292
     84  O         28.3330   22.1380   13.9860 O.2    60  ASN60      -0.2864
     85  CB        28.0600   23.9720   16.5130 C.3    60  ASN60       0.1181
     86  CG        28.3310   25.1520   17.4100 C.2    60  ASN60       0.2629
     87  OD1       29.4580   25.6270   17.5260 O.2    60  ASN60      -0.2716
     88  ND2       27.2810   25.6250   18.0570 N.am   60  ASN60      -0.0877
@<TRIPOS>BOND
     1    58    57    2
     2    55    56    1
     3    63    62    1
     4    60    59    1
     5    60    61    1
     6    62    61    1
     7    59    56    1
     8    57    56    1
     9    57    64   am
    10    69    71    1
    11    69    68    1
    12    77    76    1
    13    77    78    1
    14    64    65    1
    15    65    68    1
    16    65    66    1
    17    68    70    1
    18    80    78   am
    19    72    66   am
    20    72    73    1
    21    76    73    1
    22    78    79    2
    23    66    67    2
    24    73    74    1
    25    39    38    2
    26    75    74    2
    27    74    81   am
    28    84    83    2
    29    36    37    1
    30    40    37    1
    31    40    41    1
    32    81    82    1
    33    10     9    1
    34    38    37    1
    35    83    82    1
    36    82    85    1
    37     9    11    1
    38     9     8    2
    39    85    86    1
    40    42    43    1
    41     8     7    1
    42    86    87    2
    43    86    88   am
    44    43    44    1
    45     4     3    2
    46     1     2    1
    47    44    45    2
    48    44    46   am
    49    49    48    2
    50     7     6    1
    51     6     5    1
    52    46    47    1
    53     5     2    1
    54     3     2    1
    55    20    18   ar
    56    20    21   ar
    57    18    17   ar
    58    48    47    1
    59    47    50    1
    60    21    23   ar
    61    21    19   ar
    62    17    16    1
    63    17    19   ar
    64    50    51    1
    65    12    13    1
    66    16    13    1
    67    23    25   ar
    68    19    22   ar
    69    51    52    1
    70    13    14    1
    71    52    54   am
    72    52    53    2
    73    25    24   ar
    74    14    15    2
    75    14    26   am
    76    29    28    2
    77    22    24   ar
    78    26    27    1
    79    28    27    1
    80    27    30    1
    81    32    34   ar
    82    32    31   ar
    83    30    31    1
    84    34    35   ar
    85    31    33   ar
    86    35    33   ar
