@<TRIPOS>MOLECULE
tmp/3mqhE00.pdb
 111 102 0 0 0
SMALL
GASTEIGER

@<TRIPOS>ATOM
      1  N         32.1270   25.1880   12.5010 N.3    61  GLN61      -0.1245
      2  CA        31.0390   25.5080   13.3810 C.3    61  GLN61       0.1566
      3  C         30.6100   24.2930   14.2110 C.2    61  GLN61       0.2260
      4  O         31.1400   23.2000   14.0800 O.2    61  GLN61      -0.2867
      5  CB        29.8580   26.1160   12.5700 C.3    61  GLN61       0.0367
      6  CG        30.2360   27.3490   11.7420 C.3    61  GLN61       0.0905
      7  CD        31.0900   28.3570   12.5150 C.2    61  GLN61       0.2608
      8  OE1       30.7280   28.7680   13.6330 O.2    61  GLN61      -0.2717
      9  NE2       32.2060   28.7530   11.9190 N.am   61  GLN61      -0.0878
     10  N         35.6150   26.7020    5.1890 N.3    77  PHE77      -0.1241
     11  CA        34.5500   26.9980    6.1420 C.3    77  PHE77       0.1605
     12  C         33.5900   25.8160    6.2280 C.2    77  PHE77       0.2264
     13  O         33.0570   25.4080    5.1870 O.2    77  PHE77      -0.2867
     14  CB        33.7840   28.2480    5.6970 C.3    77  PHE77       0.0534
     15  CG        32.7750   28.7240    6.7230 C.ar   77  PHE77      -0.0203
     16  CD1       33.1090   29.7130    7.6430 C.ar   77  PHE77      -0.0042
     17  CD2       31.4830   28.1740    6.7560 C.ar   77  PHE77      -0.0042
     18  CE1       32.1850   30.1430    8.5940 C.ar   77  PHE77      -0.0003
     19  CE2       30.5590   28.5930    7.6950 C.ar   77  PHE77      -0.0003
     20  CZ        30.9050   29.5760    8.6240 C.ar   77  PHE77      -0.0000
     21  N         27.4660   25.0920   10.3350 N.3    80  PRO80      -0.2116
     22  CA        26.9290   24.3710   11.4940 C.3    80  PRO80       0.1372
     23  C         26.3510   23.0490   11.0800 C.2    80  PRO80       0.2244
     24  O         25.5310   23.0030   10.1440 O.2    80  PRO80      -0.2868
     25  CB        25.8650   25.3190   12.0520 C.3    80  PRO80       0.0268
     26  CG        25.5480   26.2360   10.9270 C.3    80  PRO80       0.0207
     27  CD        26.8160   26.3920   10.1120 C.3    80  PRO80       0.0892
     28  N         33.5560   26.6180    0.8620 N.3   110  THR110     -0.1218
     29  CA        32.5590   26.8180    1.9030 C.3   110  THR110      0.1862
     30  C         31.5570   25.6820    1.8250 C.2   110  THR110      0.2287
     31  O         31.0360   25.4030    0.7450 O.2   110  THR110     -0.2866
     32  CB        31.8200   28.1350    1.6970 C.3   110  THR110      0.1770
     33  OG1       32.7500   29.1870    1.9850 O.3   110  THR110     -0.2211
     34  CG2       30.6340   28.2690    2.6480 C.3   110  THR110      0.0375
     35  N         28.1390   24.6360    3.3290 N.3   112  GLY112     -0.1210
     36  CA        27.0010   25.2280    4.0060 C.3   112  GLY112      0.1956
     37  C         26.4460   24.4190    5.1610 C.2   112  GLY112      0.2611
     38  O         26.6490   23.2030    5.3010 O.2   112  GLY112     -0.2717
     39  N         25.7310   25.1650    5.9990 N.am  113  ALA113     -0.1979
     40  CA        25.0910   24.5690    7.1670 C.3   113  ALA113      0.1597
     41  C         24.3330   23.3070    6.7580 C.2   113  ALA113      0.2287
     42  O         23.5500   23.2920    5.7980 O.2   113  ALA113     -0.2864
     43  CB        24.0970   25.5690    7.7920 C.3   113  ALA113      0.0319
     44  N         31.2550   26.5310   -3.3310 N.3   128  PHE128     -0.1241
     45  CA        30.2830   26.9370   -2.3190 C.3   128  PHE128      0.1605
     46  C         29.1610   25.9070   -2.3800 C.2   128  PHE128      0.2264
     47  O         28.4330   25.7920   -3.3700 O.2   128  PHE128     -0.2867
     48  CB        29.7780   28.3530   -2.6000 C.3   128  PHE128      0.0534
     49  CG        29.0250   28.9540   -1.4420 C.ar  128  PHE128     -0.0203
     50  CD1       29.5980   29.9650   -0.6800 C.ar  128  PHE128     -0.0042
     51  CD2       27.7910   28.4450   -1.0850 C.ar  128  PHE128     -0.0042
     52  CE1       28.9320   30.5080    0.4020 C.ar  128  PHE128     -0.0003
     53  CE2       27.1180   28.9790    0.0330 C.ar  128  PHE128     -0.0003
     54  CZ        27.6990   30.0070    0.7610 C.ar  128  PHE128     -0.0000
     55  N         25.7200   24.8930   -1.0070 N.3   130  GLY130     -0.1210
     56  CA        24.6370   25.5560   -0.3030 C.3   130  GLY130      0.1956
     57  C         24.1500   24.7580    0.8960 C.2   130  GLY130      0.2612
     58  O         24.3440   23.5580    0.9970 O.2   130  GLY130     -0.2717
     59  N         23.5030   25.4810    1.8080 N.am  131  ALA131     -0.1965
     60  CA        22.9660   24.8450    3.0120 C.3   131  ALA131      0.1728
     61  C         22.1140   23.6440    2.6360 C.2   131  ALA131      0.2616
     62  O         21.2620   23.7280    1.7400 O.2   131  ALA131     -0.2715
     63  CB        22.0960   25.8400    3.8020 C.3   131  ALA131      0.0334
     64  N         22.3360   22.5420    3.3480 N.am  132  GLY132     -0.1955
     65  CA        21.4910   21.3610    3.1780 C.3   132  GLY132      0.1869
     66  C         21.8070   20.5410    1.9560 C.2   132  GLY132      0.2309
     67  O         21.1260   19.5090    1.7940 O.2   132  GLY132     -0.2863
     68  N         29.0640   26.8350   -7.4400 N.3   144  LEU144     -0.1245
     69  CA        27.9530   26.9400   -6.4880 C.3   144  LEU144      0.1561
     70  C         27.0440   25.7620   -6.7580 C.2   144  LEU144      0.2260
     71  O         26.4700   25.6520   -7.8640 O.2   144  LEU144     -0.2867
     72  CB        27.1790   28.2530   -6.6510 C.3   144  LEU144      0.0270
     73  CG        25.9060   28.3430   -5.8050 C.3   144  LEU144      0.0019
     74  CD1       26.2000   28.3140   -4.3460 C.3   144  LEU144      0.0001
     75  CD2       25.2760   29.6920   -6.1930 C.3   144  LEU144      0.0001
     76  N         23.7730   23.2260   -5.1610 N.3   146  VAL146     -0.1231
     77  CA        22.6850   23.1280   -4.2100 C.3   146  VAL146      0.1692
     78  C         21.8540   21.8890   -4.4930 C.2   146  VAL146      0.2592
     79  O         21.8910   21.3770   -5.6060 O.2   146  VAL146     -0.2718
     80  CB        21.7390   24.3710   -4.2390 C.3   146  VAL146      0.0266
     81  CG1       22.4840   25.6540   -3.9320 C.3   146  VAL146      0.0020
     82  CG2       20.9360   24.5180   -5.5560 C.3   146  VAL146      0.0020
     83  N         21.1430   21.4070   -3.4700 N.am  147  GLY147     -0.1957
     84  CA        20.1480   20.3460   -3.6980 C.3   147  GLY147      0.1869
     85  C         20.5700   18.9830   -3.1780 C.2   147  GLY147      0.2309
     86  O         21.7140   18.7330   -2.7460 O.2   147  GLY147     -0.2863
     87  N         24.5190   25.3410   -9.9700 N.3   153  ILE153     -0.1245
     88  CA        23.6230   26.3880  -10.4530 C.3   153  ILE153      0.1561
     89  C         24.3550   27.6750  -10.8070 C.2   153  ILE153      0.2260
     90  O         23.7640   28.5760  -11.3930 O.2   153  ILE153     -0.2867
     91  CB        22.4890   26.6940   -9.4610 C.3   153  ILE153      0.0252
     92  CG1       23.0410   27.0980   -8.1000 C.3   153  ILE153      0.0019
     93  CG2       21.5940   25.4520   -9.3130 C.3   153  ILE153      0.0019
     94  CD1       22.0700   27.9460   -7.2240 C.3   153  ILE153      0.0001
     95  N         30.8040   31.0610   -7.8950 N.3   156  MET156     -0.1245
     96  CA        31.0040   31.9970   -6.8040 C.3   156  MET156      0.1570
     97  C         32.4220   32.5350   -6.8120 C.2   156  MET156      0.2261
     98  O         33.3880   31.7780   -6.9440 O.2   156  MET156     -0.2867
     99  CB        30.7530   31.1950   -5.5340 C.3   156  MET156      0.0387
    100  CG        29.2920   31.1180   -5.1240 C.3   156  MET156      0.0595
    101  SD        28.6410   32.6840   -4.4850 S.3   156  MET156     -0.1393
    102  CE        27.4210   32.1420   -3.2810 C.3   156  MET156      0.0692
    103  N         27.8230   35.4300   -6.4360 N.3   162  GLN162     -0.1245
    104  CA        27.8320   34.8310   -7.7560 C.3   162  GLN162      0.1566
    105  C         28.4750   35.7370   -8.8110 C.2   162  GLN162      0.2260
    106  O         28.3050   36.9590   -8.8080 O.2   162  GLN162     -0.2867
    107  CB        26.4110   34.4920   -8.2410 C.3   162  GLN162      0.0367
    108  CG        25.8760   33.1910   -7.6100 C.3   162  GLN162      0.0905
    109  CD        24.6910   32.6460   -8.3750 C.2   162  GLN162      0.2608
    110  OE1       24.7890   32.3650   -9.5800 O.2   162  GLN162     -0.2717
    111  NE2       23.5720   32.5030   -7.6840 N.am  162  GLN162     -0.0878
@<TRIPOS>BOND
     1    90    89    2
     2    89    88    1
     3    88    87    1
     4    88    91    1
     5   110   109    2
     6    91    93    1
     7    91    92    1
     8   105   106    2
     9   105   104    1
    10   109   111   am
    11   109   108    1
    12   107   104    1
    13   107   108    1
    14    92    94    1
    15    95    96    1
    16    71    70    2
    17   104   103    1
    18    68    69    1
    19    98    97    2
    20    97    96    1
    21    96    99    1
    22    70    69    1
    23    72    69    1
    24    72    73    1
    25    75    73    1
    26    73    74    1
    27    79    78    2
    28    82    80    1
    29    99   100    1
    30    76    77    1
    31   100   101    1
    32    78    77    1
    33    78    83   am
    34   101   102    1
    35    80    77    1
    36    80    81    1
    37    84    83    1
    38    84    85    1
    39    47    46    2
    40    44    45    1
    41    85    86    2
    42    48    45    1
    43    48    49    1
    44    46    45    1
    45    49    51   ar
    46    49    50   ar
    47    51    53   ar
    48    55    56    1
    49    50    52   ar
    50    56    57    1
    51    53    54   ar
    52    52    54   ar
    53    31    30    2
    54    28    29    1
    55    57    58    2
    56    57    59   am
    57    32    29    1
    58    32    33    1
    59    32    34    1
    60    62    61    2
    61    67    66    2
    62    59    60    1
    63    30    29    1
    64    66    65    1
    65    61    60    1
    66    61    64   am
    67    60    63    1
    68    65    64    1
    69    35    36    1
    70    36    37    1
    71    37    38    2
    72    37    39   am
    73    13    12    2
    74    10    11    1
    75    14    11    1
    76    14    15    1
    77    42    41    2
    78    39    40    1
    79    11    12    1
    80    15    17   ar
    81    15    16   ar
    82    17    19   ar
    83    41    40    1
    84    40    43    1
    85    16    18   ar
    86    19    20   ar
    87    18    20   ar
    88    27    21    1
    89    27    26    1
    90    24    23    2
    91    21    22    1
    92    26    25    1
    93    23    22    1
    94    22    25    1
    95     6     7    1
    96     6     5    1
    97     9     7   am
    98     1     2    1
    99     7     8    2
   100     5     2    1
   101     2     3    1
   102     4     3    2
