@<TRIPOS>MOLECULE
tmp/3mqhE01.pdb
 106 104 0 0 0
SMALL
GASTEIGER

@<TRIPOS>ATOM
      1  N         41.4360   28.1790   18.2840 N.3    23  ARG23      -0.1245
      2  CA        40.5210   28.2300   19.4300 C.3    23  ARG23       0.1563
      3  C         39.6700   26.9660   19.3800 C.2    23  ARG23       0.2260
      4  O         39.0150   26.6860   18.3540 O.2    23  ARG23      -0.2867
      5  CB        39.5940   29.4490   19.3030 C.3    23  ARG23       0.0307
      6  CG        40.4140   30.7410   19.2010 C.3    23  ARG23       0.0489
      7  CD        39.5720   31.9550   18.7410 C.3    23  ARG23       0.2205
      8  NE        39.1280   32.0450   17.3410 N.pl3  23  ARG23      -0.0865
      9  CZ        39.9020   32.1540   16.2610 C.cat  23  ARG23       0.5346
     10  NH1       41.2250   32.1840   16.3610 N.pl3  23  ARG23       0.1354
     11  NH2       39.3580   32.2360   15.0490 N.pl3  23  ARG23       0.1354
     12  N         36.6130   24.9900   21.3440 N.3    25  TRP25      -0.1227
     13  CA        35.5240   25.3730   22.2390 C.3    25  TRP25       0.1737
     14  C         34.9360   24.1730   22.9910 C.2    25  TRP25       0.2595
     15  O         35.5690   23.1060   23.1390 O.2    25  TRP25      -0.2718
     16  CB        34.4910   26.1600   21.4100 C.3    25  TRP25       0.0564
     17  CG        35.0060   27.5150   21.0700 C.ar   25  TRP25       0.0003
     18  CD1       35.5400   27.9030   19.8880 C.ar   25  TRP25       0.0946
     19  CD2       35.0250   28.6780   21.9270 C.ar   25  TRP25       0.0152
     20  NE1       35.9040   29.2250   19.9400 N.ar   25  TRP25      -0.2442
     21  CE2       35.5960   29.7280   21.1790 C.ar   25  TRP25       0.0810
     22  CE3       34.6160   28.9200   23.2430 C.ar   25  TRP25       0.0012
     23  CZ2       35.7700   31.0250   21.6930 C.ar   25  TRP25       0.0191
     24  CZ3       34.7840   30.2060   23.7600 C.ar   25  TRP25       0.0001
     25  CH2       35.3500   31.2230   22.9900 C.ar   25  TRP25       0.0015
     26  N         33.7270   24.3560   23.5180 N.am   26  HIS26      -0.1975
     27  CA        33.2160   23.4700   24.5640 C.3    26  HIS26       0.1656
     28  C         33.0110   22.0300   24.1120 C.2    26  HIS26       0.2291
     29  O         32.4040   21.8130   23.0370 O.2    26  HIS26      -0.2864
     30  CB        31.8850   23.9520   25.1300 C.3    26  HIS26       0.0771
     31  CG        31.8810   25.3640   25.6170 C.ar   26  HIS26       0.0820
     32  ND1       32.0810   26.4630   24.8130 N.ar   26  HIS26      -0.2267
     33  CD2       31.6840   25.8400   26.8700 C.ar   26  HIS26       0.1154
     34  CE1       32.0130   27.5620   25.5490 C.ar   26  HIS26       0.1986
     35  NE2       31.7700   27.2070   26.7980 N.ar   26  HIS26      -0.2212
     36  N         39.2120   27.6290   14.1520 N.3    41  SER41      -0.1217
     37  CA        38.1990   27.6840   15.1960 C.3    41  SER41       0.1889
     38  C         37.3700   26.4060   15.1260 C.2    41  SER41       0.2288
     39  O         36.9160   26.0680   14.0140 O.2    41  SER41      -0.2866
     40  CB        37.2950   28.9020   15.0060 C.3    41  SER41       0.2089
     41  OG        36.3450   28.9100   16.0370 O.3    41  SER41      -0.2183
     42  N         34.0400   24.7060   16.8740 N.3    43  GLY43      -0.1210
     43  CA        32.9310   25.0130   17.7770 C.3    43  GLY43       0.1956
     44  C         32.5030   23.8710   18.6580 C.2    43  GLY43       0.2611
     45  O         33.1120   22.8110   18.7000 O.2    43  GLY43      -0.2717
     46  N         31.4330   24.1020   19.3960 N.am   44  GLN44      -0.1979
     47  CA        30.9110   23.1860   20.3850 C.3    44  GLN44       0.1601
     48  C         30.7140   21.7950   19.7950 C.2    44  GLN44       0.2287
     49  O         30.1330   21.6350   18.7140 O.2    44  GLN44      -0.2864
     50  CB        29.5720   23.7420   20.9120 C.3    44  GLN44       0.0394
     51  CG        28.9530   22.8580   22.0220 C.3    44  GLN44       0.0908
     52  CD        27.7840   23.5320   22.6910 C.2    44  GLN44       0.2608
     53  OE1       27.9110   24.6720   23.1350 O.2    44  GLN44      -0.2717
     54  NE2       26.6290   22.8720   22.7380 N.am   44  GLN44      -0.0878
     55  N         37.5300   27.4460    9.7120 N.3    59  LYS59      -0.1231
     56  CA        36.4970   27.7120   10.7200 C.3    59  LYS59       0.1693
     57  C         35.4390   26.6310   10.6720 C.2    59  LYS59       0.2592
     58  O         34.7640   26.4710    9.6420 O.2    59  LYS59      -0.2718
     59  CB        35.8850   29.1140   10.4920 C.3    59  LYS59       0.0285
     60  CG        36.9270   30.2400   10.6800 C.3    59  LYS59       0.0035
     61  CD        36.3100   31.6170   10.5050 C.3    59  LYS59       0.0206
     62  CE        37.4400   32.6840   10.4900 C.3    59  LYS59       0.1093
     63  NZ        36.8110   34.0160   10.1720 N.3    59  LYS59      -0.1314
     64  N         35.3100   25.9000   11.7700 N.am   60  ILE60      -0.1966
     65  CA        34.4250   24.7460   11.8510 C.3    60  ILE60       0.1727
     66  C         33.3880   25.0960   12.9110 C.2    60  ILE60       0.2616
     67  O         33.6990   25.3090   14.0830 O.2    60  ILE60      -0.2715
     68  CB        35.2100   23.4750   12.2390 C.3    60  ILE60       0.0290
     69  CG1       36.2800   23.2080   11.1830 C.3    60  ILE60       0.0022
     70  CG2       34.2260   22.2900   12.3340 C.3    60  ILE60       0.0023
     71  CD1       37.2110   22.0540   11.4990 C.3    60  ILE60       0.0001
     72  N         32.1270   25.1880   12.5010 N.am   61  GLN61      -0.1963
     73  CA        31.0390   25.5080   13.3810 C.3    61  GLN61       0.1733
     74  C         30.6100   24.2930   14.2110 C.2    61  GLN61       0.2616
     75  O         31.1400   23.2000   14.0800 O.2    61  GLN61      -0.2715
     76  CB        29.8580   26.1160   12.5700 C.3    61  GLN61       0.0408
     77  CG        30.2360   27.3490   11.7420 C.3    61  GLN61       0.0908
     78  CD        31.0900   28.3570   12.5150 C.2    61  GLN61       0.2608
     79  OE1       30.7280   28.7680   13.6330 O.2    61  GLN61      -0.2717
     80  NE2       32.2060   28.7530   11.9190 N.am   61  GLN61      -0.0878
     81  N         29.6540   24.5060   15.1130 N.am   62  ASN62      -0.1972
     82  CA        29.2120   23.4550   16.0570 C.3    62  ASN62       0.1688
     83  C         28.8070   22.1720   15.3310 C.2    62  ASN62       0.2292
     84  O         28.2700   22.2640   14.1990 O.2    62  ASN62      -0.2864
     85  CB        27.9830   23.9360   16.8400 C.3    62  ASN62       0.1181
     86  CG        28.2570   25.1130   17.7790 C.2    62  ASN62       0.2629
     87  OD1       29.3870   25.5980   17.9480 O.2    62  ASN62      -0.2716
     88  ND2       27.1660   25.6070   18.3800 N.am   62  ASN62      -0.0877
     89  N         35.6150   26.7020    5.1890 N.3    77  PHE77      -0.1241
     90  CA        34.5500   26.9980    6.1420 C.3    77  PHE77       0.1605
     91  C         33.5900   25.8160    6.2280 C.2    77  PHE77       0.2264
     92  O         33.0570   25.4080    5.1870 O.2    77  PHE77      -0.2867
     93  CB        33.7840   28.2480    5.6970 C.3    77  PHE77       0.0534
     94  CG        32.7750   28.7240    6.7230 C.ar   77  PHE77      -0.0203
     95  CD1       33.1090   29.7130    7.6430 C.ar   77  PHE77      -0.0042
     96  CD2       31.4830   28.1740    6.7560 C.ar   77  PHE77      -0.0042
     97  CE1       32.1850   30.1430    8.5940 C.ar   77  PHE77      -0.0003
     98  CE2       30.5590   28.5930    7.6950 C.ar   77  PHE77      -0.0003
     99  CZ        30.9050   29.5760    8.6240 C.ar   77  PHE77      -0.0000
    100  N         27.4660   25.0920   10.3350 N.3    80  PRO80      -0.2116
    101  CA        26.9290   24.3710   11.4940 C.3    80  PRO80       0.1372
    102  C         26.3510   23.0490   11.0800 C.2    80  PRO80       0.2244
    103  O         25.5310   23.0030   10.1440 O.2    80  PRO80      -0.2868
    104  CB        25.8650   25.3190   12.0520 C.3    80  PRO80       0.0268
    105  CG        25.5480   26.2360   10.9270 C.3    80  PRO80       0.0207
    106  CD        26.8160   26.3920   10.1120 C.3    80  PRO80       0.0892
@<TRIPOS>BOND
     1    92    91    2
     2    89    90    1
     3    93    90    1
     4    93    94    1
     5    90    91    1
     6    94    96   ar
     7    94    95   ar
     8    96    98   ar
     9    95    97   ar
    10    98    99   ar
    11    97    99   ar
    12    58    57    2
    13    55    56    1
    14   106   100    1
    15   106   105    1
    16   103   102    2
    17    63    62    1
    18   100   101    1
    19    62    61    1
    20    59    60    1
    21    59    56    1
    22    61    60    1
    23    57    56    1
    24    57    64   am
    25   105   104    1
    26   102   101    1
    27    69    71    1
    28    69    68    1
    29   101   104    1
    30    77    78    1
    31    77    76    1
    32    64    65    1
    33    65    68    1
    34    65    66    1
    35    80    78   am
    36    68    70    1
    37    72    66   am
    38    72    73    1
    39    78    79    2
    40    76    73    1
    41    66    67    2
    42    73    74    1
    43    39    38    2
    44    75    74    2
    45    36    37    1
    46    84    83    2
    47    74    81   am
    48    40    37    1
    49    40    41    1
    50    11     9    1
    51    81    82    1
    52    38    37    1
    53    83    82    1
    54    82    85    1
    55     9    10    1
    56     9     8    2
    57    85    86    1
    58    42    43    1
    59     8     7    1
    60    43    44    1
    61    86    87    2
    62    86    88   am
    63     1     2    1
    64     4     3    2
    65    44    45    2
    66    44    46   am
    67    49    48    2
    68     7     6    1
    69     6     5    1
    70     5     2    1
    71     3     2    1
    72    46    47    1
    73    48    47    1
    74    18    20   ar
    75    18    17   ar
    76    20    21   ar
    77    47    50    1
    78    50    51    1
    79    17    16    1
    80    17    19   ar
    81    21    23   ar
    82    21    19   ar
    83    12    13    1
    84    16    13    1
    85    23    25   ar
    86    19    22   ar
    87    51    52    1
    88    13    14    1
    89    52    54   am
    90    52    53    2
    91    25    24   ar
    92    14    15    2
    93    14    26   am
    94    29    28    2
    95    22    24   ar
    96    26    27    1
    97    28    27    1
    98    27    30    1
    99    32    34   ar
   100    32    31   ar
   101    30    31    1
   102    34    35   ar
   103    31    33   ar
   104    35    33   ar
