@<TRIPOS>MOLECULE
tmp/3mqhE03.pdb
 157 152 0 0 0
SMALL
GASTEIGER

@<TRIPOS>ATOM
      1  N         43.5350   14.7310   22.7890 N.3    13  ASP13      -0.1239
      2  CA        44.2940   13.5410   23.1680 C.3    13  ASP13       0.1674
      3  C         45.7700   13.8000   22.8650 C.2    13  ASP13       0.2266
      4  O         46.1350   14.5120   21.9440 O.2    13  ASP13      -0.2867
      5  CB        43.7980   12.3410   22.3640 C.3    13  ASP13       0.1410
      6  CG        42.4080   11.8990   22.7730 C.2    13  ASP13       0.3668
      7  OD1       41.9230   12.2430   23.8840 O.co2  13  ASP13      -0.2456
      8  OD2       41.8520   11.1520   21.9420 O.co2  13  ASP13      -0.2456
      9  N         36.2250   16.9720   21.0750 N.3    29  HIS29      -0.1241
     10  CA        37.1850   15.8960   21.2710 C.3    29  HIS29       0.1621
     11  C         38.0500   15.7670   20.0250 C.2    29  HIS29       0.2264
     12  O         37.5160   15.5760   18.9160 O.2    29  HIS29      -0.2867
     13  CB        36.5180   14.5670   21.6290 C.3    29  HIS29       0.0745
     14  CG        37.4830   13.4220   21.6270 C.ar   29  HIS29       0.0817
     15  ND1       37.1920   12.1540   21.1680 N.ar   29  HIS29      -0.2268
     16  CD2       38.7690   13.3870   22.0660 C.ar   29  HIS29       0.1154
     17  CE1       38.2700   11.3900   21.2890 C.ar   29  HIS29       0.1986
     18  NE2       39.2320   12.1090   21.8460 N.ar   29  HIS29      -0.2212
     19  N         41.3320   13.7010   18.3820 N.3    31  CYS31      -0.1235
     20  CA        42.1630   12.5000   18.5460 C.3    31  CYS31       0.1677
     21  C         43.6380   12.8040   18.3320 C.2    31  CYS31       0.2270
     22  O         44.0340   13.8090   17.7230 O.2    31  CYS31      -0.2867
     23  CB        41.6650   11.3900   17.6230 C.3    31  CYS31       0.0956
     24  SG        40.0220   10.7180   18.0690 S.3    31  CYS31      -0.0801
     25  N         34.1560   16.9960   16.5900 N.3    47  PHE47      -0.1241
     26  CA        34.9700   15.7870   16.7830 C.3    47  PHE47       0.1605
     27  C         35.9860   15.7810   15.6750 C.2    47  PHE47       0.2264
     28  O         35.6730   16.1610   14.5260 O.2    47  PHE47      -0.2867
     29  CB        34.1180   14.5150   16.6430 C.3    47  PHE47       0.0534
     30  CG        34.9750   13.2940   16.5610 C.ar   47  PHE47      -0.0203
     31  CD1       35.5790   12.7880   17.7040 C.ar   47  PHE47      -0.0042
     32  CD2       35.2050   12.6850   15.3350 C.ar   47  PHE47      -0.0042
     33  CE1       36.4010   11.6700   17.6170 C.ar   47  PHE47      -0.0003
     34  CE2       36.0150   11.5690   15.2100 C.ar   47  PHE47      -0.0003
     35  CZ        36.6210   11.0800   16.3590 C.ar   47  PHE47      -0.0000
     36  N         41.7910   10.7290   13.9470 N.3    50  ASN50      -0.1240
     37  CA        43.2530   10.6460   13.8030 C.3    50  ASN50       0.1653
     38  C         43.8140   10.9630   12.4320 C.2    50  ASN50       0.2266
     39  O         44.7880   11.7090   12.3570 O.2    50  ASN50      -0.2867
     40  CB        43.7250    9.2390   14.1840 C.3    50  ASN50       0.1155
     41  CG        43.5230    8.9830   15.6680 C.2    50  ASN50       0.2627
     42  OD1       44.1600    9.6290   16.5040 O.2    50  ASN50      -0.2716
     43  ND2       42.6330    8.0590   16.0040 N.am   50  ASN50      -0.0877
     44  N         35.9780   13.2610   10.2820 N.3    67  TYR67      -0.1227
     45  CA        36.4250   11.8880   10.4000 C.3    67  TYR67       0.1736
     46  C         37.7270   11.5890    9.6770 C.2    67  TYR67       0.2595
     47  O         38.2030   12.3390    8.8090 O.2    67  TYR67      -0.2718
     48  CB        35.2990   11.0030    9.8310 C.3    67  TYR67       0.0548
     49  CG        34.0590   10.9910   10.6940 C.ar   67  TYR67      -0.0200
     50  CD1       34.1540   10.6410   12.0130 C.ar   67  TYR67      -0.0009
     51  CD2       32.8140   11.3510   10.1820 C.ar   67  TYR67      -0.0009
     52  CE1       33.0410   10.5980   12.8260 C.ar   67  TYR67       0.0417
     53  CE2       31.6860   11.3090   10.9900 C.ar   67  TYR67       0.0417
     54  CZ        31.8040   10.9590   12.3330 C.ar   67  TYR67       0.1957
     55  OH        30.6640   10.8970   13.1040 O.3    67  TYR67      -0.2866
     56  N         38.2810   10.4430   10.0570 N.am   68  ASP68      -0.1974
     57  CA        39.4480    9.9030    9.3370 C.3    68  ASP68       0.1709
     58  C         39.2150   10.0010    7.8340 C.2    68  ASP68       0.2293
     59  O         38.1440    9.6480    7.3460 O.2    68  ASP68      -0.2864
     60  CB        39.7070    8.4190    9.6610 C.3    68  ASP68       0.1436
     61  CG        40.3200    8.1970   11.0350 C.2    68  ASP68       0.3671
     62  OD1       40.6540    9.1770   11.7460 O.co2  68  ASP68      -0.2456
     63  OD2       40.4520    7.0140   11.3970 O.co2  68  ASP68      -0.2456
     64  N         31.7220   12.0520    5.7680 N.3    85  THR85      -0.1203
     65  CA        31.6470   10.6020    5.8170 C.3    85  THR85       0.1994
     66  C         32.9990    9.9880    5.4600 C.2    85  THR85       0.2618
     67  O         33.8450   10.7280    4.9420 O.2    85  THR85      -0.2717
     68  CB        30.5440   10.0900    4.8700 C.3    85  THR85       0.1784
     69  OG1       30.8060   10.4440    3.4940 O.3    85  THR85      -0.2211
     70  CG2       29.1960   10.6210    5.2910 C.3    85  THR85       0.0376
     71  N         33.1790    8.7060    5.7490 N.am   86  ASN86      -0.1960
     72  CA        34.3640    8.0200    5.2290 C.3    86  ASN86       0.1819
     73  C         34.0850    6.6260    4.6870 C.2    86  ASN86       0.2621
     74  O         34.9970    6.0710    4.0580 O.2    86  ASN86      -0.2715
     75  CB        35.5900    8.0410    6.1800 C.3    86  ASN86       0.1195
     76  CG        35.2860    7.4530    7.5560 C.2    86  ASN86       0.2630
     77  OD1       34.3550    6.6620    7.7220 O.2    86  ASN86      -0.2716
     78  ND2       36.0850    7.7980    8.5630 N.am   86  ASN86      -0.0877
     79  N         32.9100    6.0560    4.9300 N.am   87  VAL87      -0.1977
     80  CA        32.5880    4.7860    4.2770 C.3    87  VAL87       0.1596
     81  C         31.4020    5.0310    3.3500 C.2    87  VAL87       0.2287
     82  O         30.3700    5.5860    3.7300 O.2    87  VAL87      -0.2864
     83  CB        32.3010    3.6400    5.2520 C.3    87  VAL87       0.0276
     84  CG1       31.7340    2.3940    4.5380 C.3    87  VAL87       0.0022
     85  CG2       33.5860    3.2410    5.9600 C.3    87  VAL87       0.0022
     86  N         28.1920    1.7680    4.2060 N.3    90  PRO90      -0.2102
     87  CA        28.3700    1.1020    5.4730 C.3    90  PRO90       0.1504
     88  C         27.3300    0.0220    5.7420 C.2    90  PRO90       0.2576
     89  O         26.1530    0.1410    5.3650 O.2    90  PRO90      -0.2718
     90  CB        28.2660    2.2540    6.4860 C.3    90  PRO90       0.0282
     91  CG        27.4750    3.3580    5.6980 C.3    90  PRO90       0.0208
     92  CD        27.9040    3.2170    4.2760 C.3    90  PRO90       0.0893
     93  N         27.8060   -1.0270    6.4130 N.am   91  ARG91      -0.1966
     94  CA        26.9600   -2.1240    6.9190 C.3    91  ARG91       0.1729
     95  C         27.5620   -2.4550    8.2770 C.2    91  ARG91       0.2616
     96  O         28.7780   -2.7300    8.3610 O.2    91  ARG91      -0.2715
     97  CB        27.0130   -3.3780    6.0140 C.3    91  ARG91       0.0348
     98  CG        26.2180   -3.2980    4.6770 C.3    91  ARG91       0.0492
     99  CD        24.7330   -3.1710    5.0270 C.3    91  ARG91       0.2205
    100  NE        24.0070   -3.5440    3.8040 N.pl3  91  ARG91      -0.0865
    101  CZ        22.7730   -3.1310    3.5790 C.cat  91  ARG91       0.5346
    102  NH1       22.1490   -2.2640    4.3760 N.pl3  91  ARG91       0.1354
    103  NH2       22.1410   -3.5350    2.4840 N.pl3  91  ARG91       0.1354
    104  N         26.7590   -2.4420    9.3270 N.am   92  ALA92      -0.1977
    105  CA        27.3000   -2.6420   10.6990 C.3    92  ALA92       0.1597
    106  C         27.9850   -4.0040   10.7930 C.2    92  ALA92       0.2287
    107  O         28.9290   -4.1670   11.5760 O.2    92  ALA92      -0.2864
    108  CB        26.1900   -2.5270   11.7140 C.3    92  ALA92       0.0319
    109  N         29.8390   -5.4730    8.6880 N.3    94  ILE94      -0.1231
    110  CA        31.0600   -5.6000    7.8850 C.3    94  ILE94       0.1692
    111  C         31.9650   -4.4110    8.2720 C.2    94  ILE94       0.2592
    112  O         31.7470   -3.2760    7.8560 O.2    94  ILE94      -0.2718
    113  CB        30.8100   -5.5830    6.3720 C.3    94  ILE94       0.0266
    114  CG1       29.8710   -6.7530    6.0270 C.3    94  ILE94       0.0019
    115  CG2       32.1430   -5.7580    5.6710 C.3    94  ILE94       0.0020
    116  CD1       29.3280   -6.7040    4.6110 C.3    94  ILE94       0.0001
    117  N         33.0060   -4.6140    9.0840 N.am   95  GLU95      -0.1966
    118  CA        33.9260   -3.5270    9.4030 C.3    95  GLU95       0.1733
    119  C         34.6200   -3.0010    8.1720 C.2    95  GLU95       0.2616
    120  O         35.3010   -3.7620    7.5050 O.2    95  GLU95      -0.2715
    121  CB        35.0400   -4.0040   10.3420 C.3    95  GLU95       0.0429
    122  CG        34.6330   -4.2850   11.7540 C.3    95  GLU95       0.1163
    123  CD        35.8610   -4.3270   12.6410 C.2    95  GLU95       0.3649
    124  OE1       35.7110   -4.1160   13.8590 O.co2  95  GLU95      -0.2457
    125  OE2       36.9720   -4.5520   12.1100 O.co2  95  GLU95      -0.2457
    126  N         34.4920   -1.7110    7.8620 N.am   96  ARG96      -0.1963
    127  CA        35.0320   -1.1660    6.6200 C.3    96  ARG96       0.1729
    128  C         36.0910   -0.0960    6.8730 C.2    96  ARG96       0.2616
    129  O         36.3760    0.7330    6.0320 O.2    96  ARG96      -0.2715
    130  CB        33.9040   -0.7030    5.6930 C.3    96  ARG96       0.0348
    131  CG        33.3020   -1.8540    4.8880 C.3    96  ARG96       0.0492
    132  CD        32.2520   -1.3790    3.8590 C.3    96  ARG96       0.2205
    133  NE        32.0500   -2.5170    2.9620 N.pl3  96  ARG96      -0.0865
    134  CZ        30.9130   -3.1740    2.7690 C.cat  96  ARG96       0.5346
    135  NH1       29.7980   -2.7330    3.3040 N.pl3  96  ARG96       0.1354
    136  NH2       30.9130   -4.2240    1.9420 N.pl3  96  ARG96       0.1354
    137  N         36.7050   -0.2030    8.0540 N.am   97  LYS97      -0.1977
    138  CA        37.7760    0.7140    8.4720 C.3    97  LYS97       0.1596
    139  C         38.9490    0.6760    7.4880 C.2    97  LYS97       0.2287
    140  O         39.6540    1.6980    7.3660 O.2    97  LYS97      -0.2864
    141  CB        38.2000    0.4080    9.9220 C.3    97  LYS97       0.0298
    142  CG        37.1080    0.6410   11.0040 C.3    97  LYS97       0.0038
    143  CD        37.6150    0.3270   12.3850 C.3    97  LYS97       0.0206
    144  CE        36.5380    0.4800   13.4630 C.3    97  LYS97       0.1093
    145  NZ        37.0100   -0.0490   14.7740 N.3    97  LYS97      -0.1314
    146  N         38.0760    3.1440    3.8500 N.3   100  TYR100     -0.1241
    147  CA        37.7430    4.5640    3.8670 C.3   100  TYR100      0.1605
    148  C         38.1180    5.2490    2.5510 C.2   100  TYR100      0.2264
    149  O         39.1410    4.9690    1.9220 O.2   100  TYR100     -0.2867
    150  CB        38.4950    5.2870    4.9860 C.3   100  TYR100      0.0534
    151  CG        38.0620    4.9560    6.3880 C.ar  100  TYR100     -0.0201
    152  CD1       36.8890    4.2410    6.6470 C.ar  100  TYR100     -0.0009
    153  CD2       38.8220    5.3910    7.4700 C.ar  100  TYR100     -0.0009
    154  CE1       36.5130    3.9760    7.9430 C.ar  100  TYR100      0.0417
    155  CE2       38.4420    5.1260    8.7730 C.ar  100  TYR100      0.0417
    156  CZ        37.2680    4.4140    9.0130 C.ar  100  TYR100      0.1957
    157  OH        36.8950    4.1470   10.3020 O.3   100  TYR100     -0.2866
@<TRIPOS>BOND
     1   149   148    2
     2   136   134    1
     3   103   101    1
     4   148   147    1
     5   134   133    2
     6   134   135    1
     7   133   132    1
     8    81    82    2
     9    81    80    1
    10    69    68    1
    11   101   100    2
    12   101   102    1
    13   100    99    1
    14   146   147    1
    15   132   131    1
    16   147   150    1
    17    74    73    2
    18    86    92    1
    19    86    87    1
    20    92    91    1
    21    80    79    1
    22    80    83    1
    23    84    83    1
    24   116   114    1
    25    98    99    1
    26    98    97    1
    27    73    79   am
    28    73    72    1
    29    68    70    1
    30    68    65    1
    31   131   130    1
    32    67    66    2
    33   150   151    1
    34    72    71    1
    35    72    75    1
    36    83    85    1
    37    89    88    2
    38    66    71   am
    39    66    65    1
    40    87    88    1
    41    87    90    1
    42   115   113    1
    43   130   127    1
    44    91    90    1
    45    88    93   am
    46    64    65    1
    47    97    94    1
    48   114   113    1
    49   129   128    2
    50    75    76    1
    51   113   110    1
    52   151   152   ar
    53   151   153   ar
    54    93    94    1
    55   127   128    1
    56   127   126    1
    57   152   154   ar
    58   128   137   am
    59    94    95    1
    60    59    58    2
    61   140   139    2
    62   153   155   ar
    63   139   138    1
    64   120   119    2
    65    76    77    2
    66    76    78   am
    67    58    57    1
    68   112   111    2
    69   126   119   am
    70   110   111    1
    71   110   109    1
    72   154   156   ar
    73   137   138    1
    74   119   118    1
    75   111   117   am
    76    95    96    2
    77    95   104   am
    78   138   141    1
    79   155   156   ar
    80    47    46    2
    81   156   157    1
    82   117   118    1
    83   104   105    1
    84    57    60    1
    85    57    56    1
    86   118   121    1
    87    60    61    1
    88    46    56   am
    89    46    45    1
    90    48    45    1
    91    48    49    1
    92   141   142    1
    93    51    49   ar
    94    51    53   ar
    95    44    45    1
    96   121   122    1
    97    49    50   ar
    98   105   106    1
    99   105   108    1
   100   106   107    2
   101    53    54   ar
   102   142   143    1
   103    61    63   ar
   104    61    62   ar
   105   122   123    1
   106    50    52   ar
   107   125   123   ar
   108    54    52   ar
   109    54    55    1
   110    39    38    2
   111   143   144    1
   112    38    37    1
   113   123   124   ar
   114   144   145    1
   115    37    36    1
   116    37    40    1
   117    40    41    1
   118    28    27    2
   119    34    32   ar
   120    34    35   ar
   121    32    30   ar
   122    41    43   am
   123    41    42    2
   124    27    26    1
   125    35    33   ar
   126    30    29    1
   127    30    31   ar
   128    25    26    1
   129    29    26    1
   130    33    31   ar
   131    23    24    1
   132    23    20    1
   133    22    21    2
   134    21    20    1
   135    19    20    1
   136    12    11    2
   137    11    10    1
   138     9    10    1
   139    15    17   ar
   140    15    14   ar
   141    10    13    1
   142    17    18   ar
   143    14    13    1
   144    14    16   ar
   145    18    16   ar
   146     8     6   ar
   147     4     3    2
   148     5     6    1
   149     5     2    1
   150     6     7   ar
   151     1     2    1
   152     3     2    1
