@<TRIPOS>MOLECULE
tmp/3mqhE02.pdb
 128 126 0 0 0
SMALL
GASTEIGER

@<TRIPOS>ATOM
      1  N         35.9780   13.2610   10.2820 N.3    67  TYR67      -0.1241
      2  CA        36.4250   11.8880   10.4000 C.3    67  TYR67       0.1605
      3  C         37.7270   11.5890    9.6770 C.2    67  TYR67       0.2264
      4  O         38.2030   12.3390    8.8090 O.2    67  TYR67      -0.2867
      5  CB        35.2990   11.0030    9.8310 C.3    67  TYR67       0.0534
      6  CG        34.0590   10.9910   10.6940 C.ar   67  TYR67      -0.0201
      7  CD1       34.1540   10.6410   12.0130 C.ar   67  TYR67      -0.0009
      8  CD2       32.8140   11.3510   10.1820 C.ar   67  TYR67      -0.0009
      9  CE1       33.0410   10.5980   12.8260 C.ar   67  TYR67       0.0417
     10  CE2       31.6860   11.3090   10.9900 C.ar   67  TYR67       0.0417
     11  CZ        31.8040   10.9590   12.3330 C.ar   67  TYR67       0.1957
     12  OH        30.6640   10.8970   13.1040 O.3    67  TYR67      -0.2866
     13  N         30.5370   15.1180    7.2590 N.3    84  PHE84      -0.1227
     14  CA        31.4690   14.3470    6.4440 C.3    84  PHE84       0.1736
     15  C         31.2180   12.8590    6.7050 C.2    84  PHE84       0.2596
     16  O         30.6220   12.4600    7.7160 O.2    84  PHE84      -0.2718
     17  CB        32.9020   14.6430    6.9160 C.3    84  PHE84       0.0547
     18  CG        33.3920   16.0330    6.6230 C.ar   84  PHE84      -0.0202
     19  CD1       33.6810   16.3820    5.3020 C.ar   84  PHE84      -0.0042
     20  CD2       33.5680   16.9650    7.6330 C.ar   84  PHE84      -0.0042
     21  CE1       34.1320   17.6810    4.9990 C.ar   84  PHE84      -0.0003
     22  CE2       34.0200   18.2520    7.3270 C.ar   84  PHE84      -0.0003
     23  CZ        34.2790   18.6030    6.0020 C.ar   84  PHE84      -0.0000
     24  N         31.7220   12.0520    5.7680 N.am   85  THR85      -0.1939
     25  CA        31.6470   10.6020    5.8170 C.3    85  THR85       0.2028
     26  C         32.9990    9.9880    5.4600 C.2    85  THR85       0.2642
     27  O         33.8450   10.7280    4.9420 O.2    85  THR85      -0.2714
     28  CB        30.5440   10.0900    4.8700 C.3    85  THR85       0.1808
     29  OG1       30.8060   10.4440    3.4940 O.3    85  THR85      -0.2208
     30  CG2       29.1960   10.6210    5.2910 C.3    85  THR85       0.0379
     31  N         33.1790    8.7060    5.7490 N.am   86  ASN86      -0.1957
     32  CA        34.3640    8.0200    5.2290 C.3    86  ASN86       0.1819
     33  C         34.0850    6.6260    4.6870 C.2    86  ASN86       0.2621
     34  O         34.9970    6.0710    4.0580 O.2    86  ASN86      -0.2715
     35  CB        35.5900    8.0410    6.1800 C.3    86  ASN86       0.1195
     36  CG        35.2860    7.4530    7.5560 C.2    86  ASN86       0.2630
     37  OD1       34.3550    6.6620    7.7220 O.2    86  ASN86      -0.2716
     38  ND2       36.0850    7.7980    8.5630 N.am   86  ASN86      -0.0877
     39  N         32.9100    6.0560    4.9300 N.am   87  VAL87      -0.1963
     40  CA        32.5880    4.7860    4.2770 C.3    87  VAL87       0.1727
     41  C         31.4020    5.0310    3.3500 C.2    87  VAL87       0.2616
     42  O         30.3700    5.5860    3.7300 O.2    87  VAL87      -0.2715
     43  CB        32.3010    3.6400    5.2520 C.3    87  VAL87       0.0290
     44  CG1       31.7340    2.3940    4.5380 C.3    87  VAL87       0.0023
     45  CG2       33.5860    3.2410    5.9600 C.3    87  VAL87       0.0023
     46  N         31.5850    4.6480    2.0850 N.am   88  TYR88      -0.1960
     47  CA        30.5700    4.8540    1.0490 C.3    88  TYR88       0.1771
     48  C         29.3000    4.0520    1.2750 C.2    88  TYR88       0.2620
     49  O         28.2000    4.5940    1.0560 O.2    88  TYR88      -0.2715
     50  CB        31.2020    4.4370   -0.2630 C.3    88  TYR88       0.0574
     51  CG        30.4630    4.7870   -1.5380 C.ar   88  TYR88      -0.0198
     52  CD1       29.8470    3.7920   -2.3120 C.ar   88  TYR88      -0.0009
     53  CD2       30.4350    6.1020   -1.9840 C.ar   88  TYR88      -0.0009
     54  CE1       29.2060    4.1240   -3.5000 C.ar   88  TYR88       0.0417
     55  CE2       29.7960    6.4600   -3.1830 C.ar   88  TYR88       0.0417
     56  CZ        29.1950    5.4580   -3.9180 C.ar   88  TYR88       0.1957
     57  OH        28.5790    5.8140   -5.0960 O.3    88  TYR88      -0.2866
     58  N         29.4840    2.8080    1.7040 N.am   89  ASN89      -0.1959
     59  CA        28.3930    1.8290    1.7740 C.3    89  ASN89       0.1804
     60  C         28.3970    1.0740    3.0780 C.2    89  ASN89       0.2463
     61  O         28.6250   -0.1410    3.0740 O.2    89  ASN89      -0.2730
     62  CB        28.5020    0.8550    0.5680 C.3    89  ASN89       0.1195
     63  CG        29.8160    0.0670    0.5630 C.2    89  ASN89       0.2630
     64  OD1       30.8600    0.5720    1.0140 O.2    89  ASN89      -0.2716
     65  ND2       29.7730   -1.1370    0.0230 N.am   89  ASN89      -0.0877
     66  N         28.1920    1.7680    4.2060 N.am   90  PRO90      -0.2727
     67  CA        28.3700    1.1020    5.4730 C.3    90  PRO90       0.1402
     68  C         27.3300    0.0220    5.7420 C.2    90  PRO90       0.2269
     69  O         26.1530    0.1410    5.3650 O.2    90  PRO90      -0.2865
     70  CB        28.2660    2.2540    6.4860 C.3    90  PRO90       0.0296
     71  CG        27.4750    3.3580    5.6980 C.3    90  PRO90       0.0237
     72  CD        27.9040    3.2170    4.2760 C.3    90  PRO90       0.0939
     73  N         29.3350   12.9500    0.5330 N.3   118  VAL118     -0.1245
     74  CA        29.6270   11.5290    0.3800 C.3   118  VAL118      0.1561
     75  C         31.1290   11.3710    0.1110 C.2   118  VAL118      0.2260
     76  O         31.6920   11.9890   -0.8270 O.2   118  VAL118     -0.2867
     77  CB        28.7310   10.9160   -0.7540 C.3   118  VAL118      0.0252
     78  CG1       29.0390    9.4230   -0.8650 C.3   118  VAL118      0.0019
     79  CG2       27.2260   11.0180   -0.3750 C.3   118  VAL118      0.0019
     80  N         23.4720   17.7470   -0.6320 N.3   134  VAL134     -0.1245
     81  CA        24.1550   16.4650   -0.4440 C.3   134  VAL134      0.1561
     82  C         25.0770   16.2590   -1.6220 C.2   134  VAL134      0.2260
     83  O         24.6340   16.0590   -2.7640 O.2   134  VAL134     -0.2867
     84  CB        23.1270   15.2810   -0.3360 C.3   134  VAL134      0.0252
     85  CG1       23.8940   13.9650   -0.3620 C.3   134  VAL134      0.0019
     86  CG2       22.3290   15.4490    0.9730 C.3   134  VAL134      0.0019
     87  N         27.5730   14.3650   -3.9030 N.3   136  ASN136     -0.1225
     88  CA        27.9850   13.0100   -4.2420 C.3   136  ASN136      0.1785
     89  C         28.7800   12.9350   -5.5330 C.2   136  ASN136      0.2597
     90  O         28.8510   11.8540   -6.1440 O.2   136  ASN136     -0.2718
     91  CB        26.8180   12.0170   -4.2830 C.3   136  ASN136      0.1169
     92  CG        25.9270   12.1570   -5.4910 C.2   136  ASN136      0.2627
     93  OD1       25.3350   11.1480   -5.9500 O.2   136  ASN136     -0.2716
     94  ND2       25.7840   13.3590   -6.0070 N.am  136  ASN136     -0.0877
     95  N         29.3790   14.0560   -5.9170 N.am  137  LYS137     -0.1980
     96  CA        30.2960   14.0860   -7.0570 C.3   137  LYS137      0.1596
     97  C         31.2480   15.2450   -6.8480 C.2   137  LYS137      0.2287
     98  O         30.9930   16.1360   -6.0210 O.2   137  LYS137     -0.2864
     99  CB        29.5680   14.2410   -8.3910 C.3   137  LYS137      0.0298
    100  CG        28.8140   15.5130   -8.5380 C.3   137  LYS137      0.0038
    101  CD        28.2950   15.5920   -9.9900 C.3   137  LYS137      0.0206
    102  CE        27.9160   14.1790  -10.3410 C.3   137  LYS137      0.1093
    103  NZ        26.6750   13.7250   -9.6650 N.3   137  LYS137     -0.1314
    104  N         19.5920   18.0720   -3.2300 N.3   148  VAL148     -0.1231
    105  CA        19.7840   16.6660   -2.8690 C.3   148  VAL148      0.1678
    106  C         19.4620   15.7820   -4.0830 C.2   148  VAL148      0.2434
    107  O         18.2770   15.5820   -4.3730 O.2   148  VAL148     -0.2733
    108  CB        18.9280   16.2900   -1.6590 C.3   148  VAL148      0.0265
    109  CG1       19.2300   14.8160   -1.2820 C.3   148  VAL148      0.0020
    110  CG2       19.2050   17.2300   -0.4680 C.3   148  VAL148      0.0020
    111  N         20.4600   15.2480   -4.8050 N.am  149  PRO149     -0.2729
    112  CA        21.8880   15.4890   -4.6570 C.3   149  PRO149      0.1401
    113  C         22.2460   16.8340   -5.2610 C.2   149  PRO149      0.2269
    114  O         21.4540   17.4930   -5.9540 O.2   149  PRO149     -0.2865
    115  CB        22.5320   14.3330   -5.4260 C.3   149  PRO149      0.0296
    116  CG        21.5300   14.1710   -6.6200 C.3   149  PRO149      0.0237
    117  CD        20.1520   14.4680   -6.0250 C.3   149  PRO149      0.0939
    118  N         23.5940   19.8710   -7.3840 N.3   151  ARG151     -0.1245
    119  CA        23.7280   20.2040   -8.8160 C.3   151  ARG151      0.1563
    120  C         24.2790   21.6190   -8.9000 C.2   151  ARG151      0.2260
    121  O         23.9710   22.4740   -8.0820 O.2   151  ARG151     -0.2867
    122  CB        22.3890   20.0970   -9.5620 C.3   151  ARG151      0.0307
    123  CG        21.7020   18.7190   -9.4730 C.3   151  ARG151      0.0489
    124  CD        22.4030   17.6330  -10.2730 C.3   151  ARG151      0.2205
    125  NE        21.6280   16.3930  -10.3170 N.pl3 151  ARG151     -0.0865
    126  CZ        20.3980   16.2500   -9.8270 C.cat 151  ARG151      0.5346
    127  NH1       19.7820   17.2750   -9.2520 N.pl3 151  ARG151      0.1354
    128  NH2       19.7760   15.0780   -9.9140 N.pl3 151  ARG151      0.1354
@<TRIPOS>BOND
     1   102   101    1
     2   102   103    1
     3   125   124    1
     4   125   126    2
     5   124   123    1
     6   101   100    1
     7   128   126    1
     8   126   127    1
     9   122   123    1
    10   122   119    1
    11   120   119    1
    12   120   121    2
    13   119   118    1
    14   100    99    1
    15    99    96    1
    16    96    97    1
    17    96    95    1
    18    97    98    2
    19   116   117    1
    20   116   115    1
    21    90    89    2
    22   117   111    1
    23    94    92   am
    24   114   113    2
    25    93    92    2
    26    95    89   am
    27    89    88    1
    28    92    91    1
    29   115   112    1
    30   113   112    1
    31    57    56    1
    32   111   112    1
    33   111   106   am
    34   107   106    2
    35    91    88    1
    36    88    87    1
    37   106   105    1
    38    56    54   ar
    39    56    55   ar
    40    54    52   ar
    41   104   105    1
    42    55    53   ar
    43   105   108    1
    44    83    82    2
    45    52    51   ar
    46    53    51   ar
    47   108   109    1
    48   108   110    1
    49    82    81    1
    50    51    50    1
    51    78    77    1
    52    76    75    2
    53    77    79    1
    54    77    74    1
    55    80    81    1
    56    81    84    1
    57    85    84    1
    58    84    86    1
    59    50    47    1
    60    65    63   am
    61    75    74    1
    62    74    73    1
    63    63    62    1
    64    63    64    2
    65    62    59    1
    66    47    48    1
    67    47    46    1
    68    49    48    2
    69    48    58   am
    70    58    59    1
    71    59    60    1
    72    46    41   am
    73    61    60    2
    74    60    66   am
    75    41    42    2
    76    41    40    1
    77    29    28    1
    78    34    33    2
    79    66    72    1
    80    66    67    1
    81    72    71    1
    82    40    39    1
    83    40    43    1
    84    44    43    1
    85    33    39   am
    86    33    32    1
    87    28    30    1
    88    28    25    1
    89    27    26    2
    90    21    19   ar
    91    21    23   ar
    92    32    31    1
    93    32    35    1
    94    43    45    1
    95    19    18   ar
    96    69    68    2
    97    26    31   am
    98    26    25    1
    99    67    68    1
   100    67    70    1
   101    71    70    1
   102    24    25    1
   103    24    15   am
   104    23    22   ar
   105    35    36    1
   106    14    15    1
   107    14    17    1
   108    14    13    1
   109    18    17    1
   110    18    20   ar
   111    15    16    2
   112    22    20   ar
   113    36    37    2
   114    36    38   am
   115     4     3    2
   116     3     2    1
   117     5     2    1
   118     5     6    1
   119     8     6   ar
   120     8    10   ar
   121     1     2    1
   122     6     7   ar
   123    10    11   ar
   124     7     9   ar
   125    11     9   ar
   126    11    12    1
