@<TRIPOS>MOLECULE
tmp/3mqlA03.pdb
 98 96 0 0 0
SMALL
GASTEIGER

@<TRIPOS>ATOM
      1  N          3.3920  -27.1660   43.1980 N.3    67  PHE67      -0.1227
      2  CA         4.2900  -27.6560   42.1610 C.3    67  PHE67       0.1736
      3  C          3.5530  -27.9800   40.8700 C.2    67  PHE67       0.2595
      4  O          2.5340  -28.6680   40.8760 O.2    67  PHE67      -0.2718
      5  CB         5.0640  -28.8710   42.6610 C.3    67  PHE67       0.0547
      6  CG         5.9600  -28.5650   43.8090 C.ar   67  PHE67      -0.0202
      7  CD1        7.2350  -28.0850   43.5940 C.ar   67  PHE67      -0.0042
      8  CD2        5.5190  -28.7230   45.1050 C.ar   67  PHE67      -0.0042
      9  CE1        8.0640  -27.7870   44.6430 C.ar   67  PHE67      -0.0003
     10  CE2        6.3450  -28.4260   46.1680 C.ar   67  PHE67      -0.0003
     11  CZ         7.6220  -27.9560   45.9340 C.ar   67  PHE67      -0.0000
     12  N          4.0930  -27.4820   39.7640 N.am   68  TYR68      -0.1962
     13  CA         3.4380  -27.5810   38.4700 C.3    68  TYR68       0.1771
     14  C          4.0500  -28.6910   37.6160 C.2    68  TYR68       0.2620
     15  O          3.6580  -28.8950   36.4690 O.2    68  TYR68      -0.2715
     16  CB         3.5230  -26.2370   37.7460 C.3    68  TYR68       0.0574
     17  CG         3.1120  -25.0570   38.6020 C.ar   68  TYR68      -0.0198
     18  CD1        1.7800  -24.6860   38.7090 C.ar   68  TYR68      -0.0009
     19  CD2        4.0570  -24.3150   39.3010 C.ar   68  TYR68      -0.0009
     20  CE1        1.3960  -23.6110   39.4920 C.ar   68  TYR68       0.0417
     21  CE2        3.6870  -23.2370   40.0880 C.ar   68  TYR68       0.0417
     22  CZ         2.3510  -22.8870   40.1830 C.ar   68  TYR68       0.1957
     23  OH         1.9560  -21.8130   40.9620 O.3    68  TYR68      -0.2866
     24  N          5.0160  -29.4030   38.1820 N.am   69  SER69      -0.1936
     25  CA         5.6400  -30.5300   37.5030 C.3    69  SER69       0.2055
     26  C          6.4440  -31.3090   38.5350 C.2    69  SER69       0.2643
     27  O          6.4670  -30.9400   39.7070 O.2    69  SER69      -0.2714
     28  CB         6.5420  -30.0400   36.3700 C.3    69  SER69       0.2130
     29  OG         7.6860  -29.3770   36.8830 O.3    69  SER69      -0.2179
     30  N          7.1050  -32.3810   38.1140 N.am   70  CYS70      -0.1953
     31  CA         7.8990  -33.1710   39.0450 C.3    70  CYS70       0.1843
     32  C          8.9890  -32.3190   39.6850 C.2    70  CYS70       0.2626
     33  O          9.4140  -31.3070   39.1250 O.2    70  CYS70      -0.2714
     34  CB         8.5260  -34.3610   38.3360 C.3    70  CYS70       0.0997
     35  SG         7.3280  -35.4250   37.5460 S.3    70  CYS70      -0.0797
     36  N          9.4300  -32.7260   40.8690 N.am   71  THR71      -0.1936
     37  CA        10.4910  -32.0060   41.5520 C.3    71  THR71       0.2028
     38  C         11.5320  -32.9250   42.1570 C.2    71  THR71       0.2643
     39  O         11.3260  -34.1320   42.2970 O.2    71  THR71      -0.2714
     40  CB         9.9490  -31.0980   42.6680 C.3    71  THR71       0.1808
     41  OG1        9.1890  -31.8780   43.5960 O.3    71  THR71      -0.2208
     42  CG2        9.0660  -30.0300   42.0880 C.3    71  THR71       0.0379
     43  N         12.6620  -32.3210   42.5020 N.am   72  THR72      -0.1936
     44  CA        13.7210  -32.9910   43.2300 C.3    72  THR72       0.2028
     45  C         13.6920  -32.4260   44.6380 C.2    72  THR72       0.2642
     46  O         14.5230  -32.7650   45.4790 O.2    72  THR72      -0.2714
     47  CB        15.0880  -32.6840   42.6090 C.3    72  THR72       0.1808
     48  OG1       15.3770  -31.2890   42.7660 O.3    72  THR72      -0.2208
     49  CG2       15.0900  -33.0240   41.1320 C.3    72  THR72       0.0379
     50  N         12.7270  -31.5450   44.8730 N.am   73  GLU73      -0.1976
     51  CA        12.5700  -30.8880   46.1600 C.3    73  GLU73       0.1602
     52  C         12.3920  -31.9180   47.2670 C.2    73  GLU73       0.2287
     53  O         11.5100  -32.7720   47.1930 O.2    73  GLU73      -0.2864
     54  CB        11.3620  -29.9540   46.1210 C.3    73  GLU73       0.0415
     55  CG        11.1690  -29.1240   47.3810 C.3    73  GLU73       0.1163
     56  CD        12.1250  -27.9480   47.4550 C.2    73  GLU73       0.3649
     57  OE1       12.7250  -27.5960   46.4150 O.co2  73  GLU73      -0.2457
     58  OE2       12.2700  -27.3710   48.5540 O.co2  73  GLU73      -0.2457
     59  N         13.3950  -37.0970   40.5210 N.3    80  LEU80      -0.1245
     60  CA        12.1930  -36.3250   40.2530 C.3    80  LEU80       0.1561
     61  C         10.9830  -37.0920   40.7530 C.2    80  LEU80       0.2260
     62  O         10.9000  -38.3110   40.5860 O.2    80  LEU80      -0.2867
     63  CB        12.0470  -36.0440   38.7600 C.3    80  LEU80       0.0270
     64  CG        12.9420  -34.9600   38.1630 C.3    80  LEU80       0.0019
     65  CD1       12.7480  -34.9140   36.6620 C.3    80  LEU80       0.0001
     66  CD2       12.6380  -33.6100   38.7880 C.3    80  LEU80       0.0001
     67  N         11.4400  -34.2850   33.0870 N.3   100  HIS100     -0.1241
     68  CA        11.0520  -33.0710   33.7940 C.3   100  HIS100      0.1621
     69  C         10.2990  -32.0920   32.8970 C.2   100  HIS100      0.2264
     70  O         10.4150  -30.8780   33.0570 O.2   100  HIS100     -0.2867
     71  CB        12.2840  -32.3920   34.3980 C.3   100  HIS100      0.0745
     72  CG        11.9730  -31.1440   35.1660 C.ar  100  HIS100      0.0817
     73  ND1       12.3040  -29.8870   34.7080 N.ar  100  HIS100     -0.2268
     74  CD2       11.3520  -30.9600   36.3550 C.ar  100  HIS100      0.1154
     75  CE1       11.9050  -28.9820   35.5850 C.ar  100  HIS100      0.1986
     76  NE2       11.3240  -29.6080   36.5920 N.ar  100  HIS100     -0.2212
     77  N          7.7770  -29.5660   31.5470 N.3   102  VAL102     -0.1245
     78  CA         7.0570  -28.5570   32.3150 C.3   102  VAL102      0.1561
     79  C          6.1090  -27.7300   31.4570 C.2   102  VAL102      0.2260
     80  O          6.5440  -26.9180   30.6410 O.2   102  VAL102     -0.2867
     81  CB         8.0280  -27.5920   33.0040 C.3   102  VAL102      0.0252
     82  CG1        7.2570  -26.4900   33.7150 C.3   102  VAL102      0.0019
     83  CG2        8.9190  -28.3440   33.9680 C.3   102  VAL102      0.0019
     84  N         12.3760  -19.0730   36.9340 N.3   128  THR128     -0.1203
     85  CA        12.1950  -20.4150   36.4060 C.3   128  THR128      0.1994
     86  C         10.9620  -21.0610   37.0150 C.2   128  THR128      0.2617
     87  O         10.7260  -22.2560   36.8450 O.2   128  THR128     -0.2717
     88  CB        13.4090  -21.2970   36.7140 C.3   128  THR128      0.1784
     89  OG1       13.5770  -21.3960   38.1350 O.3   128  THR128     -0.2211
     90  CG2       14.6680  -20.7040   36.1000 C.3   128  THR128      0.0376
     91  N         10.1820  -20.2610   37.7330 N.am  129  ASP129     -0.1973
     92  CA         8.9490  -20.7350   38.3480 C.3   129  ASP129      0.1709
     93  C          7.9960  -19.5640   38.5520 C.2   129  ASP129      0.2293
     94  O          8.4260  -18.4150   38.6130 O.2   129  ASP129     -0.2864
     95  CB         9.2470  -21.4120   39.6860 C.3   129  ASP129      0.1436
     96  CG         8.0050  -21.9830   40.3380 C.2   129  ASP129      0.3671
     97  OD1        6.9900  -22.1590   39.6310 O.co2 129  ASP129     -0.2456
     98  OD2        8.0410  -22.2610   41.5560 O.co2 129  ASP129     -0.2456
@<TRIPOS>BOND
     1    80    79    2
     2    79    78    1
     3    77    78    1
     4    78    81    1
     5    69    70    2
     6    69    68    1
     7    81    82    1
     8    81    83    1
     9    67    68    1
    10    68    71    1
    11    71    72    1
    12    73    72   ar
    13    73    75   ar
    14    72    74   ar
    15    75    76   ar
    16    90    88    1
    17    74    76   ar
    18    28    29    1
    19    28    25    1
    20    85    88    1
    21    85    84    1
    22    85    86    1
    23    15    14    2
    24    65    64    1
    25    88    89    1
    26    87    86    2
    27    86    91   am
    28    25    24    1
    29    25    26    1
    30    35    34    1
    31    14    24   am
    32    14    13    1
    33    91    92    1
    34    16    13    1
    35    16    17    1
    36    30    26   am
    37    30    31    1
    38    64    63    1
    39    64    66    1
    40    34    31    1
    41    92    93    1
    42    92    95    1
    43    13    12    1
    44    26    27    2
    45    93    94    2
    46    17    18   ar
    47    17    19   ar
    48    18    20   ar
    49    63    60    1
    50    31    32    1
    51    33    32    2
    52    19    21   ar
    53    20    22   ar
    54    97    96   ar
    55    32    36   am
    56    95    96    1
    57    12     3   am
    58    21    22   ar
    59    22    23    1
    60    60    59    1
    61    60    61    1
    62    96    98   ar
    63    62    61    2
    64    36    37    1
    65     3     4    2
    66     3     2    1
    67    49    47    1
    68    37    38    1
    69    37    40    1
    70    42    40    1
    71    38    39    2
    72    38    43   am
    73     2     5    1
    74     2     1    1
    75    43    44    1
    76    47    48    1
    77    47    44    1
    78     5     6    1
    79    40    41    1
    80    44    45    1
    81     7     6   ar
    82     7     9   ar
    83     6     8   ar
    84    45    50   am
    85    45    46    2
    86     9    11   ar
    87    50    51    1
    88     8    10   ar
    89    11    10   ar
    90    54    51    1
    91    54    55    1
    92    51    52    1
    93    57    56   ar
    94    53    52    2
    95    55    56    1
    96    56    58   ar
