@<TRIPOS>MOLECULE
tmp/3mqrA00.pdb
 118 115 0 0 0
SMALL
GASTEIGER

@<TRIPOS>ATOM
      1  N         32.0020  -10.1120  -20.3130 N.3    38  MET38      -0.1245
      2  CA        33.2360  -10.8370  -20.6010 C.3    38  MET38       0.1570
      3  C         32.9590  -12.3240  -20.4370 C.2    38  MET38       0.2261
      4  O         32.5220  -12.7630  -19.3730 O.2    38  MET38      -0.2867
      5  CB        34.3460  -10.4240  -19.6300 C.3    38  MET38       0.0387
      6  CG        35.6780  -11.1150  -19.8910 C.3    38  MET38       0.0595
      7  SD        36.8720  -10.8870  -18.5520 S.3    38  MET38      -0.1393
      8  CE        37.5400   -9.2880  -18.9610 C.3    38  MET38       0.0692
      9  N         34.5790  -16.3130  -21.0390 N.3    40  MET40      -0.1245
     10  CA        35.8030  -17.0590  -21.2870 C.3    40  MET40       0.1570
     11  C         35.6810  -18.5050  -20.8430 C.2    40  MET40       0.2261
     12  O         35.0310  -18.8040  -19.8440 O.2    40  MET40      -0.2867
     13  CB        36.9740  -16.4160  -20.5440 C.3    40  MET40       0.0387
     14  CG        36.8570  -16.4930  -19.0260 C.3    40  MET40       0.0595
     15  SD        38.2520  -15.7130  -18.2080 S.3    40  MET40      -0.1393
     16  CE        37.7080  -14.0170  -18.2070 C.3    40  MET40       0.0692
     17  N         36.7260  -21.8250  -19.0280 N.3    42  ARG42      -0.1245
     18  CA        37.5420  -22.0490  -17.8400 C.3    42  ARG42       0.1563
     19  C         37.6700  -23.5350  -17.5400 C.2    42  ARG42       0.2260
     20  O         36.8750  -24.3410  -18.0210 O.2    42  ARG42      -0.2867
     21  CB        36.9390  -21.3180  -16.6330 C.3    42  ARG42       0.0307
     22  CG        36.8880  -19.7940  -16.7830 C.3    42  ARG42       0.0489
     23  CD        38.2870  -19.1990  -16.8900 C.3    42  ARG42       0.2205
     24  NE        38.9920  -19.1950  -15.6100 N.pl3  42  ARG42      -0.0865
     25  CZ        38.8750  -18.2410  -14.6900 C.cat  42  ARG42       0.5346
     26  NH1       38.0790  -17.2010  -14.9020 N.pl3  42  ARG42       0.1354
     27  NH2       39.5580  -18.3240  -13.5540 N.pl3  42  ARG42       0.1354
     28  N         31.7120  -12.7250  -16.6350 N.3    50  PHE50      -0.1241
     29  CA        32.0020  -11.5830  -15.7660 C.3    50  PHE50       0.1605
     30  C         31.4610  -10.2750  -16.3150 C.2    50  PHE50       0.2264
     31  O         31.2580  -10.1390  -17.5170 O.2    50  PHE50      -0.2867
     32  CB        33.5160  -11.4010  -15.5860 C.3    50  PHE50       0.0534
     33  CG        34.2200  -12.6120  -15.0540 C.ar   50  PHE50      -0.0203
     34  CD1       34.4820  -13.7010  -15.8800 C.ar   50  PHE50      -0.0042
     35  CD2       34.6090  -12.6700  -13.7200 C.ar   50  PHE50      -0.0042
     36  CE1       35.1210  -14.8340  -15.3870 C.ar   50  PHE50      -0.0003
     37  CE2       35.2490  -13.7980  -13.2140 C.ar   50  PHE50      -0.0003
     38  CZ        35.5060  -14.8830  -14.0500 C.ar   50  PHE50      -0.0000
     39  N         23.5640  -13.5510   -9.2810 N.3    85  ARG85      -0.1231
     40  CA        23.6530  -12.1380   -8.9420 C.3    85  ARG85       0.1694
     41  C         24.9960  -11.7750   -8.3250 C.2    85  ARG85       0.2591
     42  O         25.6650  -12.6140   -7.7180 O.2    85  ARG85      -0.2718
     43  CB        22.5180  -11.7740   -7.9790 C.3    85  ARG85       0.0321
     44  CG        22.3610  -12.7630   -6.8420 C.3    85  ARG85       0.0489
     45  CD        20.9430  -12.7700   -6.2910 C.3    85  ARG85       0.2205
     46  NE        20.7210  -13.9060   -5.3970 N.pl3  85  ARG85      -0.0865
     47  CZ        20.8450  -15.1810   -5.7590 C.cat  85  ARG85       0.5346
     48  NH1       21.1900  -15.4960   -7.0020 N.pl3  85  ARG85       0.1354
     49  NH2       20.6280  -16.1440   -4.8740 N.pl3  85  ARG85       0.1354
     50  N         25.3890  -10.5190   -8.5000 N.am   86  ILE86      -0.1980
     51  CA        26.6380  -10.0210   -7.9460 C.3    86  ILE86       0.1595
     52  C         26.4220   -8.6280   -7.3640 C.2    86  ILE86       0.2287
     53  O         25.4540   -7.9400   -7.6940 O.2    86  ILE86      -0.2864
     54  CB        27.7580   -9.9250   -9.0180 C.3    86  ILE86       0.0276
     55  CG1       27.3150   -9.0100  -10.1620 C.3    86  ILE86       0.0022
     56  CG2       28.1080  -11.3140   -9.5400 C.3    86  ILE86       0.0022
     57  CD1       28.4270   -8.6890  -11.1510 C.3    86  ILE86       0.0001
     58  N         41.6850   -1.7960   -9.8030 N.3    93  LYS93      -0.1231
     59  CA        42.2970   -3.0770   -9.4460 C.3    93  LYS93       0.1693
     60  C         41.3240   -4.2580   -9.4260 C.2    93  LYS93       0.2591
     61  O         41.7400   -5.4170   -9.3900 O.2    93  LYS93      -0.2718
     62  CB        43.0030   -2.9610   -8.0940 C.3    93  LYS93       0.0285
     63  CG        44.2000   -2.0270   -8.1220 C.3    93  LYS93       0.0035
     64  CD        44.9540   -2.0400   -6.8040 C.3    93  LYS93       0.0206
     65  CE        46.1980   -1.1670   -6.8770 C.3    93  LYS93       0.1093
     66  NZ        46.9880   -1.2100   -5.6130 N.3    93  LYS93      -0.1314
     67  N         40.0310   -3.9600   -9.4370 N.am   94  GLU94      -0.1979
     68  CA        39.0020   -4.9960   -9.4550 C.3    94  GLU94       0.1602
     69  C         37.9380   -4.4740  -10.4080 C.2    94  GLU94       0.2287
     70  O         36.8150   -4.1810   -9.9990 O.2    94  GLU94      -0.2864
     71  CB        38.4230   -5.2140   -8.0470 C.3    94  GLU94       0.0415
     72  CG        39.4410   -5.7900   -7.0550 C.3    94  GLU94       0.1163
     73  CD        38.8530   -6.1180   -5.6860 C.2    94  GLU94       0.3649
     74  OE1       39.6220   -6.5710   -4.8100 O.co2  94  GLU94      -0.2457
     75  OE2       37.6390   -5.9280   -5.4750 O.co2  94  GLU94      -0.2457
     76  N         36.4480   -6.0510  -12.9010 N.3    96  ASP96      -0.1225
     77  CA        35.4730   -7.0230  -13.3830 C.3    96  ASP96       0.1805
     78  C         35.1130   -7.9500  -12.2340 C.2    96  ASP96       0.2598
     79  O         35.8850   -8.1140  -11.2840 O.2    96  ASP96      -0.2718
     80  CB        35.9690   -7.8100  -14.6170 C.3    96  ASP96       0.1424
     81  CG        36.9910   -8.8860  -14.2870 C.2    96  ASP96       0.3668
     82  OD1       36.7720   -9.6800  -13.3490 O.co2  96  ASP96      -0.2456
     83  OD2       38.0100   -8.9550  -15.0010 O.co2  96  ASP96      -0.2456
     84  N         33.9330   -8.5450  -12.3120 N.am   97  TRP97      -0.1962
     85  CA        33.4670   -9.4150  -11.2440 C.3    97  TRP97       0.1771
     86  C         32.4900  -10.4120  -11.8390 C.2    97  TRP97       0.2620
     87  O         31.6760  -10.0650  -12.6960 O.2    97  TRP97      -0.2715
     88  CB        32.7700   -8.5630  -10.1820 C.3    97  TRP97       0.0590
     89  CG        32.7900   -9.1380   -8.8020 C.ar   97  TRP97       0.0006
     90  CD1       31.7160   -9.5590   -8.0700 C.ar   97  TRP97       0.0946
     91  CD2       33.9350   -9.2780   -7.9550 C.ar   97  TRP97       0.0152
     92  NE1       32.1230   -9.9440   -6.8120 N.ar   97  TRP97      -0.2442
     93  CE2       33.4800   -9.7820   -6.7150 C.ar   97  TRP97       0.0810
     94  CE3       35.3030   -9.0230   -8.1220 C.ar   97  TRP97       0.0012
     95  CZ2       34.3460  -10.0340   -5.6430 C.ar   97  TRP97       0.0191
     96  CZ3       36.1660   -9.2740   -7.0560 C.ar   97  TRP97       0.0001
     97  CH2       35.6810   -9.7740   -5.8330 C.ar   97  TRP97       0.0015
     98  N         32.5700  -11.6560  -11.3860 N.am   98  GLY98      -0.1940
     99  CA        31.6770  -12.6630  -11.9160 C.3    98  GLY98       0.2014
    100  C         32.0560  -14.0550  -11.4630 C.2    98  GLY98       0.2639
    101  O         32.6360  -14.2340  -10.3870 O.2    98  GLY98      -0.2714
    102  N         31.7510  -15.0410  -12.2990 N.am   99  PHE99      -0.1959
    103  CA        32.0260  -16.4290  -11.9570 C.3    99  PHE99       0.1771
    104  C         32.8410  -17.1630  -13.0100 C.2    99  PHE99       0.2620
    105  O         32.4770  -17.1850  -14.1840 O.2    99  PHE99      -0.2715
    106  CB        30.7030  -17.1630  -11.7250 C.3    99  PHE99       0.0574
    107  CG        29.7390  -16.4120  -10.8430 C.ar   99  PHE99      -0.0200
    108  CD1       28.9650  -15.3760  -11.3580 C.ar   99  PHE99      -0.0042
    109  CD2       29.6240  -16.7240   -9.4930 C.ar   99  PHE99      -0.0042
    110  CE1       28.0900  -14.6620  -10.5440 C.ar   99  PHE99      -0.0003
    111  CE2       28.7500  -16.0140   -8.6670 C.ar   99  PHE99      -0.0003
    112  CZ        27.9810  -14.9800   -9.1970 C.ar   99  PHE99      -0.0000
    113  N         33.9460  -17.7660  -12.5830 N.am  100  SER100     -0.1950
    114  CA        34.7990  -18.5190  -13.4950 C.3   100  SER100      0.1924
    115  C         34.0750  -19.8000  -13.9080 C.2   100  SER100      0.2314
    116  O         34.2890  -20.3310  -15.0010 O.2   100  SER100     -0.2863
    117  CB        36.1270  -18.8570  -12.8120 C.3   100  SER100      0.2116
    118  OG        35.9010  -19.5300  -11.5850 O.3   100  SER100     -0.2180
@<TRIPOS>BOND
     1    10     9    1
     2    10    11    1
     3    10    13    1
     4    11    12    2
     5     2     3    1
     6     2     1    1
     7     2     5    1
     8    13    14    1
     9     3     4    2
    10     6     5    1
    11     6     7    1
    12    17    18    1
    13    14    15    1
    14     8     7    1
    15    15    16    1
    16    20    19    2
    17    18    19    1
    18    18    21    1
    19    31    30    2
    20    23    22    1
    21    23    24    1
    22    22    21    1
    23    28    29    1
    24    30    29    1
    25    34    36   ar
    26    34    33   ar
    27    29    32    1
    28    24    25    2
    29    32    33    1
    30    36    38   ar
    31    33    35   ar
    32    83    81   ar
    33   116   115    2
    34    26    25    1
    35    25    27    1
    36    80    81    1
    37    80    77    1
    38    81    82   ar
    39   105   104    2
    40    38    37   ar
    41   115   114    1
    42    35    37   ar
    43   114   117    1
    44   114   113    1
    45    77    76    1
    46    77    78    1
    47   104   113   am
    48   104   103    1
    49   117   118    1
    50    87    86    2
    51    84    78   am
    52    84    85    1
    53   102   103    1
    54   102   100   am
    55    78    79    2
    56   103   106    1
    57    99   100    1
    58    99    98    1
    59    86    98   am
    60    86    85    1
    61   106   107    1
    62   100   101    2
    63   108   107   ar
    64   108   110   ar
    65    85    88    1
    66    57    55    1
    67   107   109   ar
    68   110   112   ar
    69    69    70    2
    70    69    68    1
    71    88    89    1
    72    55    54    1
    73    58    59    1
    74    56    54    1
    75   109   111   ar
    76    68    67    1
    77    68    71    1
    78    59    60    1
    79    59    62    1
    80    67    60   am
    81    60    61    2
    82    39    40    1
    83   112   111   ar
    84    54    51    1
    85    40    41    1
    86    40    43    1
    87    89    90   ar
    88    89    91   ar
    89    50    41   am
    90    50    51    1
    91    41    42    2
    92    63    62    1
    93    63    64    1
    94    94    91   ar
    95    94    96   ar
    96    90    92   ar
    97    71    72    1
    98    43    44    1
    99    91    93   ar
   100    51    52    1
   101    53    52    2
   102    96    97   ar
   103    72    73    1
   104    48    47    1
   105    65    64    1
   106    65    66    1
   107    44    45    1
   108    92    93   ar
   109    93    95   ar
   110    45    46    1
   111    97    95   ar
   112    47    46    2
   113    47    49    1
   114    73    75   ar
   115    73    74   ar
