@<TRIPOS>MOLECULE
tmp/3mqsA00.pdb
 126 122 0 0 0
SMALL
GASTEIGER

@<TRIPOS>ATOM
      1  N         32.0460  -10.0800  -20.1870 N.3    38  MET38      -0.1245
      2  CA        33.2850  -10.8070  -20.4510 C.3    38  MET38       0.1570
      3  C         33.0570  -12.3080  -20.2750 C.2    38  MET38       0.2261
      4  O         32.6770  -12.7630  -19.1930 O.2    38  MET38      -0.2867
      5  CB        34.3930  -10.3450  -19.5010 C.3    38  MET38       0.0387
      6  CG        35.7660  -10.9230  -19.8420 C.3    38  MET38       0.0595
      7  SD        37.0060  -10.7510  -18.5130 S.3    38  MET38      -0.1393
      8  CE        37.3910   -9.0090  -18.6490 C.3    38  MET38       0.0692
      9  N         34.6320  -16.4130  -21.0760 N.3    40  MET40      -0.1245
     10  CA        35.7730  -17.2420  -21.4390 C.3    40  MET40       0.1570
     11  C         35.6660  -18.6300  -20.8280 C.2    40  MET40       0.2261
     12  O         34.9780  -18.8310  -19.8300 O.2    40  MET40      -0.2867
     13  CB        37.1060  -16.5940  -21.0270 C.3    40  MET40       0.0387
     14  CG        37.5920  -16.9410  -19.6360 C.3    40  MET40       0.0595
     15  SD        36.7950  -15.9990  -18.3510 S.3    40  MET40      -0.1393
     16  CE        37.8940  -14.5780  -18.2520 C.3    40  MET40       0.0692
     17  N         36.7760  -21.8450  -18.6980 N.3    42  ARG42      -0.1245
     18  CA        37.5690  -22.0360  -17.4880 C.3    42  ARG42       0.1563
     19  C         37.6120  -23.5070  -17.0780 C.2    42  ARG42       0.2260
     20  O         36.7230  -24.2900  -17.4310 O.2    42  ARG42      -0.2867
     21  CB        36.9740  -21.2170  -16.3470 C.3    42  ARG42       0.0307
     22  CG        36.7640  -19.7560  -16.6860 C.3    42  ARG42       0.0489
     23  CD        38.0450  -18.9540  -16.5390 C.3    42  ARG42       0.2205
     24  NE        38.4760  -18.9040  -15.1510 N.pl3  42  ARG42      -0.0865
     25  CZ        39.0120  -17.8360  -14.5750 C.cat  42  ARG42       0.5346
     26  NH1       39.1850  -16.7200  -15.2740 N.pl3  42  ARG42       0.1354
     27  NH2       39.3640  -17.8850  -13.2940 N.pl3  42  ARG42       0.1354
     28  N         31.7590  -12.6680  -16.5810 N.3    50  PHE50      -0.1241
     29  CA        32.0540  -11.5260  -15.7120 C.3    50  PHE50       0.1605
     30  C         31.5500  -10.1840  -16.2560 C.2    50  PHE50       0.2264
     31  O         31.3510  -10.0140  -17.4590 O.2    50  PHE50      -0.2867
     32  CB        33.5660  -11.3990  -15.4880 C.3    50  PHE50       0.0534
     33  CG        34.2180  -12.6250  -14.9090 C.ar   50  PHE50      -0.0203
     34  CD1       34.5340  -13.7200  -15.7150 C.ar   50  PHE50      -0.0042
     35  CD2       34.5480  -12.6640  -13.5620 C.ar   50  PHE50      -0.0042
     36  CE1       35.1800  -14.8360  -15.1760 C.ar   50  PHE50      -0.0003
     37  CE2       35.1880  -13.7620  -13.0070 C.ar   50  PHE50      -0.0003
     38  CZ        35.5080  -14.8550  -13.8160 C.ar   50  PHE50      -0.0000
     39  N         22.7520  -15.3790  -12.0160 N.3    84  ARG84      -0.1245
     40  CA        23.3080  -15.2110  -10.6760 C.3    84  ARG84       0.1563
     41  C         23.4060  -13.7110  -10.4330 C.2    84  ARG84       0.2260
     42  O         23.6470  -12.9450  -11.3650 O.2    84  ARG84      -0.2867
     43  CB        24.7110  -15.8300  -10.5790 C.3    84  ARG84       0.0307
     44  CG        24.8090  -17.3190  -10.8750 C.3    84  ARG84       0.0489
     45  CD        26.2760  -17.7520  -10.9680 C.3    84  ARG84       0.2205
     46  NE        26.4150  -19.1900  -11.1680 N.pl3  84  ARG84      -0.0865
     47  CZ        26.2780  -20.0980  -10.2050 C.cat  84  ARG84       0.5346
     48  NH1       26.0050  -19.7170   -8.9650 N.pl3  84  ARG84       0.1354
     49  NH2       26.3970  -21.3890  -10.4830 N.pl3  84  ARG84       0.1354
     50  N         25.0970  -10.3270   -8.4010 N.3    86  ILE86      -0.1245
     51  CA        26.3580   -9.8890   -7.8150 C.3    86  ILE86       0.1561
     52  C         26.2350   -8.4930   -7.2470 C.2    86  ILE86       0.2260
     53  O         25.3310   -7.7400   -7.5900 O.2    86  ILE86      -0.2867
     54  CB        27.5220   -9.8420   -8.8340 C.3    86  ILE86       0.0252
     55  CG1       27.1400   -8.9610  -10.0240 C.3    86  ILE86       0.0019
     56  CG2       27.9090  -11.2390   -9.2550 C.3    86  ILE86       0.0019
     57  CD1       28.2630   -8.7660  -11.0000 C.3    86  ILE86       0.0001
     58  N         41.7990   -1.6570   -9.6600 N.3    93  LYS93      -0.1231
     59  CA        42.3960   -2.9410   -9.2870 C.3    93  LYS93       0.1693
     60  C         41.4070   -4.1140   -9.2780 C.2    93  LYS93       0.2591
     61  O         41.7930   -5.2560   -9.0440 O.2    93  LYS93      -0.2718
     62  CB        43.1250   -2.8120   -7.9430 C.3    93  LYS93       0.0285
     63  CG        44.4380   -2.0280   -8.0440 C.3    93  LYS93       0.0035
     64  CD        45.0550   -1.7570   -6.6800 C.3    93  LYS93       0.0206
     65  CE        46.4020   -1.0360   -6.7980 C.3    93  LYS93       0.1093
     66  NZ        46.9390   -0.5970   -5.4650 N.3    93  LYS93      -0.1314
     67  N         40.1400   -3.8280   -9.5510 N.am   94  GLU94      -0.1979
     68  CA        39.1000   -4.8490   -9.6260 C.3    94  GLU94       0.1602
     69  C         38.0450   -4.2900  -10.5660 C.2    94  GLU94       0.2287
     70  O         36.9290   -3.9730  -10.1510 O.2    94  GLU94      -0.2864
     71  CB        38.5030   -5.1340   -8.2400 C.3    94  GLU94       0.0415
     72  CG        39.4280   -5.9840   -7.3810 C.3    94  GLU94       0.1163
     73  CD        38.9440   -6.2210   -5.9630 C.2    94  GLU94       0.3649
     74  OE1       39.6640   -6.9130   -5.2110 O.co2  94  GLU94      -0.2457
     75  OE2       37.8600   -5.7280   -5.5860 O.co2  94  GLU94      -0.2457
     76  N         36.4570   -5.8170  -12.8700 N.3    96  ASP96      -0.1225
     77  CA        35.4740   -6.8070  -13.3080 C.3    96  ASP96       0.1805
     78  C         35.0960   -7.6950  -12.1320 C.2    96  ASP96       0.2598
     79  O         35.8190   -7.7710  -11.1360 O.2    96  ASP96      -0.2718
     80  CB        35.9720   -7.6530  -14.4960 C.3    96  ASP96       0.1424
     81  CG        36.9380   -8.7510  -14.0900 C.2    96  ASP96       0.3668
     82  OD1       36.6320   -9.5460  -13.1820 O.co2  96  ASP96      -0.2456
     83  OD2       38.0110   -8.8360  -14.7060 O.co2  96  ASP96      -0.2456
     84  N         33.9420   -8.3470  -12.2530 N.am   97  TRP97      -0.1962
     85  CA        33.4130   -9.2050  -11.2050 C.3    97  TRP97       0.1771
     86  C         32.4360  -10.2250  -11.7870 C.2    97  TRP97       0.2620
     87  O         31.6700   -9.9080  -12.6990 O.2    97  TRP97      -0.2715
     88  CB        32.6900   -8.3480  -10.1690 C.3    97  TRP97       0.0590
     89  CG        32.4530   -9.0520   -8.8730 C.ar   97  TRP97       0.0006
     90  CD1       31.2510   -9.4510   -8.3480 C.ar   97  TRP97       0.0946
     91  CD2       33.4460   -9.3840   -7.9050 C.ar   97  TRP97       0.0152
     92  NE1       31.4410  -10.0020   -7.1030 N.ar   97  TRP97      -0.2442
     93  CE2       32.7820   -9.9750   -6.8080 C.ar   97  TRP97       0.0810
     94  CE3       34.8400   -9.2360   -7.8570 C.ar   97  TRP97       0.0012
     95  CZ2       33.4670  -10.4190   -5.6690 C.ar   97  TRP97       0.0191
     96  CZ3       35.5200   -9.6750   -6.7300 C.ar   97  TRP97       0.0001
     97  CH2       34.8330  -10.2600   -5.6500 C.ar   97  TRP97       0.0015
     98  N         32.4560  -11.4430  -11.2520 N.am   98  GLY98      -0.1940
     99  CA        31.5600  -12.4740  -11.7450 C.3    98  GLY98       0.2014
    100  C         31.9410  -13.8680  -11.2890 C.2    98  GLY98       0.2639
    101  O         32.4950  -14.0490  -10.2010 O.2    98  GLY98      -0.2714
    102  N         31.6540  -14.8580  -12.1280 N.am   99  PHE99      -0.1959
    103  CA        31.9530  -16.2480  -11.8000 C.3    99  PHE99       0.1771
    104  C         32.7810  -16.9600  -12.8660 C.2    99  PHE99       0.2620
    105  O         32.4290  -16.9450  -14.0440 O.2    99  PHE99      -0.2715
    106  CB        30.6520  -17.0260  -11.5900 C.3    99  PHE99       0.0574
    107  CG        29.7010  -16.3770  -10.6230 C.ar   99  PHE99      -0.0200
    108  CD1       28.9650  -15.2540  -10.9910 C.ar   99  PHE99      -0.0042
    109  CD2       29.5630  -16.8770   -9.3300 C.ar   99  PHE99      -0.0042
    110  CE1       28.1030  -14.6320  -10.0850 C.ar   99  PHE99      -0.0003
    111  CE2       28.7060  -16.2650   -8.4130 C.ar   99  PHE99      -0.0003
    112  CZ        27.9740  -15.1380   -8.7900 C.ar   99  PHE99      -0.0000
    113  N         33.8750  -17.5930  -12.4500 N.am  100  SER100     -0.1936
    114  CA        34.7140  -18.3300  -13.3890 C.3   100  SER100      0.2055
    115  C         34.0320  -19.6690  -13.6650 C.2   100  SER100      0.2643
    116  O         34.2790  -20.3150  -14.6830 O.2   100  SER100     -0.2714
    117  CB        36.1040  -18.5680  -12.8000 C.3   100  SER100      0.2130
    118  OG        36.0160  -19.3090  -11.6010 O.3   100  SER100     -0.2179
    119  N         33.1830  -20.0800  -12.7330 N.am  101  ASN101     -0.1971
    120  CA        32.4340  -21.3100  -12.8690 C.3   101  ASN101      0.1688
    121  C         30.9570  -20.9290  -12.7850 C.2   101  ASN101      0.2292
    122  O         30.2320  -21.3740  -11.8970 O.2   101  ASN101     -0.2864
    123  CB        32.8240  -22.3030  -11.7630 C.3   101  ASN101      0.1181
    124  CG        34.2380  -22.9030  -11.9710 C.2   101  ASN101      0.2629
    125  OD1       35.2530  -22.1790  -11.9910 O.2   101  ASN101     -0.2716
    126  ND2       34.3020  -24.2320  -12.1320 N.am  101  ASN101     -0.0877
@<TRIPOS>BOND
     1    10     9    1
     2    10    13    1
     3    10    11    1
     4    13    14    1
     5    11    12    2
     6     2     3    1
     7     2     1    1
     8     2     5    1
     9     3     4    2
    10     6     5    1
    11     6     7    1
    12    14    15    1
    13    17    18    1
    14     8     7    1
    15    15    16    1
    16    18    19    1
    17    18    21    1
    18    31    30    2
    19    20    19    2
    20    22    23    1
    21    22    21    1
    22    28    29    1
    23    23    24    1
    24    30    29    1
    25    34    36   ar
    26    34    33   ar
    27    29    32    1
    28    32    33    1
    29    26    25    1
    30    36    38   ar
    31    24    25    2
    32    33    35   ar
    33    83    81   ar
    34   116   115    2
    35    25    27    1
    36    80    81    1
    37    80    77    1
    38    81    82   ar
    39   105   104    2
    40    38    37   ar
    41   115   114    1
    42   115   119   am
    43    35    37   ar
    44   114   117    1
    45   114   113    1
    46    77    76    1
    47    77    78    1
    48   120   121    1
    49   120   119    1
    50   120   123    1
    51   104   113   am
    52   104   103    1
    53   117   118    1
    54   121   122    2
    55    87    86    2
    56    84    78   am
    57    84    85    1
    58    78    79    2
    59   126   124   am
    60   102   103    1
    61   102   100   am
    62    39    40    1
    63   125   124    2
    64   124   123    1
    65   103   106    1
    66    86    98   am
    67    86    85    1
    68    99   100    1
    69    99    98    1
    70   106   107    1
    71    42    41    2
    72   100   101    2
    73    85    88    1
    74    46    45    1
    75    46    47    2
    76    57    55    1
    77   108   107   ar
    78   108   110   ar
    79    45    44    1
    80    44    43    1
    81    40    43    1
    82    40    41    1
    83   107   109   ar
    84    69    70    2
    85    69    68    1
    86    49    47    1
    87    47    48    1
    88    88    89    1
    89   110   112   ar
    90    55    54    1
    91    58    59    1
    92    68    67    1
    93    68    71    1
    94    67    60   am
    95   109   111   ar
    96    59    60    1
    97    59    62    1
    98    60    61    2
    99    56    54    1
   100    89    90   ar
   101    89    91   ar
   102    54    51    1
   103   112   111   ar
   104    50    51    1
   105    90    92   ar
   106    71    72    1
   107    63    62    1
   108    63    64    1
   109    91    94   ar
   110    91    93   ar
   111    94    96   ar
   112    51    52    1
   113    53    52    2
   114    72    73    1
   115    92    93   ar
   116    93    95   ar
   117    65    64    1
   118    65    66    1
   119    96    97   ar
   120    73    75   ar
   121    73    74   ar
   122    95    97   ar
