@<TRIPOS>MOLECULE
tmp/3mr0B01.pdb
 114 110 0 0 0
SMALL
GASTEIGER

@<TRIPOS>ATOM
      1  N         49.2360    7.6830  -23.9250 N.3    15  TRP15      -0.1241
      2  CA        50.5910    8.1630  -24.0850 C.3    15  TRP15       0.1605
      3  C         51.0500    8.7920  -22.7850 C.2    15  TRP15       0.2264
      4  O         50.2550    9.2270  -21.9650 O.2    15  TRP15      -0.2867
      5  CB        50.7300    9.1440  -25.2600 C.3    15  TRP15       0.0550
      6  CG        49.7570   10.2980  -25.2580 C.ar   15  TRP15       0.0003
      7  CD1       48.5460   10.3400  -25.8700 C.ar   15  TRP15       0.0946
      8  CD2       49.9330   11.5800  -24.6300 C.ar   15  TRP15       0.0152
      9  NE1       47.9530   11.5510  -25.6620 N.ar   15  TRP15      -0.2442
     10  CE2       48.7790   12.3340  -24.8980 C.ar   15  TRP15       0.0810
     11  CE3       50.9590   12.1600  -23.8690 C.ar   15  TRP15       0.0012
     12  CZ2       48.6170   13.6470  -24.4430 C.ar   15  TRP15       0.0191
     13  CZ3       50.7960   13.4580  -23.4040 C.ar   15  TRP15       0.0001
     14  CH2       49.6390   14.1850  -23.6920 C.ar   15  TRP15       0.0015
     15  N         54.2890   11.2470  -21.7790 N.3    17  TRP17      -0.1241
     16  CA        55.3870   12.0400  -22.3030 C.3    17  TRP17       0.1605
     17  C         56.2340   12.6770  -21.1950 C.2    17  TRP17       0.2264
     18  O         55.7050   13.2010  -20.2200 O.2    17  TRP17      -0.2867
     19  CB        54.7720   13.1350  -23.1470 C.3    17  TRP17       0.0550
     20  CG        55.6620   14.1200  -23.7980 C.ar   17  TRP17       0.0003
     21  CD1       56.6830   13.8680  -24.6680 C.ar   17  TRP17       0.0946
     22  CD2       55.5200   15.5450  -23.7410 C.ar   17  TRP17       0.0152
     23  NE1       57.2120   15.0500  -25.1260 N.ar   17  TRP17      -0.2442
     24  CE2       56.5150   16.0950  -24.5680 C.ar   17  TRP17       0.0810
     25  CE3       54.6590   16.4070  -23.0530 C.ar   17  TRP17       0.0012
     26  CZ2       56.6720   17.4760  -24.7240 C.ar   17  TRP17       0.0191
     27  CZ3       54.8130   17.7630  -23.2020 C.ar   17  TRP17       0.0001
     28  CH2       55.8090   18.2940  -24.0270 C.ar   17  TRP17       0.0015
     29  N         47.5840    3.2260  -29.1630 N.3    29  PHE29      -0.1241
     30  CA        48.1040    4.4660  -29.6800 C.3    29  PHE29       0.1605
     31  C         48.7590    4.1330  -30.9990 C.2    29  PHE29       0.2264
     32  O         48.5470    4.8130  -31.9930 O.2    29  PHE29      -0.2867
     33  CB        49.1260    5.0450  -28.7040 C.3    29  PHE29       0.0534
     34  CG        49.6830    6.3680  -29.1200 C.ar   29  PHE29      -0.0203
     35  CD1       49.3710    7.5020  -28.4170 C.ar   29  PHE29      -0.0042
     36  CD2       50.5300    6.4750  -30.2210 C.ar   29  PHE29      -0.0042
     37  CE1       49.8960    8.7360  -28.7960 C.ar   29  PHE29      -0.0003
     38  CE2       51.0630    7.7150  -30.6210 C.ar   29  PHE29      -0.0003
     39  CZ        50.7410    8.8470  -29.9070 C.ar   29  PHE29      -0.0000
     40  N         54.7900   14.5340  -37.6040 N.3    46  SER46      -0.1202
     41  CA        53.6980   13.7800  -38.2330 C.3    46  SER46       0.2020
     42  C         52.3520   14.5060  -38.2780 C.2    46  SER46       0.2618
     43  O         51.4050   14.0110  -38.8530 O.2    46  SER46      -0.2717
     44  CB        53.5270   12.4270  -37.5400 C.3    46  SER46       0.2103
     45  OG        53.7000   12.5650  -36.1430 O.3    46  SER46      -0.2182
     46  N         52.2450   15.6700  -37.6660 N.am   47  ILE47      -0.1979
     47  CA        50.9430   16.3010  -37.6660 C.3    47  ILE47       0.1595
     48  C         50.7920   17.2420  -38.8620 C.2    47  ILE47       0.2287
     49  O         51.7460   17.8780  -39.2900 O.2    47  ILE47      -0.2864
     50  CB        50.5830   16.9070  -36.2890 C.3    47  ILE47       0.0276
     51  CG1       50.4430   18.4230  -36.3520 C.3    47  ILE47       0.0022
     52  CG2       51.5980   16.4700  -35.2290 C.3    47  ILE47       0.0022
     53  CD1       50.0750   19.0110  -35.0200 C.3    47  ILE47       0.0001
     54  N         49.5180   23.2650  -26.8180 N.3    59  LEU59      -0.1245
     55  CA        50.4690   22.5820  -25.9450 C.3    59  LEU59       0.1561
     56  C         51.2530   23.5470  -25.0470 C.2    59  LEU59       0.2260
     57  O         51.2510   23.3890  -23.8230 O.2    59  LEU59      -0.2867
     58  CB        51.4230   21.7030  -26.7620 C.3    59  LEU59       0.0270
     59  CG        52.4850   20.9020  -25.9970 C.3    59  LEU59       0.0019
     60  CD1       51.8470   19.8010  -25.1630 C.3    59  LEU59       0.0001
     61  CD2       53.4610   20.3310  -26.9910 C.3    59  LEU59       0.0001
     62  N         44.1640   21.0900  -22.1030 N.3    69  TYR69      -0.1241
     63  CA        44.7010   20.5290  -23.3430 C.3    69  TYR69       0.1605
     64  C         43.7600   19.5090  -23.9370 C.2    69  TYR69       0.2264
     65  O         43.7580   18.3540  -23.5180 O.2    69  TYR69      -0.2867
     66  CB        46.0670   19.8790  -23.1450 C.3    69  TYR69       0.0534
     67  CG        46.7000   19.4780  -24.4590 C.ar   69  TYR69      -0.0201
     68  CD1       47.3300   20.4260  -25.2610 C.ar   69  TYR69      -0.0009
     69  CD2       46.6570   18.1690  -24.9110 C.ar   69  TYR69      -0.0009
     70  CE1       47.9080   20.0880  -26.4690 C.ar   69  TYR69       0.0417
     71  CE2       47.2300   17.8170  -26.1270 C.ar   69  TYR69       0.0417
     72  CZ        47.8550   18.7890  -26.9030 C.ar   69  TYR69       0.1957
     73  OH        48.4480   18.4710  -28.1050 O.3    69  TYR69      -0.2866
     74  N         42.9350   17.2280  -34.3050 N.3    73  TYR73      -0.1241
     75  CA        43.8680   17.5640  -35.3770 C.3    73  TYR73       0.1605
     76  C         44.2590   16.3670  -36.2250 C.2    73  TYR73       0.2264
     77  O         44.0740   15.2240  -35.8280 O.2    73  TYR73      -0.2867
     78  CB        45.1150   18.2610  -34.8300 C.3    73  TYR73       0.0534
     79  CG        46.0440   17.4310  -33.9460 C.ar   73  TYR73      -0.0201
     80  CD1       47.1320   16.7170  -34.4890 C.ar   73  TYR73      -0.0009
     81  CD2       45.8820   17.4350  -32.5720 C.ar   73  TYR73      -0.0009
     82  CE1       47.9900   16.0150  -33.6840 C.ar   73  TYR73       0.0417
     83  CE2       46.7340   16.7420  -31.7580 C.ar   73  TYR73       0.0417
     84  CZ        47.7890   16.0380  -32.3110 C.ar   73  TYR73       0.1957
     85  OH        48.6280   15.3570  -31.4450 O.3    73  TYR73      -0.2866
     86  N         46.8290   13.8100  -38.0840 N.3    75  VAL75      -0.1245
     87  CA        48.1520   13.2050  -38.0010 C.3    75  VAL75       0.1561
     88  C         48.3280   12.2500  -39.1730 C.2    75  VAL75       0.2260
     89  O         47.3750   11.6280  -39.6080 O.2    75  VAL75      -0.2867
     90  CB        48.3580   12.3920  -36.6850 C.3    75  VAL75       0.0252
     91  CG1       48.6310   13.2890  -35.5150 C.3    75  VAL75       0.0019
     92  CG2       47.1800   11.4960  -36.4190 C.3    75  VAL75       0.0019
     93  N         42.5780   13.0060  -34.9820 N.3    85  ILE85      -0.1245
     94  CA        42.6160   12.4750  -33.6260 C.3    85  ILE85       0.1561
     95  C         42.1720   13.5490  -32.6460 C.2    85  ILE85       0.2260
     96  O         42.4280   14.7340  -32.8660 O.2    85  ILE85      -0.2867
     97  CB        44.0340   11.9250  -33.2240 C.3    85  ILE85       0.0252
     98  CG1       45.1400   13.0050  -33.3440 C.3    85  ILE85       0.0019
     99  CG2       44.3750   10.6480  -34.0140 C.3    85  ILE85       0.0019
    100  CD1       46.4370   12.6510  -32.5860 C.3    85  ILE85       0.0001
    101  N         43.0500   14.5720  -28.8430 N.3    87  SER87      -0.1217
    102  CA        44.1070   14.3010  -27.8670 C.3    87  SER87       0.1889
    103  C         43.7920   15.1330  -26.6490 C.2    87  SER87       0.2288
    104  O         43.5240   16.3140  -26.7750 O.2    87  SER87      -0.2866
    105  CB        45.4900   14.6630  -28.4260 C.3    87  SER87       0.2089
    106  OG        46.5140   14.3680  -27.4990 O.3    87  SER87      -0.2183
    107  N         44.5660    9.4550  -26.8840 N.3   105  ILE105     -0.1245
    108  CA        44.0630    9.8920  -28.1710 C.3   105  ILE105      0.1561
    109  C         42.9530    8.9680  -28.6580 C.2   105  ILE105      0.2260
    110  O         42.8790    7.7970  -28.2980 O.2   105  ILE105     -0.2867
    111  CB        45.1400    9.9720  -29.2880 C.3   105  ILE105      0.0252
    112  CG1       45.7760    8.5990  -29.5550 C.3   105  ILE105      0.0019
    113  CG2       46.1390   11.0620  -28.9910 C.3   105  ILE105      0.0019
    114  CD1       46.6660    8.5720  -30.8010 C.3   105  ILE105      0.0001
@<TRIPOS>BOND
     1    89    88    2
     2    49    48    2
     3    88    87    1
     4    48    47    1
     5    43    42    2
     6    42    41    1
     7    42    46   am
     8    41    40    1
     9    41    44    1
    10    86    87    1
    11    87    90    1
    12    46    47    1
    13    47    50    1
    14    44    45    1
    15    90    92    1
    16    90    91    1
    17    51    50    1
    18    51    53    1
    19    50    52    1
    20    76    77    2
    21    76    75    1
    22    75    78    1
    23    75    74    1
    24    93    94    1
    25    78    79    1
    26    80    79   ar
    27    80    82   ar
    28    99    97    1
    29    79    81   ar
    30    82    84   ar
    31    94    97    1
    32    94    95    1
    33    98    97    1
    34    98   100    1
    35    96    95    2
    36    81    83   ar
    37    84    83   ar
    38    84    85    1
    39    32    31    2
    40    31    30    1
    41   114   112    1
    42    38    36   ar
    43    38    39   ar
    44    36    34   ar
    45    39    37   ar
    46    30    29    1
    47    30    33    1
    48   112   111    1
    49   111   113    1
    50   111   108    1
    51    34    33    1
    52    34    35   ar
    53   101   102    1
    54    37    35   ar
    55   109   110    2
    56   109   108    1
    57   105   102    1
    58   105   106    1
    59   108   107    1
    60    73    72    1
    61   102   103    1
    62    61    59    1
    63    72    70   ar
    64    72    71   ar
    65    54    55    1
    66   104   103    2
    67    58    59    1
    68    58    55    1
    69    70    68   ar
    70    71    69   ar
    71    59    60    1
    72    55    56    1
    73     7     9   ar
    74     7     6   ar
    75     9    10   ar
    76    68    67   ar
    77     5     6    1
    78     5     2    1
    79     6     8   ar
    80    23    21   ar
    81    23    24   ar
    82    56    57    2
    83    69    67   ar
    84    10     8   ar
    85    10    12   ar
    86    26    24   ar
    87    26    28   ar
    88    21    20   ar
    89     8    11   ar
    90    24    22   ar
    91    67    66    1
    92    12    14   ar
    93     2     1    1
    94     2     3    1
    95    28    27   ar
    96    64    65    2
    97    64    63    1
    98    11    13   ar
    99    20    22   ar
   100    20    19    1
   101    22    25   ar
   102    14    13   ar
   103    63    66    1
   104    63    62    1
   105    27    25   ar
   106    19    16    1
   107     3     4    2
   108    16    15    1
   109    16    17    1
   110    17    18    2
