@<TRIPOS>MOLECULE
tmp/3mrcA00.pdb
 200 192 0 0 0
SMALL
GASTEIGER

@<TRIPOS>ATOM
      1  N         -9.8000   -3.2500   13.8070 N.3     5  MET5       -0.1245
      2  CA        -9.9220   -2.3320   12.6780 C.3     5  MET5        0.1570
      3  C         -9.2820   -1.0290   13.1430 C.2     5  MET5        0.2261
      4  O         -9.6020   -0.5510   14.2280 O.2     5  MET5       -0.2867
      5  CB       -11.3720   -2.0700   12.2860 C.3     5  MET5        0.0387
      6  CG       -11.4380   -1.0870   11.0850 C.3     5  MET5        0.0595
      7  SD       -13.0640   -1.0100   10.3490 S.3     5  MET5       -0.1393
      8  CE       -13.9990   -0.0730   11.5490 C.3     5  MET5        0.0692
      9  N         -7.6980    2.9440   11.8630 N.3     7  TYR7       -0.1241
     10  CA        -7.4290    3.9590   10.8690 C.3     7  TYR7        0.1605
     11  C         -6.3370    4.8940   11.3530 C.2     7  TYR7        0.2264
     12  O         -6.3640    5.3150   12.5210 O.2     7  TYR7       -0.2867
     13  CB        -8.6700    4.8090   10.6000 C.3     7  TYR7        0.0534
     14  CG        -9.7380    4.1250    9.7610 C.ar    7  TYR7       -0.0201
     15  CD1      -10.8370    3.5120   10.3690 C.ar    7  TYR7       -0.0009
     16  CD2       -9.6660    4.1380    8.3490 C.ar    7  TYR7       -0.0009
     17  CE1      -11.8460    2.8840    9.6050 C.ar    7  TYR7        0.0417
     18  CE2      -10.6690    3.5260    7.5860 C.ar    7  TYR7        0.0417
     19  CZ       -11.7560    2.9100    8.2300 C.ar    7  TYR7        0.1957
     20  OH       -12.7720    2.3200    7.4890 O.3     7  TYR7       -0.2866
     21  N         -4.0540    8.4500   10.3930 N.3     9  PHE9       -0.1241
     22  CA        -4.2000    9.7140    9.6650 C.3     9  PHE9        0.1605
     23  C         -2.9830   10.5590    9.9340 C.2     9  PHE9        0.2264
     24  O         -2.5790   10.7060   11.0910 O.2     9  PHE9       -0.2867
     25  CB        -5.4470   10.5130   10.0960 C.3     9  PHE9        0.0534
     26  CG        -6.7230    9.7210   10.0770 C.ar    9  PHE9       -0.0203
     27  CD1       -7.1180    9.0020   11.1930 C.ar    9  PHE9       -0.0042
     28  CD2       -7.5260    9.6900    8.9470 C.ar    9  PHE9       -0.0042
     29  CE1       -8.2910    8.2380   11.1960 C.ar    9  PHE9       -0.0003
     30  CE2       -8.7230    8.9400    8.9270 C.ar    9  PHE9       -0.0003
     31  CZ        -9.1100    8.2030   10.0550 C.ar    9  PHE9       -0.0000
     32  N        -11.6100    7.9520   -1.5280 N.3    45  MET45      -0.1245
     33  CA       -11.1140    6.7710   -0.8310 C.3    45  MET45       0.1570
     34  C        -10.9910    5.6530   -1.8770 C.2    45  MET45       0.2261
     35  O        -11.9250    5.4550   -2.6790 O.2    45  MET45      -0.2867
     36  CB       -12.0850    6.3610    0.2620 C.3    45  MET45       0.0387
     37  CG       -11.5370    5.2740    1.1860 C.3    45  MET45       0.0595
     38  SD       -10.3280    5.9520    2.3390 S.3    45  MET45      -0.1393
     39  CE       -11.4220    6.3860    3.7090 C.3    45  MET45       0.0692
     40  N        -20.7560    2.9530   -0.6310 N.3    59  TYR59      -0.1241
     41  CA       -19.6810    2.8570    0.3460 C.3    59  TYR59       0.1605
     42  C        -18.5930    3.8760    0.0300 C.2    59  TYR59       0.2264
     43  O        -18.2170    4.6830    0.8740 O.2    59  TYR59      -0.2867
     44  CB       -19.0960    1.4280    0.3620 C.3    59  TYR59       0.0534
     45  CG       -17.9650    1.2530    1.3630 C.ar   59  TYR59      -0.0201
     46  CD1      -18.2300    0.9630    2.6970 C.ar   59  TYR59      -0.0009
     47  CD2      -16.6260    1.3690    0.9620 C.ar   59  TYR59      -0.0009
     48  CE1      -17.1800    0.7950    3.6260 C.ar   59  TYR59       0.0417
     49  CE2      -15.5930    1.2090    1.8550 C.ar   59  TYR59       0.0417
     50  CZ       -15.8640    0.9250    3.1810 C.ar   59  TYR59       0.1957
     51  OH       -14.8080    0.7680    4.0510 O.3    59  TYR59      -0.2866
     52  N        -17.5930    6.9620    2.4600 N.3    63  GLU63      -0.1245
     53  CA       -16.2440    6.9990    3.0380 C.3    63  GLU63       0.1567
     54  C        -15.4410    8.2020    2.5550 C.2    63  GLU63       0.2260
     55  O        -14.6900    8.7930    3.3350 O.2    63  GLU63      -0.2867
     56  CB       -15.4890    5.6780    2.8060 C.3    63  GLU63       0.0388
     57  CG       -16.1810    4.4940    3.4920 C.3    63  GLU63       0.1160
     58  CD       -16.3960    4.6920    4.9960 C.2    63  GLU63       0.3649
     59  OE1      -17.5560    4.7410    5.4490 O.co2  63  GLU63      -0.2457
     60  OE2      -15.4080    4.7800    5.7470 O.co2  63  GLU63      -0.2457
     61  N        -16.5820   11.4150    4.3960 N.3    66  LYS66      -0.1231
     62  CA       -16.0630   11.4490    5.7640 C.3    66  LYS66       0.1693
     63  C        -14.5690   11.7210    5.8100 C.2    66  LYS66       0.2591
     64  O        -14.0930   12.5100    6.6690 O.2    66  LYS66      -0.2718
     65  CB       -16.4190   10.1650    6.5380 C.3    66  LYS66       0.0285
     66  CG       -17.8990   10.0920    6.9460 C.3    66  LYS66       0.0035
     67  CD       -18.2370    8.7880    7.6630 C.3    66  LYS66       0.0206
     68  CE       -18.1290    7.5990    6.7200 C.3    66  LYS66       0.1093
     69  NZ       -18.4570    6.3370    7.4390 N.3    66  LYS66      -0.1314
     70  N        -13.8210   11.1070    4.8940 N.am   67  VAL67      -0.1980
     71  CA       -12.3680   11.2400    4.9620 C.3    67  VAL67       0.1595
     72  C        -11.9430   12.6530    4.5330 C.2    67  VAL67       0.2287
     73  O        -10.9780   13.2170    5.0600 O.2    67  VAL67      -0.2864
     74  CB       -11.6170   10.1270    4.1690 C.3    67  VAL67       0.0276
     75  CG1      -11.4990   10.4730    2.6840 C.3    67  VAL67       0.0022
     76  CG2      -10.2290    9.8850    4.7980 C.3    67  VAL67       0.0022
     77  N        -13.8050   15.3190    5.0680 N.3    69  ALA69      -0.1231
     78  CA       -14.1760   16.1430    6.2350 C.3    69  ALA69       0.1694
     79  C        -13.1450   16.0440    7.3690 C.2    69  ALA69       0.2592
     80  O        -12.8370   17.0340    8.0480 O.2    69  ALA69      -0.2718
     81  CB       -15.5670   15.7670    6.7540 C.3    69  ALA69       0.0304
     82  N        -12.6170   14.8400    7.5460 N.am   70  HIS70      -0.1976
     83  CA       -11.5210   14.5800    8.4740 C.3    70  HIS70       0.1656
     84  C        -10.2700   15.3940    8.0480 C.2    70  HIS70       0.2291
     85  O         -9.5980   15.9860    8.8930 O.2    70  HIS70      -0.2864
     86  CB       -11.2500   13.0770    8.4760 C.3    70  HIS70       0.0771
     87  CG       -10.5070   12.5840    9.6740 C.ar   70  HIS70       0.0820
     88  ND1      -10.8560   11.4270   10.3340 N.ar   70  HIS70      -0.2267
     89  CD2       -9.4180   13.0760   10.3150 C.ar   70  HIS70       0.1154
     90  CE1      -10.0200   11.2350   11.3430 C.ar   70  HIS70       0.1986
     91  NE2       -9.1420   12.2240   11.3570 N.ar   70  HIS70      -0.2212
     92  N        -10.8060   18.8680    9.2300 N.3    73  THR73      -0.1218
     93  CA       -10.6110   18.8810   10.6950 C.3    73  THR73       0.1862
     94  C         -9.1340   19.0200   11.0700 C.2    73  THR73       0.2287
     95  O         -8.7650   19.8710   11.8870 O.2    73  THR73      -0.2866
     96  CB       -11.2040   17.6090   11.3630 C.3    73  THR73       0.1770
     97  OG1      -12.6290   17.6210   11.2160 O.3    73  THR73      -0.2211
     98  CG2      -10.8620   17.5830   12.8360 C.3    73  THR73       0.0375
     99  N         -3.3110   10.9690   13.9660 N.3    97  ARG97      -0.1245
    100  CA        -4.4260   10.4330   14.7470 C.3    97  ARG97       0.1563
    101  C         -4.5190    8.9390   14.4400 C.2    97  ARG97       0.2260
    102  O         -4.3510    8.5370   13.2850 O.2    97  ARG97      -0.2867
    103  CB        -5.7370   11.1050   14.3400 C.3    97  ARG97       0.0307
    104  CG        -6.9520   10.6600   15.2390 C.3    97  ARG97       0.0489
    105  CD        -8.3080   11.1380   14.7350 C.3    97  ARG97       0.2205
    106  NE        -8.3040   12.4900   14.2160 N.pl3  97  ARG97      -0.0865
    107  CZ        -8.7580   13.5640   14.8610 C.cat  97  ARG97       0.5346
    108  NH1       -8.7130   14.7310   14.2490 N.pl3  97  ARG97       0.1354
    109  NH2       -9.2490   13.4890   16.1000 N.pl3  97  ARG97       0.1354
    110  N         -7.3750    5.7040   15.4060 N.3    99  TYR99      -0.1241
    111  CA        -8.4860    5.1740   16.1820 C.3    99  TYR99       0.1605
    112  C         -8.9360    3.8300   15.6150 C.2    99  TYR99       0.2264
    113  O         -8.5910    3.4480   14.4850 O.2    99  TYR99      -0.2867
    114  CB        -9.6490    6.1610   16.2970 C.3    99  TYR99       0.0534
    115  CG       -10.4060    6.4340   15.0180 C.ar   99  TYR99      -0.0201
    116  CD1      -11.3600    5.5220   14.5250 C.ar   99  TYR99      -0.0009
    117  CD2      -10.2140    7.6020   14.3310 C.ar   99  TYR99      -0.0009
    118  CE1      -12.0680    5.7790   13.3380 C.ar   99  TYR99       0.0417
    119  CE2      -10.9170    7.8770   13.1590 C.ar   99  TYR99       0.0417
    120  CZ       -11.8400    6.9690   12.6730 C.ar   99  TYR99       0.1957
    121  OH       -12.5130    7.2830   11.5130 O.3    99  TYR99      -0.2866
    122  N         -8.5380    5.8720   20.6420 N.3   114  HIS114     -0.1241
    123  CA        -8.5100    7.0700   19.8420 C.3   114  HIS114      0.1621
    124  C         -7.3570    7.8900   20.4120 C.2   114  HIS114      0.2264
    125  O         -7.4810    8.4370   21.5200 O.2   114  HIS114     -0.2867
    126  CB        -9.8200    7.8470   19.9690 C.3   114  HIS114      0.0745
    127  CG        -9.8260    9.1320   19.1930 C.ar  114  HIS114      0.0817
    128  ND1       -8.9650   10.1740   19.4740 N.ar  114  HIS114     -0.2268
    129  CD2      -10.5820    9.5440   18.1460 C.ar  114  HIS114      0.1154
    130  CE1       -9.1840   11.1670   18.6280 C.ar  114  HIS114      0.1986
    131  NE2      -10.1640   10.8120   17.8150 N.ar  114  HIS114     -0.2212
    132  N        -17.6980   14.7010   23.2840 N.3   152  VAL152     -0.1245
    133  CA       -17.0430   13.9540   22.2310 C.3   152  VAL152      0.1561
    134  C        -16.8290   12.4870   22.6070 C.2   152  VAL152      0.2260
    135  O        -17.0450   11.5950   21.7860 O.2   152  VAL152     -0.2867
    136  CB       -15.7010   14.5890   21.8460 C.3   152  VAL152      0.0252
    137  CG1      -15.0310   13.7740   20.7370 C.3   152  VAL152      0.0019
    138  CG2      -15.9280   16.0280   21.3920 C.3   152  VAL152      0.0019
    139  N        -19.9260   10.3380   21.9350 N.3   155  GLN155     -0.1231
    140  CA       -20.1220   10.1190   20.5140 C.3   155  GLN155      0.1698
    141  C        -19.1850    9.0120   20.0160 C.2   155  GLN155      0.2592
    142  O        -19.6100    8.0800   19.3150 O.2   155  GLN155     -0.2718
    143  CB       -19.9360   11.4330   19.7540 C.3   155  GLN155      0.0381
    144  CG       -21.0620   12.4330   20.0340 C.3   155  GLN155      0.0905
    145  CD       -20.6260   13.8880   19.8880 C.2   155  GLN155      0.2608
    146  OE1      -20.0870   14.2880   18.8510 O.2   155  GLN155     -0.2717
    147  NE2      -20.8500   14.6850   20.9390 N.am  155  GLN155     -0.0878
    148  N        -17.9220    9.1010   20.4190 N.am  156  LEU156     -0.1980
    149  CA       -16.9070    8.1600   19.9600 C.3   156  LEU156      0.1596
    150  C        -17.1780    6.7820   20.5450 C.2   156  LEU156      0.2287
    151  O        -16.9980    5.7740   19.8780 O.2   156  LEU156     -0.2864
    152  CB       -15.5050    8.6260   20.3830 C.3   156  LEU156      0.0297
    153  CG       -14.8450    9.8000   19.6510 C.3   156  LEU156      0.0022
    154  CD1      -13.3910   10.0230   20.1550 C.3   156  LEU156      0.0001
    155  CD2      -14.8500    9.5360   18.1580 C.3   156  LEU156      0.0001
    156  N        -19.8200    4.9860   18.6010 N.3   159  TYR159     -0.1241
    157  CA       -19.2440    4.4900   17.3490 C.3   159  TYR159      0.1605
    158  C        -18.4040    3.2440   17.6040 C.2   159  TYR159      0.2264
    159  O        -18.5660    2.2190   16.9280 O.2   159  TYR159     -0.2867
    160  CB       -18.4200    5.5810   16.6300 C.3   159  TYR159      0.0534
    161  CG       -17.4430    5.0340   15.5880 C.ar  159  TYR159     -0.0201
    162  CD1      -17.8510    4.7780   14.2670 C.ar  159  TYR159     -0.0009
    163  CD2      -16.1110    4.8030   15.9200 C.ar  159  TYR159     -0.0009
    164  CE1      -16.9490    4.2800   13.3100 C.ar  159  TYR159      0.0417
    165  CE2      -15.1930    4.3040   14.9770 C.ar  159  TYR159      0.0417
    166  CZ       -15.6230    4.0420   13.6780 C.ar  159  TYR159      0.1957
    167  OH       -14.7190    3.5490   12.7470 O.3   159  TYR159     -0.2866
    168  N        -21.1110    0.9070   15.4250 N.3   163  THR163     -0.1218
    169  CA       -20.7530    0.9140   14.0180 C.3   163  THR163      0.1862
    170  C        -19.3830    0.2750   13.7720 C.2   163  THR163      0.2287
    171  O        -19.2300   -0.5390   12.8840 O.2   163  THR163     -0.2866
    172  CB       -20.7440    2.3460   13.4930 C.3   163  THR163      0.1770
    173  OG1      -22.0660    2.8910   13.6180 O.3   163  THR163     -0.2211
    174  CG2      -20.2670    2.4010   12.0210 C.3   163  THR163      0.0375
    175  N        -18.9960   -3.1230   11.5140 N.3   167  TRP167     -0.1241
    176  CA       -18.3150   -3.1270   10.2380 C.3   167  TRP167      0.1605
    177  C        -17.0610   -4.0080   10.2180 C.2   167  TRP167      0.2264
    178  O        -16.7670   -4.6560    9.2090 O.2   167  TRP167     -0.2867
    179  CB       -18.0610   -1.6930    9.7660 C.3   167  TRP167      0.0550
    180  CG       -19.3200   -1.1520    9.1740 C.ar  167  TRP167      0.0003
    181  CD1      -20.4020   -0.6740    9.8630 C.ar  167  TRP167      0.0946
    182  CD2      -19.6740   -1.1160    7.7840 C.ar  167  TRP167      0.0152
    183  NE1      -21.3940   -0.3060    8.9770 N.ar  167  TRP167     -0.2442
    184  CE2      -20.9770   -0.5750    7.6980 C.ar  167  TRP167      0.0810
    185  CE3      -19.0150   -1.4740    6.6040 C.ar  167  TRP167      0.0012
    186  CZ2      -21.6280   -0.3700    6.4740 C.ar  167  TRP167      0.0191
    187  CZ3      -19.6750   -1.2760    5.3790 C.ar  167  TRP167      0.0001
    188  CH2      -20.9610   -0.7250    5.3330 C.ar  167  TRP167      0.0015
    189  N        -16.4370   -6.8970    7.5270 N.3   171  TYR171     -0.1241
    190  CA       -15.1720   -7.0730    6.7960 C.3   171  TYR171      0.1605
    191  C        -14.5290   -8.4400    7.0150 C.2   171  TYR171      0.2264
    192  O        -14.0070   -9.0460    6.0800 O.2   171  TYR171     -0.2867
    193  CB       -14.1440   -6.0030    7.1810 C.3   171  TYR171      0.0534
    194  CG       -14.5670   -4.5540    6.9450 C.ar  171  TYR171     -0.0201
    195  CD1      -15.4270   -4.2060    5.8920 C.ar  171  TYR171     -0.0009
    196  CD2      -14.0680   -3.5350    7.7530 C.ar  171  TYR171     -0.0009
    197  CE1      -15.7970   -2.8490    5.6790 C.ar  171  TYR171      0.0417
    198  CE2      -14.4280   -2.1870    7.5530 C.ar  171  TYR171      0.0417
    199  CZ       -15.2780   -1.8550    6.5090 C.ar  171  TYR171      0.1957
    200  OH       -15.6120   -0.5310    6.3180 O.3   171  TYR171     -0.2866
@<TRIPOS>BOND
     1    35    34    2
     2    34    33    1
     3    32    33    1
     4    33    36    1
     5    40    41    1
     6    42    41    1
     7    42    43    2
     8    36    37    1
     9    41    44    1
    10    44    45    1
    11    47    45   ar
    12    47    49   ar
    13    37    38    1
    14    45    46   ar
    15    49    50   ar
    16    38    39    1
    17    52    53    1
    18    54    53    1
    19    54    55    2
    20    75    74    1
    21    46    48   ar
    22    56    53    1
    23    56    57    1
    24    50    48   ar
    25    50    51    1
    26    57    58    1
    27    74    76    1
    28    74    71    1
    29    61    62    1
    30    72    71    1
    31    72    73    2
    32    70    71    1
    33    70    63   am
    34    58    59   ar
    35    58    60   ar
    36    77    78    1
    37   188   187   ar
    38   188   186   ar
    39   187   185   ar
    40   197   195   ar
    41   197   199   ar
    42    62    63    1
    43    62    65    1
    44    63    64    2
    45   195   194   ar
    46   192   191    2
    47    78    81    1
    48    78    79    1
    49   200   199    1
    50   186   184   ar
    51   199   198   ar
    52    65    66    1
    53   185   182   ar
    54    68    69    1
    55    68    67    1
    56   190   191    1
    57   190   193    1
    58   190   189    1
    59   194   193    1
    60   194   196   ar
    61    66    67    1
    62    79    82   am
    63    79    80    2
    64    20    19    1
    65    82    83    1
    66   198   196   ar
    67    18    19   ar
    68    18    16   ar
    69   184   182   ar
    70   184   183   ar
    71   182   180   ar
    72    84    83    1
    73    84    85    2
    74    19    17   ar
    75    16    14   ar
    76    83    86    1
    77    86    87    1
    78    30    28   ar
    79    30    31   ar
    80    28    26   ar
    81   183   181   ar
    82   180   179    1
    83   180   181   ar
    84   178   177    2
    85    92    93    1
    86    17    15   ar
    87    22    23    1
    88    22    25    1
    89    22    21    1
    90    87    89   ar
    91    87    88   ar
    92    14    15   ar
    93    14    13    1
    94   179   176    1
    95    23    24    2
    96    31    29   ar
    97    26    25    1
    98    26    27   ar
    99   177   176    1
   100   176   175    1
   101    89    91   ar
   102    88    90   ar
   103     7     6    1
   104     7     8    1
   105    13    10    1
   106    93    94    1
   107    93    96    1
   108    10    11    1
   109    10     9    1
   110    94    95    2
   111     6     5    1
   112    27    29   ar
   113    97    96    1
   114    90    91   ar
   115    11    12    2
   116    96    98    1
   117   121   120    1
   118   174   172    1
   119     5     2    1
   120   120   119   ar
   121   120   118   ar
   122     2     3    1
   123     2     1    1
   124   167   166    1
   125   171   170    2
   126     3     4    2
   127   119   117   ar
   128   102   101    2
   129   164   166   ar
   130   164   162   ar
   131   118   116   ar
   132   172   173    1
   133   172   169    1
   134   166   165   ar
   135   170   169    1
   136    99   100    1
   137   169   168    1
   138   106   105    1
   139   106   107    2
   140   108   107    1
   141   162   161   ar
   142   117   115   ar
   143   103   100    1
   144   103   104    1
   145   101   100    1
   146   113   112    2
   147   116   115   ar
   148   105   104    1
   149   107   109    1
   150   165   163   ar
   151   115   114    1
   152   110   111    1
   153   161   163   ar
   154   161   160    1
   155   112   111    1
   156   111   114    1
   157   160   157    1
   158   159   158    2
   159   157   158    1
   160   157   156    1
   161   131   129   ar
   162   131   130   ar
   163   129   127   ar
   164   155   153    1
   165   130   128   ar
   166   146   145    2
   167   127   128   ar
   168   127   126    1
   169   142   141    2
   170   153   154    1
   171   153   152    1
   172   143   144    1
   173   143   140    1
   174   123   126    1
   175   123   124    1
   176   123   122    1
   177   151   150    2
   178   145   144    1
   179   145   147   am
   180   149   152    1
   181   149   148    1
   182   149   150    1
   183   141   148   am
   184   141   140    1
   185   124   125    2
   186   140   139    1
   187   137   136    1
   188   138   136    1
   189   135   134    2
   190   136   133    1
   191   133   134    1
   192   133   132    1
