@<TRIPOS>MOLECULE
tmp/3mrdA00.pdb
 170 165 0 0 0
SMALL
GASTEIGER

@<TRIPOS>ATOM
      1  N         -8.8680   -2.9970   14.0120 N.3     5  MET5       -0.1245
      2  CA        -8.9760   -2.0390   12.9170 C.3     5  MET5        0.1570
      3  C         -8.3030   -0.7760   13.4060 C.2     5  MET5        0.2261
      4  O         -8.5190   -0.3650   14.5400 O.2     5  MET5       -0.2867
      5  CB       -10.4320   -1.7880   12.5280 C.3     5  MET5        0.0387
      6  CG       -10.5390   -0.8820   11.3320 C.3     5  MET5        0.0595
      7  SD       -12.2090   -0.8330   10.6960 S.3     5  MET5       -0.1393
      8  CE       -12.9780    0.2360   11.8640 C.3     5  MET5        0.0692
      9  N         -6.7150    3.2610   12.1880 N.3     7  TYR7       -0.1241
     10  CA        -6.4940    4.2920   11.1820 C.3     7  TYR7        0.1605
     11  C         -5.3340    5.1610   11.6330 C.2     7  TYR7        0.2264
     12  O         -5.2020    5.4510   12.8350 O.2     7  TYR7       -0.2867
     13  CB        -7.7390    5.1540   11.0460 C.3     7  TYR7        0.0534
     14  CG        -8.8490    4.5440   10.2420 C.ar    7  TYR7       -0.0201
     15  CD1       -9.9070    3.9100   10.8640 C.ar    7  TYR7       -0.0009
     16  CD2       -8.8290    4.6200    8.8590 C.ar    7  TYR7       -0.0009
     17  CE1      -10.9560    3.3510   10.1040 C.ar    7  TYR7        0.0417
     18  CE2       -9.8650    4.0740    8.0910 C.ar    7  TYR7        0.0417
     19  CZ       -10.9090    3.4460    8.7240 C.ar    7  TYR7        0.1957
     20  OH       -11.9200    2.9270    7.9250 O.3     7  TYR7       -0.2866
     21  N         -3.0710    8.7710   10.6650 N.3     9  PHE9       -0.1241
     22  CA        -3.1710   10.0300    9.9070 C.3     9  PHE9        0.1605
     23  C         -1.9180   10.8460   10.1800 C.2     9  PHE9        0.2264
     24  O         -1.4940   10.9400   11.3400 O.2     9  PHE9       -0.2867
     25  CB        -4.3420   10.8600   10.4440 C.3     9  PHE9        0.0534
     26  CG        -5.6520   10.1240   10.4720 C.ar    9  PHE9       -0.0203
     27  CD1       -5.9960    9.3470   11.5820 C.ar    9  PHE9       -0.0042
     28  CD2       -6.5010   10.1450    9.3670 C.ar    9  PHE9       -0.0042
     29  CE1       -7.2090    8.6420   11.6270 C.ar    9  PHE9       -0.0003
     30  CE2       -7.7300    9.4310    9.3810 C.ar    9  PHE9       -0.0003
     31  CZ        -8.0650    8.6680   10.5030 C.ar    9  PHE9       -0.0000
     32  N        -11.2360    8.8510   -0.9710 N.3    45  MET45      -0.1245
     33  CA       -10.6770    7.6840   -0.2430 C.3    45  MET45       0.1570
     34  C        -10.6160    6.5920   -1.2930 C.2    45  MET45       0.2261
     35  O        -11.6030    6.4280   -2.0360 O.2    45  MET45      -0.2867
     36  CB       -11.6370    7.2260    0.8610 C.3    45  MET45       0.0387
     37  CG       -11.0670    6.1190    1.7280 C.3    45  MET45       0.0595
     38  SD        -9.7960    6.8070    2.8160 S.3    45  MET45      -0.1393
     39  CE       -10.6220    6.8080    4.3880 C.3    45  MET45       0.0692
     40  N        -20.6950    4.4160    0.5640 N.3    59  TYR59      -0.1241
     41  CA       -19.5950    4.1890    1.5170 C.3    59  TYR59       0.1605
     42  C        -18.4550    5.1160    1.1410 C.2    59  TYR59       0.2264
     43  O        -17.9290    5.8540    2.0030 O.2    59  TYR59      -0.2867
     44  CB       -19.1610    2.7180    1.5300 C.3    59  TYR59       0.0534
     45  CG       -17.9050    2.4180    2.3480 C.ar   59  TYR59      -0.0201
     46  CD1      -17.9870    2.0830    3.6940 C.ar   59  TYR59      -0.0009
     47  CD2      -16.6480    2.4460    1.7440 C.ar   59  TYR59      -0.0009
     48  CE1      -16.8270    1.7810    4.4410 C.ar   59  TYR59       0.0417
     49  CE2      -15.4900    2.1630    2.4810 C.ar   59  TYR59       0.0417
     50  CZ       -15.5990    1.8440    3.8240 C.ar   59  TYR59       0.1957
     51  OH       -14.4830    1.5570    4.5810 O.3    59  TYR59      -0.2866
     52  N        -16.8340    8.0370    3.3420 N.3    63  GLU63      -0.1245
     53  CA       -15.4650    8.0110    3.8490 C.3    63  GLU63       0.1567
     54  C        -14.6630    9.1920    3.3300 C.2    63  GLU63       0.2260
     55  O        -13.8350    9.7330    4.0590 O.2    63  GLU63      -0.2867
     56  CB       -14.7970    6.6870    3.5140 C.3    63  GLU63       0.0388
     57  CG       -15.5850    5.5280    4.0770 C.3    63  GLU63       0.1160
     58  CD       -15.6960    5.5750    5.6070 C.2    63  GLU63       0.3649
     59  OE1      -16.8390    5.6490    6.1070 O.co2  63  GLU63      -0.2457
     60  OE2      -14.6510    5.5420    6.3190 O.co2  63  GLU63      -0.2457
     61  N        -15.6620   12.2630    5.3980 N.3    66  LYS66      -0.1231
     62  CA       -15.0400   12.2140    6.7220 C.3    66  LYS66       0.1693
     63  C        -13.5340   12.4510    6.6840 C.2    66  LYS66       0.2591
     64  O        -13.0060   13.1680    7.5460 O.2    66  LYS66      -0.2718
     65  CB       -15.3650   10.9020    7.4320 C.3    66  LYS66       0.0285
     66  CG       -16.8520   10.7930    7.7860 C.3    66  LYS66       0.0035
     67  CD       -17.1300    9.5150    8.5740 C.3    66  LYS66       0.0206
     68  CE       -17.0470    8.3230    7.6750 C.3    66  LYS66       0.1093
     69  NZ       -17.4930    7.1130    8.4350 N.3    66  LYS66      -0.1314
     70  N        -12.8370   11.8950    5.6940 N.am   67  VAL67      -0.1980
     71  CA       -11.3860   12.0100    5.6950 C.3    67  VAL67       0.1595
     72  C        -10.9630   13.4420    5.3190 C.2    67  VAL67       0.2287
     73  O         -9.9770   13.9450    5.8440 O.2    67  VAL67      -0.2864
     74  CB       -10.7130   10.8740    4.8710 C.3    67  VAL67       0.0276
     75  CG1      -10.6170   11.2210    3.4070 C.3    67  VAL67       0.0022
     76  CG2       -9.3100   10.5390    5.4330 C.3    67  VAL67       0.0022
     77  N        -11.3720   15.3820    8.3760 N.3    70  HIS70      -0.1241
     78  CA       -10.2090   15.0430    9.2260 C.3    70  HIS70       0.1621
     79  C         -9.0240   15.9270    8.8400 C.2    70  HIS70       0.2264
     80  O         -8.3060   16.4480    9.6950 O.2    70  HIS70      -0.2867
     81  CB        -9.7660   13.5770    9.0320 C.3    70  HIS70       0.0745
     82  CG       -10.4900   12.5720    9.8800 C.ar   70  HIS70       0.0817
     83  ND1      -11.8590   12.4330    9.8720 N.ar   70  HIS70      -0.2268
     84  CD2      -10.0220   11.6100   10.7130 C.ar   70  HIS70       0.1154
     85  CE1      -12.2080   11.4500   10.6840 C.ar   70  HIS70       0.1986
     86  NE2      -11.1120   10.9300   11.2090 N.ar   70  HIS70      -0.2212
     87  N         -6.1350    5.9210   15.7450 N.3    99  TYR99      -0.1241
     88  CA        -7.1440    5.3500   16.6030 C.3    99  TYR99       0.1605
     89  C         -7.5870    4.0020   16.0850 C.2    99  TYR99       0.2264
     90  O         -7.3270    3.6360   14.9460 O.2    99  TYR99      -0.2867
     91  CB        -8.3370    6.2730   16.7380 C.3    99  TYR99       0.0534
     92  CG        -9.0750    6.6630   15.4870 C.ar   99  TYR99      -0.0201
     93  CD1       -9.9660    5.7730   14.8810 C.ar   99  TYR99      -0.0009
     94  CD2       -8.9500    7.9550   14.9440 C.ar   99  TYR99      -0.0009
     95  CE1      -10.6920    6.1440   13.7540 C.ar   99  TYR99       0.0417
     96  CE2       -9.6630    8.3180   13.8030 C.ar   99  TYR99       0.0417
     97  CZ       -10.5250    7.4040   13.2100 C.ar   99  TYR99       0.1957
     98  OH       -11.2470    7.8010   12.0960 O.3    99  TYR99      -0.2866
     99  N         -6.8780    5.9470   21.1170 N.3   114  HIS114     -0.1241
    100  CA        -6.9450    7.1660   20.3240 C.3   114  HIS114      0.1621
    101  C         -5.7700    7.9800   20.8530 C.2   114  HIS114      0.2264
    102  O         -5.7220    8.3160   22.0480 O.2   114  HIS114     -0.2867
    103  CB        -8.2780    7.9080   20.4480 C.3   114  HIS114      0.0745
    104  CG        -8.3410    9.1930   19.6760 C.ar  114  HIS114      0.0817
    105  ND1       -7.6990   10.3440   20.0870 N.ar  114  HIS114     -0.2268
    106  CD2       -9.0090    9.5210   18.5440 C.ar  114  HIS114      0.1154
    107  CE1       -7.9280   11.3090   19.2130 C.ar  114  HIS114      0.1986
    108  NE2       -8.7360   10.8400   18.2790 N.ar  114  HIS114     -0.2212
    109  N        -17.9920   10.7040   22.7590 N.3   155  GLN155     -0.1231
    110  CA       -18.2080   10.4220   21.3410 C.3   155  GLN155      0.1698
    111  C        -17.2730    9.3140   20.8590 C.2   155  GLN155      0.2592
    112  O        -17.6850    8.4120   20.1340 O.2   155  GLN155     -0.2718
    113  CB       -17.9850   11.6670   20.4940 C.3   155  GLN155      0.0381
    114  CG       -18.9650   12.7980   20.7820 C.3   155  GLN155      0.0905
    115  CD       -18.6790   14.0460   19.9740 C.2   155  GLN155      0.2608
    116  OE1      -17.5280   14.4900   19.8530 O.2   155  GLN155     -0.2717
    117  NE2      -19.7290   14.6330   19.4250 N.am  155  GLN155     -0.0878
    118  N        -16.0080    9.4050   21.2470 N.am  156  LEU156     -0.1980
    119  CA       -15.0090    8.4620   20.7720 C.3   156  LEU156      0.1596
    120  C        -15.2480    7.0860   21.3680 C.2   156  LEU156      0.2287
    121  O        -15.1040    6.0720   20.6760 O.2   156  LEU156     -0.2864
    122  CB       -13.5920    8.9510   21.0930 C.3   156  LEU156      0.0297
    123  CG       -13.0520   10.1340   20.2930 C.3   156  LEU156      0.0022
    124  CD1      -11.6920   10.5050   20.8870 C.3   156  LEU156      0.0001
    125  CD2      -12.9030    9.8040   18.8060 C.3   156  LEU156      0.0001
    126  N        -17.9830    5.3080   19.5140 N.3   159  TYR159     -0.1241
    127  CA       -17.4810    4.8410   18.2370 C.3   159  TYR159      0.1605
    128  C        -16.6100    3.6170   18.4460 C.2   159  TYR159      0.2264
    129  O        -16.7590    2.6190   17.7400 O.2   159  TYR159     -0.2867
    130  CB       -16.6810    5.9510   17.5180 C.3   159  TYR159      0.0534
    131  CG       -15.8470    5.4450   16.3480 C.ar  159  TYR159     -0.0201
    132  CD1      -16.4000    5.2900   15.0780 C.ar  159  TYR159     -0.0009
    133  CD2      -14.5130    5.1010   16.5290 C.ar  159  TYR159     -0.0009
    134  CE1      -15.6330    4.8040   14.0150 C.ar  159  TYR159      0.0417
    135  CE2      -13.7350    4.6160   15.4830 C.ar  159  TYR159      0.0417
    136  CZ       -14.2910    4.4630   14.2350 C.ar  159  TYR159      0.1957
    137  OH       -13.5100    3.9940   13.1940 O.3   159  TYR159     -0.2866
    138  N        -19.4100    1.2650   16.6300 N.3   163  THR163     -0.1218
    139  CA       -19.2410    1.3310   15.1840 C.3   163  THR163      0.1862
    140  C        -17.9450    0.6670   14.7370 C.2   163  THR163      0.2287
    141  O        -17.9480   -0.1180   13.8020 O.2   163  THR163     -0.2866
    142  CB       -19.2540    2.7970   14.7050 C.3   163  THR163      0.1770
    143  OG1      -20.5640    3.3430   14.9210 O.3   163  THR163     -0.2211
    144  CG2      -18.9050    2.9070   13.2250 C.3   163  THR163      0.0375
    145  N        -18.0630   -2.5340   12.2730 N.3   167  TRP167     -0.1241
    146  CA       -17.4890   -2.5080   10.9490 C.3   167  TRP167      0.1605
    147  C        -16.2880   -3.4300   10.7930 C.2   167  TRP167      0.2264
    148  O        -16.0940   -3.9790    9.7130 O.2   167  TRP167     -0.2867
    149  CB       -17.1940   -1.0710   10.4750 C.3   167  TRP167      0.0550
    150  CG       -18.4800   -0.3890   10.0500 C.ar  167  TRP167      0.0003
    151  CD1      -19.4350    0.1570   10.8790 C.ar  167  TRP167      0.0946
    152  CD2      -18.9780   -0.2410    8.7160 C.ar  167  TRP167      0.0152
    153  NE1      -20.4880    0.6500   10.1290 N.ar  167  TRP167     -0.2442
    154  CE2      -20.2250    0.4240    8.8010 C.ar  167  TRP167      0.0810
    155  CE3      -18.4850   -0.5940    7.4510 C.ar  167  TRP167      0.0012
    156  CZ2      -20.9920    0.7280    7.6630 C.ar  167  TRP167      0.0191
    157  CZ3      -19.2420   -0.2850    6.3180 C.ar  167  TRP167      0.0001
    158  CH2      -20.4790    0.3750    6.4350 C.ar  167  TRP167      0.0015
    159  N        -16.0060   -6.2050    7.8040 N.3   171  TYR171     -0.1241
    160  CA       -14.8260   -6.4290    7.0030 C.3   171  TYR171      0.1605
    161  C        -14.2740   -7.8370    7.1310 C.2   171  TYR171      0.2264
    162  O        -13.9190   -8.4300    6.1260 O.2   171  TYR171     -0.2867
    163  CB       -13.7360   -5.4040    7.3200 C.3   171  TYR171      0.0534
    164  CG       -14.1380   -3.9270    7.1460 C.ar  171  TYR171     -0.0201
    165  CD1      -15.0660   -3.5110    6.1740 C.ar  171  TYR171     -0.0009
    166  CD2      -13.5690   -2.9680    7.9420 C.ar  171  TYR171     -0.0009
    167  CE1      -15.4020   -2.1260    6.0240 C.ar  171  TYR171      0.0417
    168  CE2      -13.8970   -1.6050    7.8060 C.ar  171  TYR171      0.0417
    169  CZ       -14.8060   -1.1980    6.8610 C.ar  171  TYR171      0.1957
    170  OH       -15.0830    0.1480    6.7550 O.3   171  TYR171     -0.2866
@<TRIPOS>BOND
     1    35    34    2
     2    34    33    1
     3    32    33    1
     4    33    36    1
     5    40    41    1
     6    36    37    1
     7    42    41    1
     8    42    43    2
     9    41    44    1
    10    44    45    1
    11    37    38    1
    12    47    45   ar
    13    47    49   ar
    14    45    46   ar
    15    49    50   ar
    16    38    39    1
    17    54    53    1
    18    54    55    2
    19    52    53    1
    20    75    74    1
    21    56    53    1
    22    56    57    1
    23    46    48   ar
    24    50    48   ar
    25    50    51    1
    26    57    58    1
    27    74    76    1
    28    74    71    1
    29    72    71    1
    30    72    73    2
    31    61    62    1
    32    58    59   ar
    33    58    60   ar
    34    70    71    1
    35    70    63   am
    36   167   165   ar
    37   167   169   ar
    38   162   161    2
    39   165   164   ar
    40   157   158   ar
    41   157   155   ar
    42   158   156   ar
    43    63    62    1
    44    63    64    2
    45    62    65    1
    46   170   169    1
    47   169   168   ar
    48   160   161    1
    49   160   163    1
    50   160   159    1
    51   164   163    1
    52   164   166   ar
    53    65    66    1
    54   155   152   ar
    55   156   154   ar
    56    68    69    1
    57    68    67    1
    58    66    67    1
    59   168   166   ar
    60    20    19    1
    61    18    19   ar
    62    18    16   ar
    63    77    78    1
    64   152   154   ar
    65   152   150   ar
    66    19    17   ar
    67   154   153   ar
    68    79    78    1
    69    79    80    2
    70    16    14   ar
    71    81    78    1
    72    81    82    1
    73    28    30   ar
    74    28    26   ar
    75    30    31   ar
    76   148   147    2
    77    83    82   ar
    78    83    85   ar
    79    82    84   ar
    80    22    23    1
    81    22    25    1
    82    22    21    1
    83   150   149    1
    84   150   151   ar
    85    17    15   ar
    86   153   151   ar
    87    23    24    2
    88    14    15   ar
    89    14    13    1
    90    25    26    1
    91    26    27   ar
    92   149   146    1
    93    31    29   ar
    94    85    86   ar
    95     7     6    1
    96     7     8    1
    97    84    86   ar
    98   147   146    1
    99   146   145    1
   100    13    10    1
   101    10    11    1
   102    10     9    1
   103     6     5    1
   104    27    29   ar
   105    11    12    2
   106    98    97    1
   107     5     2    1
   108     2     3    1
   109     2     1    1
   110   137   136    1
   111    97    95   ar
   112    97    96   ar
   113   144   142    1
   114     3     4    2
   115    95    93   ar
   116   141   140    2
   117    96    94   ar
   118   134   136   ar
   119   134   132   ar
   120   136   135   ar
   121   142   143    1
   122   142   139    1
   123   140   139    1
   124    93    92   ar
   125    94    92   ar
   126    90    89    2
   127   132   131   ar
   128   139   138    1
   129   135   133   ar
   130    92    91    1
   131    87    88    1
   132    89    88    1
   133   131   133   ar
   134   131   130    1
   135    88    91    1
   136   130   127    1
   137   129   128    2
   138   127   128    1
   139   127   126    1
   140   108   106   ar
   141   108   107   ar
   142   106   104   ar
   143   125   123    1
   144   107   105   ar
   145   117   115   am
   146   104   105   ar
   147   104   103    1
   148   116   115    2
   149   115   114    1
   150   112   111    2
   151   123   124    1
   152   123   122    1
   153   100   103    1
   154   100   101    1
   155   100    99    1
   156   113   114    1
   157   113   110    1
   158   121   120    2
   159   119   122    1
   160   119   118    1
   161   119   120    1
   162   101   102    2
   163   111   118   am
   164   111   110    1
   165   110   109    1
