@<TRIPOS>MOLECULE
tmp/3mriA00.pdb
 189 181 0 0 0
SMALL
GASTEIGER

@<TRIPOS>ATOM
      1  N        -16.8140   11.9730    4.6530 N.3    66  LYS66      -0.1245
      2  CA       -16.2890   11.9490    6.0220 C.3    66  LYS66       0.1561
      3  C        -14.8000   12.2240    6.1430 C.2    66  LYS66       0.2260
      4  O        -14.3830   12.8830    7.0800 O.2    66  LYS66      -0.2867
      5  CB       -16.6320   10.6320    6.7160 C.3    66  LYS66       0.0271
      6  CG       -18.1230   10.4950    7.0360 C.3    66  LYS66       0.0035
      7  CD       -18.4710    9.1730    7.6940 C.3    66  LYS66       0.0206
      8  CE       -18.2850    7.9860    6.7530 C.3    66  LYS66       0.1093
      9  NZ       -18.7420    6.6930    7.3580 N.3    66  LYS66      -0.1314
     10  N        -13.8040   15.8460    5.3840 N.3    69  ALA69      -0.1231
     11  CA       -14.1720   16.5810    6.5860 C.3    69  ALA69       0.1694
     12  C        -13.0620   16.5090    7.6170 C.2    69  ALA69       0.2592
     13  O        -12.7850   17.4810    8.3090 O.2    69  ALA69      -0.2718
     14  CB       -15.4730   16.0300    7.1670 C.3    69  ALA69       0.0304
     15  N        -12.4270   15.3430    7.7080 N.am   70  HIS70      -0.1976
     16  CA       -11.3580   15.0870    8.6600 C.3    70  HIS70       0.1656
     17  C        -10.1150   15.8830    8.3000 C.2    70  HIS70       0.2291
     18  O         -9.4240   16.3890    9.1850 O.2    70  HIS70      -0.2864
     19  CB       -11.0360   13.5920    8.7110 C.3    70  HIS70       0.0771
     20  CG       -10.6300   13.0970   10.0690 C.ar   70  HIS70       0.0820
     21  ND1      -11.3340   12.1160   10.7430 N.ar   70  HIS70      -0.2267
     22  CD2       -9.6030   13.4520   10.8840 C.ar   70  HIS70       0.1154
     23  CE1      -10.7580   11.8940   11.9150 C.ar   70  HIS70       0.1986
     24  NE2       -9.7080   12.6900   12.0260 N.ar   70  HIS70      -0.2212
     25  N        -10.7020   19.3900    9.5490 N.3    73  THR73      -0.1218
     26  CA       -10.5300   19.4730   11.0060 C.3    73  THR73       0.1862
     27  C         -9.0520   19.5440   11.3710 C.2    73  THR73       0.2287
     28  O         -8.6750   20.2480   12.2990 O.2    73  THR73      -0.2866
     29  CB       -11.1950   18.2860   11.7200 C.3    73  THR73       0.1770
     30  OG1      -12.5870   18.2900   11.4230 O.3    73  THR73      -0.2211
     31  CG2      -11.0540   18.3870   13.2320 C.3    73  THR73       0.0375
     32  N         -7.6310   23.1460   10.5330 N.3    76  VAL76      -0.1231
     33  CA        -7.9090   24.0850   11.6300 C.3    76  VAL76       0.1692
     34  C         -6.9600   23.8010   12.7750 C.2    76  VAL76       0.2592
     35  O         -6.3840   24.7320   13.3430 O.2    76  VAL76      -0.2718
     36  CB        -9.3710   23.9660   12.1810 C.3    76  VAL76       0.0266
     37  CG1       -9.5620   24.8580   13.4220 C.3    76  VAL76       0.0020
     38  CG2      -10.4000   24.2910   11.1080 C.3    76  VAL76       0.0020
     39  N         -6.7980   22.5130   13.1020 N.am   77  ASP77      -0.1974
     40  CA        -5.9610   22.0730   14.2180 C.3    77  ASP77       0.1709
     41  C         -4.5570   22.6190   14.0550 C.2    77  ASP77       0.2293
     42  O         -4.0250   23.2490   14.9460 O.2    77  ASP77      -0.2864
     43  CB        -5.9310   20.5400   14.3020 C.3    77  ASP77       0.1436
     44  CG        -7.2170   19.9400   14.9130 C.2    77  ASP77       0.3671
     45  OD1       -8.1230   20.7140   15.3230 O.co2  77  ASP77      -0.2456
     46  OD2       -7.3270   18.6860   14.9680 O.co2  77  ASP77      -0.2456
     47  N         -4.6320   26.2740   15.0350 N.3    80  THR80      -0.1203
     48  CA        -4.8920   26.4480   16.4620 C.3    80  THR80       0.1994
     49  C         -3.6550   26.1290   17.3190 C.2    80  THR80       0.2617
     50  O         -3.3580   26.8320   18.2670 O.2    80  THR80      -0.2717
     51  CB        -6.0770   25.5850   16.8790 C.3    80  THR80       0.1784
     52  OG1       -7.1810   25.8700   16.0130 O.3    80  THR80      -0.2211
     53  CG2       -6.4890   25.8660   18.3260 C.3    80  THR80       0.0376
     54  N         -2.9010   25.1040   16.9400 N.am   81  LEU81      -0.1979
     55  CA        -1.7720   24.6340   17.7360 C.3    81  LEU81       0.1596
     56  C         -0.4930   25.4490   17.5200 C.2    81  LEU81       0.2287
     57  O          0.3700   25.5020   18.3860 O.2    81  LEU81      -0.2864
     58  CB        -1.5480   23.1380   17.4920 C.3    81  LEU81       0.0297
     59  CG        -2.6800   22.2270   17.9910 C.3    81  LEU81       0.0022
     60  CD1       -2.6850   20.8290   17.3520 C.3    81  LEU81       0.0001
     61  CD2       -2.6650   22.1040   19.4980 C.3    81  LEU81       0.0001
     62  N         -1.3580   28.0170   20.2330 N.3    84  TYR84      -0.1241
     63  CA        -1.2010   27.4180   21.5530 C.3    84  TYR84       0.1605
     64  C          0.2760   27.3390   21.9250 C.2    84  TYR84       0.2264
     65  O          0.6430   27.6470   23.0700 O.2    84  TYR84      -0.2867
     66  CB        -1.8000   26.0120   21.6070 C.3    84  TYR84       0.0534
     67  CG        -3.3120   25.9340   21.6880 C.ar   84  TYR84      -0.0201
     68  CD1       -4.0920   27.0590   21.9340 C.ar   84  TYR84      -0.0009
     69  CD2       -3.9590   24.7070   21.5620 C.ar   84  TYR84      -0.0009
     70  CE1       -5.4930   26.9670   22.0120 C.ar   84  TYR84       0.0417
     71  CE2       -5.3400   24.5980   21.6420 C.ar   84  TYR84       0.0417
     72  CZ        -6.1040   25.7300   21.8690 C.ar   84  TYR84       0.1957
     73  OH        -7.4760   25.6090   21.9530 O.3    84  TYR84      -0.2866
     74  N         -3.3180   11.4160   14.1570 N.3    97  ARG97      -0.1245
     75  CA        -4.4140   10.8340   14.9190 C.3    97  ARG97       0.1563
     76  C         -4.4830    9.3420   14.6220 C.2    97  ARG97       0.2260
     77  O         -4.2310    8.9150   13.5010 O.2    97  ARG97      -0.2867
     78  CB        -5.7320   11.4910   14.5200 C.3    97  ARG97       0.0307
     79  CG        -6.8200   11.3420   15.5630 C.3    97  ARG97       0.0489
     80  CD        -8.1520   11.5620   14.9520 C.3    97  ARG97       0.2205
     81  NE        -8.2930   12.9320   14.4910 N.pl3  97  ARG97      -0.0865
     82  CZ        -8.6960   13.9500   15.2550 C.cat  97  ARG97       0.5346
     83  NH1       -8.8030   15.1690   14.7370 N.pl3  97  ARG97       0.1354
     84  NH2       -8.9940   13.7570   16.5330 N.pl3  97  ARG97       0.1354
     85  N         -7.2960    6.1170   15.7140 N.3    99  TYR99      -0.1241
     86  CA        -8.3330    5.4470   16.4750 C.3    99  TYR99       0.1605
     87  C         -8.6780    4.0540   15.9360 C.2    99  TYR99       0.2264
     88  O         -8.2990    3.6790   14.8040 O.2    99  TYR99      -0.2867
     89  CB        -9.5620    6.3270   16.6240 C.3    99  TYR99       0.0534
     90  CG       -10.3130    6.6800   15.3630 C.ar   99  TYR99      -0.0201
     91  CD1      -11.2330    5.7910   14.7910 C.ar   99  TYR99      -0.0009
     92  CD2      -10.1660    7.9350   14.7740 C.ar   99  TYR99      -0.0009
     93  CE1      -11.9470    6.1260   13.6280 C.ar   99  TYR99       0.0417
     94  CE2      -10.8820    8.2840   13.6200 C.ar   99  TYR99       0.0417
     95  CZ       -11.7610    7.3800   13.0540 C.ar   99  TYR99       0.1957
     96  OH       -12.4680    7.7350   11.9320 O.3    99  TYR99      -0.2866
     97  N         -8.1970    5.9190   20.9140 N.3   114  HIS114     -0.1241
     98  CA        -8.0790    7.1490   20.1380 C.3   114  HIS114      0.1621
     99  C         -6.9370    8.0030   20.6950 C.2   114  HIS114      0.2264
    100  O         -6.9530    8.3810   21.8820 O.2   114  HIS114     -0.2867
    101  CB        -9.3910    7.9480   20.2300 C.3   114  HIS114      0.0745
    102  CG        -9.4100    9.1700   19.3670 C.ar  114  HIS114      0.0817
    103  ND1       -8.7480   10.3310   19.7040 N.ar  114  HIS114     -0.2268
    104  CD2      -10.0010    9.4070   18.1740 C.ar  114  HIS114      0.1154
    105  CE1       -8.9260   11.2290   18.7520 C.ar  114  HIS114      0.1986
    106  NE2       -9.6870   10.6930   17.8140 N.ar  114  HIS114     -0.2212
    107  N         -3.9460   11.3500   19.8310 N.3   116  TYR116     -0.1241
    108  CA        -3.5960   12.5520   19.0460 C.3   116  TYR116      0.1605
    109  C         -2.1610   13.0520   19.3340 C.2   116  TYR116      0.2264
    110  O         -1.7570   13.1560   20.4890 O.2   116  TYR116     -0.2867
    111  CB        -4.6180   13.6730   19.3400 C.3   116  TYR116      0.0534
    112  CG        -4.6240   14.7710   18.3040 C.ar  116  TYR116     -0.0201
    113  CD1       -3.8020   15.8850   18.4380 C.ar  116  TYR116     -0.0009
    114  CD2       -5.4400   14.6840   17.1760 C.ar  116  TYR116     -0.0009
    115  CE1       -3.7930   16.8780   17.4790 C.ar  116  TYR116      0.0417
    116  CE2       -5.4400   15.6620   16.2190 C.ar  116  TYR116      0.0417
    117  CZ        -4.6150   16.7590   16.3690 C.ar  116  TYR116      0.1957
    118  OH        -4.5980   17.7410   15.3970 O.3   116  TYR116     -0.2866
    119  N         -0.4230   14.4120   22.5400 N.3   123  TYR123     -0.1241
    120  CA        -1.1350   15.6290   22.8550 C.3   123  TYR123      0.1605
    121  C         -2.3490   15.2810   23.7190 C.2   123  TYR123      0.2264
    122  O         -2.4630   15.7420   24.8420 O.2   123  TYR123     -0.2867
    123  CB        -1.5160   16.3950   21.5750 C.3   123  TYR123      0.0534
    124  CG        -2.2420   17.7010   21.8060 C.ar  123  TYR123     -0.0201
    125  CD1       -1.5400   18.8730   22.0790 C.ar  123  TYR123     -0.0009
    126  CD2       -3.6500   17.7620   21.7760 C.ar  123  TYR123     -0.0009
    127  CE1       -2.2180   20.0820   22.3160 C.ar  123  TYR123      0.0417
    128  CE2       -4.3330   18.9570   22.0020 C.ar  123  TYR123      0.0417
    129  CZ        -3.6110   20.1070   22.2700 C.ar  123  TYR123      0.1957
    130  OH        -4.2660   21.2740   22.4880 O.3   123  TYR123     -0.2866
    131  N         -8.1200   21.8430   25.1130 N.3   143  THR143     -0.1218
    132  CA        -8.7820   20.8480   24.2760 C.3   143  THR143      0.1862
    133  C         -9.6500   19.8510   25.0500 C.2   143  THR143      0.2287
    134  O        -10.7490   19.4990   24.5990 O.2   143  THR143     -0.2866
    135  CB        -7.7410   20.0440   23.4920 C.3   143  THR143      0.1770
    136  OG1       -6.7740   20.9350   22.9160 O.3   143  THR143     -0.2211
    137  CG2       -8.4030   19.2490   22.4150 C.3   143  THR143      0.0375
    138  N        -12.8930   21.7180   26.3120 N.3   146  LYS146     -0.1231
    139  CA       -13.7030   21.8730   25.1170 C.3   146  LYS146      0.1693
    140  C        -14.4410   20.5590   24.7980 C.2   146  LYS146      0.2592
    141  O        -15.6610   20.5480   24.6180 O.2   146  LYS146     -0.2718
    142  CB       -12.7930   22.2960   23.9590 C.3   146  LYS146      0.0285
    143  CG       -13.4920   22.6650   22.6710 C.3   146  LYS146      0.0035
    144  CD       -12.5080   23.3000   21.7070 C.3   146  LYS146      0.0206
    145  CE       -13.0470   23.2800   20.2920 C.3   146  LYS146      0.1093
    146  NZ       -12.5820   24.4820   19.5470 N.3   146  LYS146     -0.1314
    147  N        -13.6990   19.4510   24.7640 N.am  147  TRP147     -0.1976
    148  CA       -14.2660   18.1440   24.4130 C.3   147  TRP147      0.1640
    149  C        -15.1550   17.5520   25.5060 C.2   147  TRP147      0.2290
    150  O        -16.1750   16.8980   25.2220 O.2   147  TRP147     -0.2864
    151  CB       -13.1510   17.1840   24.0090 C.3   147  TRP147      0.0576
    152  CG       -12.5380   17.5300   22.6960 C.ar  147  TRP147      0.0006
    153  CD1      -12.8370   18.6020   21.9050 C.ar  147  TRP147      0.0946
    154  CD2      -11.4780   16.8290   22.0320 C.ar  147  TRP147      0.0152
    155  NE1      -12.0430   18.6040   20.7820 N.ar  147  TRP147     -0.2442
    156  CE2      -11.2030   17.5240   20.8320 C.ar  147  TRP147      0.0810
    157  CE3      -10.7340   15.6770   22.3320 C.ar  147  TRP147      0.0012
    158  CZ2      -10.2040   17.1080   19.9300 C.ar  147  TRP147      0.0191
    159  CZ3       -9.7460   15.2580   21.4300 C.ar  147  TRP147      0.0001
    160  CH2       -9.4960   15.9750   20.2480 C.ar  147  TRP147      0.0015
    161  N        -18.3630   19.5450   24.9700 N.3   150  ALA150     -0.1245
    162  CA       -19.0340   19.0650   23.7560 C.3   150  ALA150      0.1562
    163  C        -19.5580   17.6100   23.8150 C.2   150  ALA150      0.2260
    164  O        -20.2020   17.1490   22.8600 O.2   150  ALA150     -0.2867
    165  CB       -18.1040   19.2410   22.5520 C.3   150  ALA150      0.0290
    166  N        -17.8160   14.8400   23.5910 N.3   152  VAL152     -0.1245
    167  CA       -17.1350   14.1320   22.5150 C.3   152  VAL152      0.1561
    168  C        -16.9540   12.6530   22.8560 C.2   152  VAL152      0.2260
    169  O        -17.2640   11.7770   22.0500 O.2   152  VAL152     -0.2867
    170  CB       -15.7730   14.8130   22.1950 C.3   152  VAL152      0.0252
    171  CG1      -15.0020   14.0590   21.1010 C.3   152  VAL152      0.0019
    172  CG2      -15.9930   16.2500   21.7920 C.3   152  VAL152      0.0019
    173  N        -20.0060   10.3190   22.3920 N.3   155  GLN155     -0.1231
    174  CA       -20.3070   10.1470   20.9930 C.3   155  GLN155      0.1698
    175  C        -19.2500    9.2680   20.3450 C.2   155  GLN155      0.2592
    176  O        -19.5600    8.4550   19.4760 O.2   155  GLN155     -0.2718
    177  CB       -20.3670   11.5080   20.3050 C.3   155  GLN155      0.0381
    178  CG       -21.4500   12.4330   20.8420 C.3   155  GLN155      0.0905
    179  CD       -21.4440   13.8190   20.1960 C.2   155  GLN155      0.2608
    180  OE1      -21.8980   14.8070   20.7990 O.2   155  GLN155     -0.2717
    181  NE2      -20.9350   13.9030   18.9680 N.am  155  GLN155     -0.0878
    182  N        -18.0000    9.4340   20.7640 N.am  156  LEU156     -0.1980
    183  CA       -16.9240    8.5610   20.3250 C.3   156  LEU156      0.1596
    184  C        -17.1700    7.1470   20.8610 C.2   156  LEU156      0.2287
    185  O        -16.9780    6.1660   20.1520 O.2   156  LEU156     -0.2864
    186  CB       -15.5960    9.0810   20.8550 C.3   156  LEU156      0.0297
    187  CG       -14.3620    9.2900   19.9690 C.3   156  LEU156      0.0022
    188  CD1      -13.2010    9.6080   20.8780 C.3   156  LEU156      0.0001
    189  CD2      -14.0080    8.1100   19.0710 C.3   156  LEU156      0.0001
@<TRIPOS>BOND
     1     1     2    1
     2    10    11    1
     3     2     3    1
     4     2     5    1
     5     3     4    2
     6    11    14    1
     7    11    12    1
     8     5     6    1
     9     8     9    1
    10     8     7    1
    11     6     7    1
    12    12    15   am
    13    12    13    2
    14    15    16    1
    15    17    16    1
    16    17    18    2
    17    16    19    1
    18    19    20    1
    19    25    26    1
    20    20    21   ar
    21    20    22   ar
    22    32    33    1
    23    21    23   ar
    24    22    24   ar
    25    26    27    1
    26    26    29    1
    27    38    36    1
    28    27    28    2
    29    30    29    1
    30    33    36    1
    31    33    34    1
    32    29    31    1
    33    23    24   ar
    34    96    95    1
    35    36    37    1
    36    34    39   am
    37    34    35    2
    38    95    94   ar
    39    95    93   ar
    40    39    40    1
    41    77    76    2
    42    94    92   ar
    43    93    91   ar
    44    41    40    1
    45    41    42    2
    46    74    75    1
    47    40    43    1
    48    43    44    1
    49    81    80    1
    50    81    82    2
    51    78    75    1
    52    78    79    1
    53    76    75    1
    54    83    82    1
    55    92    90   ar
    56    91    90   ar
    57    88    87    2
    58    44    46   ar
    59    44    45   ar
    60    80    79    1
    61    47    48    1
    62    82    84    1
    63    90    89    1
    64   118   117    1
    65    85    86    1
    66    87    86    1
    67    52    51    1
    68   116   117   ar
    69   116   114   ar
    70   117   115   ar
    71    48    51    1
    72    48    49    1
    73    86    89    1
    74    51    53    1
    75    54    49   am
    76    54    55    1
    77   114   112   ar
    78    49    50    2
    79    60    59    1
    80   115   113   ar
    81    58    55    1
    82    58    59    1
    83    56    55    1
    84    56    57    2
    85   106   104   ar
    86   106   105   ar
    87    59    61    1
    88   104   102   ar
    89   112   113   ar
    90   112   111    1
    91   105   103   ar
    92   181   179   am
    93   108   109    1
    94   108   111    1
    95   108   107    1
    96   189   187    1
    97   109   110    2
    98   102   103   ar
    99   102   101    1
   100   176   175    2
   101   146   145    1
   102   158   160   ar
   103   158   156   ar
   104   187   186    1
   105   187   188    1
   106    98   101    1
   107    98    99    1
   108    98    97    1
   109   185   184    2
   110   179   180    2
   111   179   178    1
   112    62    63    1
   113   160   159   ar
   114   145   144    1
   115   177   178    1
   116   177   174    1
   117   183   182    1
   118   183   186    1
   119   183   184    1
   120   175   182   am
   121   175   174    1
   122    99   100    2
   123   155   156   ar
   124   155   153   ar
   125   156   154   ar
   126   174   173    1
   127   171   170    1
   128   159   157   ar
   129    63    66    1
   130    63    64    1
   131    69    71   ar
   132    69    67   ar
   133   123   124    1
   134   123   120    1
   135    66    67    1
   136    71    72   ar
   137    67    68   ar
   138   144   143    1
   139   126   124   ar
   140   126   128   ar
   141   172   170    1
   142   124   125   ar
   143    72    73    1
   144    72    70   ar
   145   153   152   ar
   146    64    65    2
   147    68    70   ar
   148   128   129   ar
   149   154   157   ar
   150   154   152   ar
   151   169   168    2
   152   125   127   ar
   153   170   167    1
   154   129   127   ar
   155   129   130    1
   156   137   135    1
   157   167   168    1
   158   167   166    1
   159   119   120    1
   160   165   162    1
   161   143   142    1
   162   152   151    1
   163   120   121    1
   164   164   163    2
   165   136   135    1
   166   135   132    1
   167   121   122    2
   168   162   163    1
   169   162   161    1
   170   142   139    1
   171   151   148    1
   172   132   133    1
   173   132   131    1
   174   148   147    1
   175   148   149    1
   176   134   133    2
   177   141   140    2
   178   147   140   am
   179   140   139    1
   180   139   138    1
   181   150   149    2
