@<TRIPOS>MOLECULE
tmp/3mrjA00.pdb
 170 165 0 0 0
SMALL
GASTEIGER

@<TRIPOS>ATOM
      1  N         -9.6830   -3.1810   13.8740 N.3     5  MET5       -0.1245
      2  CA        -9.7050   -2.1920   12.7880 C.3     5  MET5        0.1570
      3  C         -9.1020   -0.8780   13.2810 C.2     5  MET5        0.2261
      4  O         -9.5030   -0.3880   14.3290 O.2     5  MET5       -0.2867
      5  CB       -11.1380   -1.9320   12.3150 C.3     5  MET5        0.0387
      6  CG       -11.2260   -0.9370   11.1770 C.3     5  MET5        0.0595
      7  SD       -12.8220   -0.9460   10.3370 S.3     5  MET5       -0.1393
      8  CE       -13.8540   -0.1420   11.5580 C.3     5  MET5        0.0692
      9  N         -7.5930    3.2010   12.0070 N.3     7  TYR7       -0.1241
     10  CA        -7.3600    4.2200   10.9850 C.3     7  TYR7        0.1605
     11  C         -6.2520    5.1440   11.4570 C.2     7  TYR7        0.2264
     12  O         -6.1780    5.4700   12.6560 O.2     7  TYR7       -0.2867
     13  CB        -8.6090    5.0390   10.7430 C.3     7  TYR7        0.0534
     14  CG        -9.6530    4.3140    9.9190 C.ar    7  TYR7       -0.0201
     15  CD1      -10.6910    3.6080   10.5330 C.ar    7  TYR7       -0.0009
     16  CD2       -9.6070    4.3490    8.5310 C.ar    7  TYR7       -0.0009
     17  CE1      -11.6460    2.9370    9.7700 C.ar    7  TYR7        0.0417
     18  CE2      -10.5720    3.7050    7.7590 C.ar    7  TYR7        0.0417
     19  CZ       -11.5720    2.9760    8.3900 C.ar    7  TYR7        0.1957
     20  OH       -12.5400    2.3400    7.6110 O.3     7  TYR7       -0.2866
     21  N         -4.1640    8.8120   10.5600 N.3     9  PHE9       -0.1241
     22  CA        -4.2370   10.0540    9.8000 C.3     9  PHE9        0.1605
     23  C         -3.0210   10.9160   10.1060 C.2     9  PHE9        0.2264
     24  O         -2.6660   11.0700   11.2710 O.2     9  PHE9       -0.2867
     25  CB        -5.5120   10.8460   10.1550 C.3     9  PHE9        0.0534
     26  CG        -6.7670   10.0230   10.1620 C.ar    9  PHE9       -0.0203
     27  CD1       -7.1100    9.2690   11.2780 C.ar    9  PHE9       -0.0042
     28  CD2       -7.6150   10.0100    9.0540 C.ar    9  PHE9       -0.0042
     29  CE1       -8.2560    8.4840   11.2940 C.ar    9  PHE9       -0.0003
     30  CE2       -8.7810    9.2260    9.0550 C.ar    9  PHE9       -0.0003
     31  CZ        -9.1140    8.4720   10.1770 C.ar    9  PHE9       -0.0000
     32  N        -11.6810    8.5960   -1.2130 N.3    45  MET45      -0.1245
     33  CA       -11.2230    7.4380   -0.4750 C.3    45  MET45       0.1570
     34  C        -11.1320    6.2880   -1.4870 C.2    45  MET45       0.2261
     35  O        -12.0690    6.0810   -2.2860 O.2    45  MET45      -0.2867
     36  CB       -12.1880    7.1140    0.6620 C.3    45  MET45       0.0387
     37  CG       -11.7080    5.9690    1.5830 C.3    45  MET45       0.0595
     38  SD       -10.4150    6.5400    2.7540 S.3    45  MET45      -0.1393
     39  CE       -11.4590    6.9940    4.1450 C.3    45  MET45       0.0692
     40  N        -21.0770    3.8330   -0.2320 N.3    59  TYR59      -0.1241
     41  CA       -19.9790    3.6230    0.7110 C.3    59  TYR59       0.1605
     42  C        -18.8690    4.6230    0.4160 C.2    59  TYR59       0.2264
     43  O        -18.4600    5.4030    1.2850 O.2    59  TYR59      -0.2867
     44  CB       -19.4470    2.1890    0.6170 C.3    59  TYR59       0.0534
     45  CG       -18.2690    1.9180    1.5440 C.ar   59  TYR59      -0.0201
     46  CD1      -18.4720    1.5950    2.8890 C.ar   59  TYR59      -0.0009
     47  CD2      -16.9670    1.9840    1.0700 C.ar   59  TYR59      -0.0009
     48  CE1      -17.3950    1.3500    3.7380 C.ar   59  TYR59       0.0417
     49  CE2      -15.8780    1.7440    1.9080 C.ar   59  TYR59       0.0417
     50  CZ       -16.1010    1.4180    3.2280 C.ar   59  TYR59       0.1957
     51  OH       -15.0240    1.1880    4.0410 O.3    59  TYR59      -0.2866
     52  N        -17.4120    7.6590    2.7400 N.3    63  GLU63      -0.1245
     53  CA       -16.0330    7.6530    3.2480 C.3    63  GLU63       0.1567
     54  C        -15.2550    8.8750    2.7510 C.2    63  GLU63       0.2260
     55  O        -14.4240    9.4470    3.4750 O.2    63  GLU63      -0.2867
     56  CB       -15.3230    6.3470    2.8530 C.3    63  GLU63       0.0388
     57  CG       -15.9610    5.0720    3.4800 C.3    63  GLU63       0.1160
     58  CD       -16.1460    5.1950    4.9840 C.2    63  GLU63       0.3649
     59  OE1      -17.2820    5.4890    5.4470 O.co2  63  GLU63      -0.2457
     60  OE2      -15.1410    5.0150    5.7040 O.co2  63  GLU63      -0.2457
     61  N        -16.5200   12.1040    4.7240 N.3    66  LYS66      -0.1231
     62  CA       -15.9800   12.0820    6.0780 C.3    66  LYS66       0.1693
     63  C        -14.4890   12.3350    6.1150 C.2    66  LYS66       0.2591
     64  O        -14.0050   13.0920    6.9670 O.2    66  LYS66      -0.2718
     65  CB       -16.3160   10.7490    6.7600 C.3    66  LYS66       0.0285
     66  CG       -17.8170   10.5910    7.0190 C.3    66  LYS66       0.0035
     67  CD       -18.1410    9.3040    7.7620 C.3    66  LYS66       0.0206
     68  CE       -17.9300    8.0990    6.8700 C.3    66  LYS66       0.1093
     69  NZ       -18.2500    6.8160    7.5650 N.3    66  LYS66      -0.1314
     70  N        -13.7490   11.7000    5.2090 N.am   67  VAL67      -0.1980
     71  CA       -12.2830   11.8390    5.2300 C.3    67  VAL67       0.1595
     72  C        -11.8260   13.2400    4.7910 C.2    67  VAL67       0.2287
     73  O        -10.8330   13.7570    5.2850 O.2    67  VAL67      -0.2864
     74  CB       -11.5540   10.7030    4.4640 C.3    67  VAL67       0.0276
     75  CG1      -11.4660   10.9650    2.9600 C.3    67  VAL67       0.0022
     76  CG2      -10.1370   10.4780    5.0590 C.3    67  VAL67       0.0022
     77  N        -12.3340   15.3400    7.7470 N.3    70  HIS70      -0.1241
     78  CA       -11.2190   15.0060    8.6330 C.3    70  HIS70       0.1621
     79  C         -9.9980   15.8840    8.3240 C.2    70  HIS70       0.2264
     80  O         -9.3260   16.3870    9.2290 O.2    70  HIS70      -0.2867
     81  CB       -10.8290   13.5310    8.4560 C.3    70  HIS70       0.0745
     82  CG       -11.5840   12.5700    9.3240 C.ar   70  HIS70       0.0817
     83  ND1      -12.9610   12.5230    9.3780 N.ar   70  HIS70      -0.2268
     84  CD2      -11.1450   11.5880   10.1490 C.ar   70  HIS70       0.1154
     85  CE1      -13.3360   11.5740   10.2170 C.ar   70  HIS70       0.1986
     86  NE2      -12.2530   10.9810   10.6890 N.ar   70  HIS70      -0.2212
     87  N         -7.2670    5.9040   15.6090 N.3    99  TYR99      -0.1241
     88  CA        -8.3470    5.3240   16.3960 C.3    99  TYR99       0.1605
     89  C         -8.7830    3.9770   15.8320 C.2    99  TYR99       0.2264
     90  O         -8.4540    3.6200   14.7020 O.2    99  TYR99      -0.2867
     91  CB        -9.5400    6.2900   16.5450 C.3    99  TYR99       0.0534
     92  CG       -10.2320    6.6920   15.2580 C.ar   99  TYR99      -0.0201
     93  CD1      -11.0850    5.7960   14.5850 C.ar   99  TYR99      -0.0009
     94  CD2      -10.0610    7.9740   14.7220 C.ar   99  TYR99      -0.0009
     95  CE1      -11.7310    6.1630   13.4040 C.ar   99  TYR99       0.0417
     96  CE2      -10.7230    8.3580   13.5410 C.ar   99  TYR99       0.0417
     97  CZ       -11.5570    7.4420   12.8990 C.ar   99  TYR99       0.1957
     98  OH       -12.2060    7.7980   11.7410 O.3    99  TYR99      -0.2866
     99  N         -8.4910    6.0740   20.8720 N.3   114  HIS114     -0.1241
    100  CA        -8.5130    7.2980   20.0850 C.3   114  HIS114      0.1621
    101  C         -7.3900    8.1910   20.6160 C.2   114  HIS114      0.2264
    102  O         -7.4980    8.7300   21.7280 O.2   114  HIS114     -0.2867
    103  CB        -9.8560    8.0120   20.2090 C.3   114  HIS114      0.0745
    104  CG       -10.0320    9.1330   19.2340 C.ar  114  HIS114      0.0817
    105  ND1       -9.3560   10.3290   19.3430 N.ar  114  HIS114     -0.2268
    106  CD2      -10.8040    9.2390   18.1280 C.ar  114  HIS114      0.1154
    107  CE1       -9.7050   11.1220   18.3490 C.ar  114  HIS114      0.1986
    108  NE2      -10.5840   10.4850   17.5980 N.ar  114  HIS114     -0.2212
    109  N        -19.7280   10.3780   22.2580 N.3   155  GLN155     -0.1231
    110  CA       -19.9370   10.1110   20.8380 C.3   155  GLN155      0.1698
    111  C        -18.8260    9.2270   20.2640 C.2   155  GLN155      0.2592
    112  O        -19.0720    8.3980   19.3850 O.2   155  GLN155     -0.2718
    113  CB       -20.0470   11.4260   20.0600 C.3   155  GLN155      0.0381
    114  CG       -21.1570   12.3400   20.5860 C.3   155  GLN155      0.0905
    115  CD       -21.1800   13.7070   19.9260 C.2   155  GLN155      0.2608
    116  OE1      -21.4640   13.8340   18.7300 O.2   155  GLN155     -0.2717
    117  NE2      -20.9000   14.7450   20.7120 N.am  155  GLN155     -0.0878
    118  N        -17.6040    9.4030   20.7580 N.am  156  LEU156     -0.1980
    119  CA       -16.5090    8.5610   20.3130 C.3   156  LEU156      0.1596
    120  C        -16.7110    7.1290   20.7770 C.2   156  LEU156      0.2287
    121  O        -16.5620    6.1880   19.9940 O.2   156  LEU156     -0.2864
    122  CB       -15.1580    9.0840   20.8060 C.3   156  LEU156      0.0297
    123  CG       -14.5030   10.1950   19.9890 C.3   156  LEU156      0.0022
    124  CD1      -13.1480   10.4850   20.6120 C.3   156  LEU156      0.0001
    125  CD2      -14.3490    9.8080   18.5180 C.3   156  LEU156      0.0001
    126  N        -19.2490    5.2310   18.6610 N.3   159  TYR159     -0.1241
    127  CA       -18.6380    4.7340   17.4120 C.3   159  TYR159      0.1605
    128  C        -17.7560    3.5030   17.6620 C.2   159  TYR159      0.2264
    129  O        -17.8730    2.4900   16.9590 O.2   159  TYR159     -0.2867
    130  CB       -17.8390    5.8510   16.6910 C.3   159  TYR159      0.0534
    131  CG       -16.9070    5.3220   15.6130 C.ar  159  TYR159     -0.0201
    132  CD1      -17.3770    5.0470   14.3180 C.ar  159  TYR159     -0.0009
    133  CD2      -15.5650    5.0530   15.8980 C.ar  159  TYR159     -0.0009
    134  CE1      -16.5250    4.5310   13.3370 C.ar  159  TYR159      0.0417
    135  CE2      -14.7060    4.5460   14.9260 C.ar  159  TYR159      0.0417
    136  CZ       -15.1880    4.2910   13.6520 C.ar  159  TYR159      0.1957
    137  OH       -14.3260    3.7830   12.7080 O.3   159  TYR159     -0.2866
    138  N        -20.4310    1.2160   15.6120 N.3   163  THR163     -0.1218
    139  CA       -20.0930    1.2260   14.1960 C.3   163  THR163      0.1862
    140  C        -18.7670    0.5280   13.9040 C.2   163  THR163      0.2287
    141  O        -18.6770   -0.2650   12.9650 O.2   163  THR163     -0.2866
    142  CB       -20.0390    2.6760   13.6620 C.3   163  THR163      0.1770
    143  OG1      -21.3160    3.3010   13.8630 O.3   163  THR163     -0.2211
    144  CG2      -19.6660    2.7180   12.1700 C.3   163  THR163      0.0375
    145  N        -18.6940   -2.7900   11.5530 N.3   167  TRP167     -0.1241
    146  CA       -18.0450   -2.8040   10.2400 C.3   167  TRP167      0.1605
    147  C        -16.8030   -3.6980   10.1760 C.2   167  TRP167      0.2264
    148  O        -16.5510   -4.3350    9.1670 O.2   167  TRP167     -0.2867
    149  CB       -17.8100   -1.3840    9.7140 C.3   167  TRP167      0.0550
    150  CG       -19.1150   -0.8190    9.2100 C.ar  167  TRP167      0.0003
    151  CD1      -20.1370   -0.3150    9.9690 C.ar  167  TRP167      0.0946
    152  CD2      -19.5620   -0.7730    7.8540 C.ar  167  TRP167      0.0152
    153  NE1      -21.1870    0.0550    9.1660 N.ar  167  TRP167     -0.2442
    154  CE2      -20.8560   -0.2070    7.8610 C.ar  167  TRP167      0.0810
    155  CE3      -18.9880   -1.1340    6.6290 C.ar  167  TRP167      0.0012
    156  CZ2      -21.5900    0.0010    6.6860 C.ar  167  TRP167      0.0191
    157  CZ3      -19.7230   -0.9300    5.4610 C.ar  167  TRP167      0.0001
    158  CH2      -21.0050   -0.3700    5.5020 C.ar  167  TRP167      0.0015
    159  N        -16.2670   -6.6050    7.4710 N.3   171  TYR171     -0.1241
    160  CA       -15.0450   -6.7730    6.6980 C.3   171  TYR171      0.1605
    161  C        -14.4380   -8.1720    6.8700 C.2   171  TYR171      0.2264
    162  O        -14.0170   -8.7890    5.8860 O.2   171  TYR171     -0.2867
    163  CB       -14.0150   -5.6820    7.0700 C.3   171  TYR171      0.0534
    164  CG       -14.4710   -4.2410    6.8210 C.ar  171  TYR171     -0.0201
    165  CD1      -15.3810   -3.9150    5.7890 C.ar  171  TYR171     -0.0009
    166  CD2      -13.9840   -3.2080    7.6030 C.ar  171  TYR171     -0.0009
    167  CE1      -15.7850   -2.5860    5.5700 C.ar  171  TYR171      0.0417
    168  CE2      -14.3630   -1.8900    7.3870 C.ar  171  TYR171      0.0417
    169  CZ       -15.2590   -1.5810    6.3720 C.ar  171  TYR171      0.1957
    170  OH       -15.6280   -0.2630    6.2040 O.3   171  TYR171     -0.2866
@<TRIPOS>BOND
     1    35    34    2
     2    34    33    1
     3    32    33    1
     4    33    36    1
     5    40    41    1
     6    42    41    1
     7    42    43    2
     8    44    41    1
     9    44    45    1
    10    36    37    1
    11    47    45   ar
    12    47    49   ar
    13    45    46   ar
    14    37    38    1
    15    49    50   ar
    16    52    53    1
    17    54    53    1
    18    54    55    2
    19    38    39    1
    20    56    53    1
    21    56    57    1
    22    46    48   ar
    23    75    74    1
    24    50    48   ar
    25    50    51    1
    26    57    58    1
    27    74    76    1
    28    74    71    1
    29    61    62    1
    30    72    71    1
    31    72    73    2
    32    58    59   ar
    33    58    60   ar
    34    70    71    1
    35    70    63   am
    36   157   158   ar
    37   157   155   ar
    38   158   156   ar
    39   167   165   ar
    40   167   169   ar
    41   165   164   ar
    42   162   161    2
    43    62    63    1
    44    62    65    1
    45    63    64    2
    46   170   169    1
    47   169   168   ar
    48   155   152   ar
    49   156   154   ar
    50   160   161    1
    51   160   163    1
    52   160   159    1
    53    65    66    1
    54   164   163    1
    55   164   166   ar
    56    68    69    1
    57    68    67    1
    58    66    67    1
    59   168   166   ar
    60    20    19    1
    61    77    78    1
    62    18    19   ar
    63    18    16   ar
    64   152   154   ar
    65   152   150   ar
    66   154   153   ar
    67    79    78    1
    68    79    80    2
    69    19    17   ar
    70    81    78    1
    71    81    82    1
    72    16    14   ar
    73    28    30   ar
    74    28    26   ar
    75    30    31   ar
    76   153   151   ar
    77   148   147    2
    78   150   149    1
    79   150   151   ar
    80    82    83   ar
    81    82    84   ar
    82    83    85   ar
    83   149   146    1
    84    17    15   ar
    85    22    23    1
    86    22    25    1
    87    22    21    1
    88    14    15   ar
    89    14    13    1
    90    23    24    2
    91    84    86   ar
    92    25    26    1
    93    26    27   ar
    94   147   146    1
    95    31    29   ar
    96    85    86   ar
    97   146   145    1
    98     7     6    1
    99     7     8    1
   100    13    10    1
   101    10    11    1
   102    10     9    1
   103     6     5    1
   104    27    29   ar
   105    11    12    2
   106    98    97    1
   107   144   142    1
   108     5     2    1
   109   137   136    1
   110     2     3    1
   111     2     1    1
   112    97    95   ar
   113    97    96   ar
   114   141   140    2
   115     3     4    2
   116   134   136   ar
   117   134   132   ar
   118    95    93   ar
   119    96    94   ar
   120   136   135   ar
   121   142   143    1
   122   142   139    1
   123   140   139    1
   124   139   138    1
   125   132   131   ar
   126    93    92   ar
   127    90    89    2
   128    94    92   ar
   129   135   133   ar
   130    92    91    1
   131    87    88    1
   132   131   133   ar
   133   131   130    1
   134    89    88    1
   135    88    91    1
   136   130   127    1
   137   129   128    2
   138   127   128    1
   139   127   126    1
   140   108   106   ar
   141   108   107   ar
   142   106   104   ar
   143   107   105   ar
   144   125   123    1
   145   116   115    2
   146   104   105   ar
   147   104   103    1
   148   112   111    2
   149   115   114    1
   150   115   117   am
   151   123   124    1
   152   123   122    1
   153   121   120    2
   154   113   114    1
   155   113   110    1
   156   100   103    1
   157   100   101    1
   158   100    99    1
   159   111   118   am
   160   111   110    1
   161   119   118    1
   162   119   120    1
   163   119   122    1
   164   101   102    2
   165   110   109    1
