@<TRIPOS>MOLECULE
tmp/3mrtA00.pdb
 136 136 0 0 0
SMALL
GASTEIGER

@<TRIPOS>ATOM
      1  N         10.0660   14.0940   49.7590 N.3    46  HIS46      -0.1241
      2  CA        10.2510   13.0250   50.7360 C.3    46  HIS46       0.1621
      3  C          9.5430   11.7340   50.3340 C.2    46  HIS46       0.2264
      4  O         10.0870   10.6540   50.5010 O.2    46  HIS46      -0.2867
      5  CB         9.7810   13.4800   52.1220 C.3    46  HIS46       0.0745
      6  CG        10.8500   14.1740   52.9010 C.ar   46  HIS46       0.0817
      7  ND1       11.1050   15.5220   52.7640 N.ar   46  HIS46      -0.2268
      8  CD2       11.7620   13.7030   53.7830 C.ar   46  HIS46       0.1154
      9  CE1       12.1200   15.8550   53.5440 C.ar   46  HIS46       0.1986
     10  NE2       12.5330   14.7710   54.1750 N.ar   46  HIS46      -0.2212
     11  N         11.5670   10.3220   47.4090 N.3    49  ARG49      -0.1245
     12  CA        12.8670    9.8850   47.8770 C.3    49  ARG49       0.1563
     13  C         12.7950    8.5670   48.6450 C.2    49  ARG49       0.2260
     14  O         13.7130    7.7570   48.5560 O.2    49  ARG49      -0.2867
     15  CB        13.5350   11.0020   48.6920 C.3    49  ARG49       0.0307
     16  CG        14.2210   10.5530   49.9370 C.3    49  ARG49       0.0489
     17  CD        14.6850   11.7380   50.7600 C.3    49  ARG49       0.2205
     18  NE        14.4920   11.4550   52.1760 N.pl3  49  ARG49      -0.0865
     19  CZ        14.9170   12.2430   53.1550 C.cat  49  ARG49       0.5346
     20  NH1       15.5800   13.3610   52.8700 N.pl3  49  ARG49       0.1354
     21  NH2       14.6960   11.9000   54.4170 N.pl3  49  ARG49       0.1354
     22  N         13.6030    5.4840   46.6820 N.3    52  LEU52      -0.1231
     23  CA        14.9830    5.2360   46.2850 C.3    52  LEU52       0.1693
     24  C         15.7350    4.3290   47.2470 C.2    52  LEU52       0.2591
     25  O         16.6640    3.6320   46.8420 O.2    52  LEU52      -0.2718
     26  CB        15.7550    6.5570   46.1490 C.3    52  LEU52       0.0284
     27  CG        15.4740    7.4630   44.9590 C.3    52  LEU52       0.0019
     28  CD1       16.0620    8.8460   45.1970 C.3    52  LEU52       0.0001
     29  CD2       16.0280    6.8560   43.6670 C.3    52  LEU52       0.0001
     30  N         15.3560    4.3440   48.5220 N.am   53  VAL53      -0.1980
     31  CA        16.2400    3.8390   49.5750 C.3    53  VAL53       0.1595
     32  C         16.5410    2.3450   49.4810 C.2    53  VAL53       0.2287
     33  O         17.6960    1.9460   49.5780 O.2    53  VAL53      -0.2864
     34  CB        15.7890    4.2530   51.0330 C.3    53  VAL53       0.0276
     35  CG1       15.5120    5.7560   51.1160 C.3    53  VAL53       0.0022
     36  CG2       14.5890    3.4940   51.4650 C.3    53  VAL53       0.0022
     37  N         18.8210    1.7600   46.6220 N.3    56  TRP56      -0.1241
     38  CA        20.1290    2.3460   46.9170 C.3    56  TRP56       0.1605
     39  C         20.9560    1.4350   47.8330 C.2    56  TRP56       0.2264
     40  O         22.1290    1.1620   47.5610 O.2    56  TRP56      -0.2867
     41  CB        19.9380    3.7390   47.5450 C.3    56  TRP56       0.0550
     42  CG        21.1360    4.6540   47.4920 C.ar   56  TRP56       0.0003
     43  CD1       22.3260    4.4350   46.8410 C.ar   56  TRP56       0.0946
     44  CD2       21.2400    5.9560   48.0860 C.ar   56  TRP56       0.0152
     45  NE1       23.1660    5.5120   47.0170 N.ar   56  TRP56      -0.2442
     46  CE2       22.5260    6.4580   47.7760 C.ar   56  TRP56       0.0810
     47  CE3       20.3790    6.7400   48.8650 C.ar   56  TRP56       0.0012
     48  CZ2       22.9720    7.7160   48.2180 C.ar   56  TRP56       0.0191
     49  CZ3       20.8230    7.9980   49.3070 C.ar   56  TRP56       0.0001
     50  CH2       22.1110    8.4650   48.9780 C.ar   56  TRP56       0.0015
     51  N         30.7160   19.8200   47.7100 N.3   149  ARG149     -0.1245
     52  CA        29.4010   20.3470   48.0300 C.3   149  ARG149      0.1563
     53  C         29.5320   21.8440   48.2810 C.2   149  ARG149      0.2260
     54  O         29.7220   22.2740   49.4240 O.2   149  ARG149     -0.2867
     55  CB        28.8440   19.6330   49.2580 C.3   149  ARG149      0.0307
     56  CG        27.4470   20.0660   49.6740 C.3   149  ARG149      0.0489
     57  CD        27.0700   19.2530   50.9020 C.3   149  ARG149      0.2205
     58  NE        25.7520   19.5480   51.4660 N.pl3 149  ARG149     -0.0865
     59  CZ        25.5490   20.3690   52.4910 C.cat 149  ARG149      0.5346
     60  NH1       24.3300   20.5400   52.9780 N.pl3 149  ARG149      0.1354
     61  NH2       26.5720   21.0200   53.0360 N.pl3 149  ARG149      0.1354
     62  N         17.2380   23.5860   52.9670 N.3   175  GLY175     -0.1210
     63  CA        17.6500   22.2100   53.2230 C.3   175  GLY175      0.1956
     64  C         17.4720   21.3770   51.9650 C.2   175  GLY175      0.2612
     65  O         16.5220   21.5770   51.2090 O.2   175  GLY175     -0.2717
     66  N         18.3890   20.4410   51.7440 N.am  176  ASN176     -0.1960
     67  CA        18.4030   19.6520   50.5160 C.3   176  ASN176      0.1804
     68  C         17.9070   18.2390   50.8300 C.2   176  ASN176      0.2463
     69  O         18.6170   17.4740   51.4800 O.2   176  ASN176     -0.2730
     70  CB        19.8250   19.6240   49.9340 C.3   176  ASN176      0.1195
     71  CG        19.9510   18.7450   48.6850 C.2   176  ASN176      0.2630
     72  OD1       18.9530   18.3830   48.0460 O.2   176  ASN176     -0.2716
     73  ND2       21.1910   18.4240   48.3180 N.am  176  ASN176     -0.0877
     74  N         16.6860   17.8880   50.3740 N.am  177  PRO177     -0.2716
     75  CA        16.1670   16.5670   50.7320 C.3   177  PRO177      0.1536
     76  C         16.8820   15.4270   49.9960 C.2   177  PRO177      0.2599
     77  O         16.7730   14.2810   50.4000 O.2   177  PRO177     -0.2715
     78  CB        14.6840   16.6490   50.3280 C.3   177  PRO177      0.0310
     79  CG        14.6390   17.6370   49.2470 C.3   177  PRO177      0.0237
     80  CD        15.7480   18.6370   49.5170 C.3   177  PRO177      0.0939
     81  N         17.6330   15.7570   48.9500 N.am  178  TRP178     -0.1960
     82  CA        18.2790   14.7590   48.0970 C.3   178  TRP178      0.1771
     83  C         19.6830   14.3530   48.5330 C.2   178  TRP178      0.2620
     84  O         20.3970   13.6980   47.7760 O.2   178  TRP178     -0.2715
     85  CB        18.3140   15.2550   46.6480 C.3   178  TRP178      0.0590
     86  CG        16.9780   15.6790   46.1640 C.ar  178  TRP178      0.0006
     87  CD1       16.5770   16.9440   45.8590 C.ar  178  TRP178      0.0946
     88  CD2       15.8530   14.8310   45.9400 C.ar  178  TRP178      0.0152
     89  NE1       15.2640   16.9390   45.4530 N.ar  178  TRP178     -0.2442
     90  CE2       14.7970   15.6500   45.4900 C.ar  178  TRP178      0.0810
     91  CE3       15.6360   13.4520   46.0730 C.ar  178  TRP178      0.0012
     92  CZ2       13.5240   15.1360   45.1760 C.ar  178  TRP178      0.0191
     93  CZ3       14.3690   12.9380   45.7510 C.ar  178  TRP178      0.0001
     94  CH2       13.3380   13.7810   45.3120 C.ar  178  TRP178      0.0015
     95  N         20.0920   14.7390   49.7380 N.am  179  GLU179     -0.1963
     96  CA        21.3940   14.3210   50.2360 C.3   179  GLU179      0.1733
     97  C         21.2870   13.5930   51.5770 C.2   179  GLU179      0.2616
     98  O         20.3420   13.8070   52.3370 O.2   179  GLU179     -0.2715
     99  CB        22.3230   15.5320   50.3860 C.3   179  GLU179      0.0429
    100  CG        21.8950   16.4740   51.4930 C.3   179  GLU179      0.1163
    101  CD        22.6920   17.7590   51.5470 C.2   179  GLU179      0.3649
    102  OE1       22.5480   18.4550   52.5680 O.co2 179  GLU179     -0.2457
    103  OE2       23.4380   18.0790   50.5860 O.co2 179  GLU179     -0.2457
    104  N         22.2770   12.7510   51.8580 N.am  180  LYS180     -0.1963
    105  CA        22.4340   12.1500   53.1780 C.3   180  LYS180      0.1728
    106  C         23.8640   12.3680   53.6660 C.2   180  LYS180      0.2616
    107  O         24.8110   11.8910   53.0490 O.2   180  LYS180     -0.2715
    108  CB        22.1040   10.6490   53.1610 C.3   180  LYS180      0.0311
    109  CG        22.2900    9.9530   54.5250 C.3   180  LYS180      0.0038
    110  CD        21.3170   10.5320   55.5630 C.3   180  LYS180      0.0206
    111  CE        21.5170    9.9480   56.9590 C.3   180  LYS180      0.1093
    112  NZ        22.8220   10.3460   57.5510 N.3   180  LYS180     -0.1314
    113  N         24.0060   13.0940   54.7710 N.am  181  ALA181     -0.1977
    114  CA        25.3120   13.3210   55.3900 C.3   181  ALA181      0.1597
    115  C         25.8610   11.9890   55.8880 C.2   181  ALA181      0.2287
    116  O         25.1090   11.1830   56.4550 O.2   181  ALA181     -0.2864
    117  CB        25.1770   14.3170   56.5520 C.3   181  ALA181      0.0319
    118  N         28.6800   14.0080   51.8070 N.3   215  TYR215     -0.1241
    119  CA        27.2310   13.9620   51.6530 C.3   215  TYR215      0.1605
    120  C         26.9360   13.1280   50.4150 C.2   215  TYR215      0.2264
    121  O         27.4550   13.4210   49.3330 O.2   215  TYR215     -0.2867
    122  CB        26.6780   15.3790   51.4440 C.3   215  TYR215      0.0534
    123  CG        26.7030   16.2510   52.6910 C.ar  215  TYR215     -0.0201
    124  CD1       27.9040   16.7970   53.1710 C.ar  215  TYR215     -0.0009
    125  CD2       25.5220   16.5370   53.3800 C.ar  215  TYR215     -0.0009
    126  CE1       27.9220   17.6050   54.3240 C.ar  215  TYR215      0.0417
    127  CE2       25.5240   17.3470   54.5130 C.ar  215  TYR215      0.0417
    128  CZ        26.7310   17.8760   54.9750 C.ar  215  TYR215      0.1957
    129  OH        26.7260   18.6640   56.0930 O.3   215  TYR215     -0.2866
    130  N         21.7170   10.1330   45.7910 N.3   218  PRO218     -0.2116
    131  CA        21.4400    8.9890   44.9350 C.3   218  PRO218      0.1372
    132  C         21.3790    9.3710   43.4570 C.2   218  PRO218      0.2244
    133  O         20.8820   10.4430   43.1030 O.2   218  PRO218     -0.2868
    134  CB        20.0630    8.5130   45.4200 C.3   218  PRO218      0.0268
    135  CG        19.4220    9.7420   45.9410 C.3   218  PRO218      0.0207
    136  CD        20.5340   10.5260   46.5780 C.3   218  PRO218      0.0892
@<TRIPOS>BOND
     1   133   132    2
     2   132   131    1
     3    29    27    1
     4   131   134    1
     5   131   130    1
     6    27    28    1
     7    27    26    1
     8    92    94   ar
     9    92    90   ar
    10    94    93   ar
    11   134   135    1
    12    89    90   ar
    13    89    87   ar
    14    90    88   ar
    15    93    91   ar
    16   130   136    1
    17    87    86   ar
    18    88    91   ar
    19    88    86   ar
    20   135   136    1
    21    26    23    1
    22    86    85    1
    23    23    22    1
    24    23    24    1
    25    37    38    1
    26    85    82    1
    27    43    45   ar
    28    43    42   ar
    29    25    24    2
    30    38    41    1
    31    38    39    1
    32    45    46   ar
    33    24    30   am
    34    11    12    1
    35    42    41    1
    36    42    44   ar
    37    40    39    2
    38    51    52    1
    39    84    83    2
    40    46    44   ar
    41    46    48   ar
    42    12    13    1
    43    12    15    1
    44    52    53    1
    45    52    55    1
    46    72    71    2
    47    44    47   ar
    48    82    83    1
    49    82    81    1
    50    48    50   ar
    51    53    54    2
    52    73    71   am
    53    30    31    1
    54    83    95   am
    55    14    13    2
    56    71    70    1
    57    15    16    1
    58    47    49   ar
    59    81    76   am
    60    50    49   ar
    61    79    80    1
    62    79    78    1
    63    55    56    1
    64   121   120    2
    65    32    31    1
    66    32    33    2
    67    80    74    1
    68    31    34    1
    69    56    57    1
    70    95    96    1
    71     1     2    1
    72    70    67    1
    73    16    17    1
    74    76    77    2
    75    76    75    1
    76    96    99    1
    77    96    97    1
    78    78    75    1
    79     3     4    2
    80     3     2    1
    81    74    75    1
    82    74    68   am
    83    99   100    1
    84   120   119    1
    85    67    68    1
    86    67    66    1
    87   103   101   ar
    88     2     5    1
    89    17    18    1
    90    68    69    2
    91    57    58    1
    92    34    35    1
    93    34    36    1
    94    65    64    2
    95   122   119    1
    96   122   123    1
    97    58    59    2
    98   100   101    1
    99   101   102   ar
   100    97   104   am
   101    97    98    2
   102   119   118    1
   103    66    64   am
   104   104   105    1
   105    64    63    1
   106     5     6    1
   107    18    19    2
   108    59    60    1
   109    59    61    1
   110   123   124   ar
   111   123   125   ar
   112     7     6   ar
   113     7     9   ar
   114    20    19    1
   115     6     8   ar
   116    62    63    1
   117   107   106    2
   118    19    21    1
   119   108   105    1
   120   108   109    1
   121   124   126   ar
   122   105   106    1
   123   125   127   ar
   124     9    10   ar
   125   106   113   am
   126     8    10   ar
   127   126   128   ar
   128   127   128   ar
   129   109   110    1
   130   113   114    1
   131   128   129    1
   132   114   115    1
   133   114   117    1
   134   110   111    1
   135   115   116    2
   136   111   112    1
