@<TRIPOS>MOLECULE
tmp/3mrxA01.pdb
 220 209 0 0 0
SMALL
GASTEIGER

@<TRIPOS>ATOM
      1  N         32.8770   20.0800   39.2330 N.3    77  GLU77      -0.1245
      2  CA        31.5540   20.5510   38.8490 C.3    77  GLU77       0.1567
      3  C         30.5940   19.4010   38.5440 C.2    77  GLU77       0.2260
      4  O         30.9250   18.4750   37.8000 O.2    77  GLU77      -0.2867
      5  CB        31.6380   21.4770   37.6320 C.3    77  GLU77       0.0388
      6  CG        32.4660   22.7180   37.8570 C.3    77  GLU77       0.1160
      7  CD        32.4170   23.6720   36.6900 C.2    77  GLU77       0.3649
      8  OE1       33.3210   24.5180   36.6210 O.co2  77  GLU77      -0.2457
      9  OE2       31.4950   23.5740   35.8360 O.co2  77  GLU77      -0.2457
     10  N         29.3550   25.3920   35.9060 N.3   122  ASN122     -0.1225
     11  CA        29.3150   26.6000   35.0990 C.3   122  ASN122      0.1785
     12  C         28.5640   26.4470   33.7890 C.2   122  ASN122      0.2598
     13  O         27.8590   27.3610   33.3550 O.2   122  ASN122     -0.2718
     14  CB        30.7420   27.0570   34.7940 C.3   122  ASN122      0.1169
     15  CG        31.3380   27.8450   35.9290 C.2   122  ASN122      0.2627
     16  OD1       30.9360   28.9890   36.1790 O.2   122  ASN122     -0.2716
     17  ND2       32.2800   27.2330   36.6490 N.am  122  ASN122     -0.0877
     18  N         28.7500   25.3030   33.1440 N.am  123  GLY123     -0.1942
     19  CA        28.1360   25.0670   31.8500 C.3   123  GLY123      0.2014
     20  C         28.4110   23.6620   31.4050 C.2   123  GLY123      0.2639
     21  O         28.0940   22.7150   32.1290 O.2   123  GLY123     -0.2714
     22  N         29.0240   23.5400   30.2290 N.am  124  GLY124     -0.1939
     23  CA        29.1630   22.2670   29.5260 C.3   124  GLY124      0.2014
     24  C         29.8800   21.1500   30.2640 C.2   124  GLY124      0.2639
     25  O         29.4190   20.0160   30.2840 O.2   124  GLY124     -0.2714
     26  N         31.0280   21.4660   30.8590 N.am  125  LEU125     -0.1963
     27  CA        31.7990   20.4780   31.5970 C.3   125  LEU125      0.1728
     28  C         31.0160   19.9510   32.8140 C.2   125  LEU125      0.2616
     29  O         31.0100   18.7340   33.0880 O.2   125  LEU125     -0.2715
     30  CB        33.1690   21.0800   31.9890 C.3   125  LEU125      0.0311
     31  CG        34.1200   20.3830   32.9600 C.3   125  LEU125      0.0022
     32  CD1       35.5670   20.8640   32.7050 C.3   125  LEU125      0.0001
     33  CD2       33.7190   20.7190   34.3770 C.3   125  LEU125      0.0001
     34  N         30.3580   20.8570   33.5340 N.am  126  GLY126     -0.1955
     35  CA        29.5670   20.4630   34.7070 C.3   126  GLY126      0.1869
     36  C         28.3490   19.6300   34.3240 C.2   126  GLY126      0.2309
     37  O         28.0040   18.6750   35.0100 O.2   126  GLY126     -0.2863
     38  N         28.0140   17.8510   31.5930 N.3   128  LEU128     -0.1245
     39  CA        28.5170   16.5780   31.0800 C.3   128  LEU128      0.1561
     40  C         28.6920   15.5630   32.1980 C.2   128  LEU128      0.2260
     41  O         28.2550   14.4250   32.0630 O.2   128  LEU128     -0.2867
     42  CB        29.8290   16.7510   30.3140 C.3   128  LEU128      0.0270
     43  CG        30.2980   15.5000   29.5540 C.3   128  LEU128      0.0019
     44  CD1       29.4730   15.3120   28.2690 C.3   128  LEU128      0.0001
     45  CD2       31.7860   15.5650   29.2300 C.3   128  LEU128      0.0001
     46  N         33.8330   28.6230   41.8260 N.3   264  TYR264     -0.1241
     47  CA        34.4670   29.6220   40.9540 C.3   264  TYR264      0.1605
     48  C         33.7350   29.6890   39.6080 C.2   264  TYR264      0.2264
     49  O         33.5810   28.6590   38.9420 O.2   264  TYR264     -0.2867
     50  CB        35.9420   29.2960   40.7420 C.3   264  TYR264      0.0534
     51  CG        36.7980   29.8550   41.8450 C.ar  264  TYR264     -0.0201
     52  CD1       36.8520   29.2350   43.0890 C.ar  264  TYR264     -0.0009
     53  CD2       37.5270   31.0220   41.6560 C.ar  264  TYR264     -0.0009
     54  CE1       37.6360   29.7540   44.1210 C.ar  264  TYR264      0.0417
     55  CE2       38.3020   31.5530   42.6840 C.ar  264  TYR264      0.0417
     56  CZ        38.3480   30.9150   43.9060 C.ar  264  TYR264      0.1957
     57  OH        39.1070   31.4410   44.9240 O.3   264  TYR264     -0.2866
     58  N         34.6220   31.6290   36.9280 N.3   266  ASN266     -0.1225
     59  CA        35.4850   32.1620   35.8620 C.3   266  ASN266      0.1785
     60  C         35.8760   31.0780   34.8720 C.2   266  ASN266      0.2597
     61  O         36.9870   30.5530   34.9230 O.2   266  ASN266     -0.2718
     62  CB        36.7370   32.8460   36.4410 C.3   266  ASN266      0.1169
     63  CG        37.5160   31.9450   37.4050 C.2   266  ASN266      0.2627
     64  OD1       36.9540   31.4090   38.3600 O.2   266  ASN266     -0.2716
     65  ND2       38.8170   31.7840   37.1560 N.am  266  ASN266     -0.0877
     66  N         34.9550   30.7380   33.9720 N.am  267  ASP267     -0.1974
     67  CA        35.2040   29.6910   32.9820 C.3   267  ASP267      0.1709
     68  C         35.9630   30.2150   31.7470 C.2   267  ASP267      0.2293
     69  O         36.1760   29.4690   30.7890 O.2   267  ASP267     -0.2864
     70  CB        33.8880   29.0440   32.5520 C.3   267  ASP267      0.1436
     71  CG        33.0080   29.9900   31.7500 C.2   267  ASP267      0.3671
     72  OD1       33.2010   31.2230   31.8430 O.co2 267  ASP267     -0.2456
     73  OD2       32.1300   29.5020   31.0120 O.co2 267  ASP267     -0.2456
     74  N         41.9140   31.3710   33.4190 N.3   270  PHE270     -0.1227
     75  CA        42.5130   30.7460   34.5910 C.3   270  PHE270      0.1736
     76  C         43.0700   31.8070   35.5360 C.2   270  PHE270      0.2595
     77  O         43.8760   32.6600   35.1400 O.2   270  PHE270     -0.2718
     78  CB        43.5960   29.7220   34.2060 C.3   270  PHE270      0.0547
     79  CG        44.4300   29.2530   35.3760 C.ar  270  PHE270     -0.0202
     80  CD1       45.7440   29.6870   35.5260 C.ar  270  PHE270     -0.0042
     81  CD2       43.8900   28.4000   36.3370 C.ar  270  PHE270     -0.0042
     82  CE1       46.5140   29.2680   36.6110 C.ar  270  PHE270     -0.0003
     83  CE2       44.6540   27.9730   37.4260 C.ar  270  PHE270     -0.0003
     84  CZ        45.9650   28.4100   37.5600 C.ar  270  PHE270     -0.0000
     85  N         42.6140   31.7620   36.7840 N.am  271  GLU271     -0.1979
     86  CA        43.1850   32.5880   37.8330 C.3   271  GLU271      0.1602
     87  C         43.8510   31.7020   38.8590 C.2   271  GLU271      0.2287
     88  O         43.2100   30.8140   39.4400 O.2   271  GLU271     -0.2864
     89  CB        42.1170   33.4280   38.5190 C.3   271  GLU271      0.0415
     90  CG        41.8230   34.7400   37.8410 C.3   271  GLU271      0.1163
     91  CD        40.5240   35.3400   38.3280 C.2   271  GLU271      0.3649
     92  OE1       40.2270   35.2440   39.5470 O.co2 271  GLU271     -0.2457
     93  OE2       39.7910   35.8980   37.4860 O.co2 271  GLU271     -0.2457
     94  N         41.1390   28.4330   45.1430 N.3   276  ARG276     -0.1245
     95  CA        40.8150   27.4690   44.0940 C.3   276  ARG276      0.1563
     96  C         41.7620   26.2670   44.1420 C.2   276  ARG276      0.2260
     97  O         41.3420   25.1180   43.9520 O.2   276  ARG276     -0.2867
     98  CB        40.8480   28.1410   42.7210 C.3   276  ARG276      0.0307
     99  CG        40.7930   27.1820   41.5360 C.3   276  ARG276      0.0489
    100  CD        39.4320   26.4870   41.4230 C.3   276  ARG276      0.2205
    101  NE        39.3430   25.7160   40.1880 N.pl3 276  ARG276     -0.0865
    102  CZ        38.2110   25.2720   39.6530 C.cat 276  ARG276      0.5346
    103  NH1       37.0430   25.5210   40.2310 N.pl3 276  ARG276      0.1354
    104  NH2       38.2560   24.5890   38.5220 N.pl3 276  ARG276      0.1354
    105  N         38.9020   17.2010   33.0960 N.3   314  ASP314     -0.1239
    106  CA        39.8760   18.2740   32.8840 C.3   314  ASP314      0.1674
    107  C         41.0420   18.1790   33.8820 C.2   314  ASP314      0.2266
    108  O         41.2240   17.1500   34.5060 O.2   314  ASP314     -0.2867
    109  CB        39.2270   19.6600   32.8850 C.3   314  ASP314      0.1410
    110  CG        39.8880   20.5870   31.8920 C.2   314  ASP314      0.3668
    111  OD1       39.4610   20.6380   30.7240 O.co2 314  ASP314     -0.2456
    112  OD2       40.9020   21.1950   32.2530 O.co2 314  ASP314     -0.2456
    113  N         41.3960   19.9790   36.5510 N.3   316  HIS316     -0.1241
    114  CA        41.0360   20.5080   37.8680 C.3   316  HIS316      0.1621
    115  C         41.3640   19.5340   39.0030 C.2   316  HIS316      0.2264
    116  O         41.8210   19.9720   40.0520 O.2   316  HIS316     -0.2867
    117  CB        39.5850   21.0080   37.9390 C.3   316  HIS316      0.0745
    118  CG        39.1820   21.8540   36.7710 C.ar  316  HIS316      0.0817
    119  ND1       37.8990   21.8660   36.2740 N.ar  316  HIS316     -0.2268
    120  CD2       39.8930   22.7130   36.0000 C.ar  316  HIS316      0.1154
    121  CE1       37.8350   22.6920   35.2440 C.ar  316  HIS316      0.1986
    122  NE2       39.0310   23.2230   35.0610 N.ar  316  HIS316     -0.2212
    123  N         38.9450   19.2980   27.9270 N.3   352  HIS352     -0.1226
    124  CA        37.7310   19.9890   27.4780 C.3   352  HIS352      0.1752
    125  C         37.9410   21.3390   26.7640 C.2   352  HIS352      0.2596
    126  O         36.9570   21.9830   26.4010 O.2   352  HIS352     -0.2718
    127  CB        36.7500   20.1950   28.6420 C.3   352  HIS352      0.0759
    128  CG        36.3020   18.9340   29.3010 C.ar  352  HIS352      0.0818
    129  ND1       35.1850   18.2390   28.8960 N.ar  352  HIS352     -0.2268
    130  CD2       36.8110   18.2520   30.3530 C.ar  352  HIS352      0.1154
    131  CE1       35.0310   17.1750   29.6610 C.ar  352  HIS352      0.1986
    132  NE2       36.0070   17.1590   30.5510 N.ar  352  HIS352     -0.2212
    133  N         39.1860   21.7820   26.5610 N.am  353  THR353     -0.1953
    134  CA        39.4210   23.0320   25.7890 C.3   353  THR353      0.1897
    135  C         40.8180   23.1770   25.2090 C.2   353  THR353      0.2313
    136  O         41.7700   22.5680   25.7140 O.2   353  THR353     -0.2863
    137  CB        39.0770   24.3260   26.5800 C.3   353  THR353      0.1794
    138  OG1       39.1170   25.4620   25.6930 O.3   353  THR353     -0.2208
    139  CG2       40.0380   24.5310   27.7480 C.3   353  THR353      0.0378
    140  N         42.6630   29.3120   29.3540 N.3   358  ALA358     -0.1245
    141  CA        41.8790   28.4510   30.2440 C.3   358  ALA358      0.1562
    142  C         42.7280   27.3280   30.8590 C.2   358  ALA358      0.2260
    143  O         42.2930   26.6540   31.7980 O.2   358  ALA358     -0.2867
    144  CB        40.6820   27.8600   29.4830 C.3   358  ALA358      0.0290
    145  N         45.3210   25.3790   33.1020 N.3   360  GLU360     -0.1245
    146  CA        45.8210   25.5930   34.4510 C.3   360  GLU360      0.1567
    147  C         47.3260   25.4990   34.4710 C.2   360  GLU360      0.2260
    148  O         47.9040   24.4710   34.1130 O.2   360  GLU360     -0.2867
    149  CB        45.2380   24.5830   35.4390 C.3   360  GLU360      0.0388
    150  CG        43.7450   24.7500   35.6470 C.3   360  GLU360      0.1160
    151  CD        43.2480   23.9230   36.7950 C.2   360  GLU360      0.3649
    152  OE1       43.2770   22.6800   36.6790 O.co2 360  GLU360     -0.2457
    153  OE2       42.8420   24.5190   37.8150 O.co2 360  GLU360     -0.2457
    154  N         36.8630   15.4250   23.2210 N.3   430  VAL430     -0.1245
    155  CA        35.4300   15.2800   23.4830 C.3   430  VAL430      0.1561
    156  C         34.5810   15.3750   22.2130 C.2   430  VAL430      0.2260
    157  O         33.3560   15.3460   22.2670 O.2   430  VAL430     -0.2867
    158  CB        34.9710   16.2820   24.5740 C.3   430  VAL430      0.0252
    159  CG1       35.5240   15.8460   25.9490 C.3   430  VAL430      0.0019
    160  CG2       35.4130   17.7300   24.2340 C.3   430  VAL430      0.0019
    161  N         31.2810   13.6380   22.9840 N.3   459  ASN459     -0.1240
    162  CA        30.2790   13.9260   24.0250 C.3   459  ASN459      0.1653
    163  C         28.8760   13.4290   23.6720 C.2   459  ASN459      0.2266
    164  O         28.5790   13.0940   22.5170 O.2   459  ASN459     -0.2867
    165  CB        30.2280   15.4350   24.3470 C.3   459  ASN459      0.1155
    166  CG        31.3640   15.8860   25.2810 C.2   459  ASN459      0.2627
    167  OD1       31.6040   17.1030   25.4600 O.2   459  ASN459     -0.2716
    168  ND2       32.0430   14.9300   25.8910 N.am  459  ASN459     -0.0877
    169  N         34.5530   33.5200   21.9750 N.3   548  TYR548     -0.1227
    170  CA        34.6890   32.4280   20.9950 C.3   548  TYR548      0.1736
    171  C         33.3490   31.8650   20.5190 C.2   548  TYR548      0.2595
    172  O         33.2580   31.3490   19.3990 O.2   548  TYR548     -0.2718
    173  CB        35.6480   31.3260   21.4610 C.3   548  TYR548      0.0548
    174  CG        35.0510   30.2220   22.3110 C.ar  548  TYR548     -0.0200
    175  CD1       34.4410   29.1110   21.7230 C.ar  548  TYR548     -0.0009
    176  CD2       35.1370   30.2650   23.7030 C.ar  548  TYR548     -0.0009
    177  CE1       33.9110   28.0820   22.5050 C.ar  548  TYR548      0.0417
    178  CE2       34.6110   29.2340   24.4930 C.ar  548  TYR548      0.0417
    179  CZ        34.0060   28.1530   23.8880 C.ar  548  TYR548      0.1957
    180  OH        33.4870   27.1340   24.6700 O.3   548  TYR548     -0.2866
    181  N         32.3230   31.9650   21.3610 N.am  549  LYS549     -0.1980
    182  CA        31.0000   31.4360   21.0230 C.3   549  LYS549      0.1596
    183  C         30.2480   32.3970   20.0930 C.2   549  LYS549      0.2287
    184  O         29.2580   32.0180   19.4730 O.2   549  LYS549     -0.2864
    185  CB        30.1800   31.1400   22.2860 C.3   549  LYS549      0.0298
    186  CG        30.6700   29.9100   23.0590 C.3   549  LYS549      0.0038
    187  CD        30.0610   29.8460   24.4520 C.3   549  LYS549      0.0206
    188  CE        30.6030   28.6920   25.3030 C.3   549  LYS549      0.1093
    189  NZ        30.1550   27.3190   24.8100 N.3   549  LYS549     -0.1314
    190  N         35.2580   25.5380   19.8690 N.3   647  GLU647     -0.1231
    191  CA        34.3400   24.7920   20.7340 C.3   647  GLU647      0.1699
    192  C         34.7270   23.3160   20.7080 C.2   647  GLU647      0.2592
    193  O         34.5090   22.6490   19.7070 O.2   647  GLU647     -0.2718
    194  CB        32.8860   24.9830   20.2760 C.3   647  GLU647      0.0402
    195  CG        31.8560   24.4700   21.2680 C.3   647  GLU647      0.1161
    196  CD        31.6740   25.4100   22.4370 C.2   647  GLU647      0.3649
    197  OE1       32.3590   25.2120   23.4640 O.co2 647  GLU647     -0.2457
    198  OE2       30.8640   26.3580   22.3250 O.co2 647  GLU647     -0.2457
    199  N         35.3140   22.8090   21.7980 N.am  648  ALA648     -0.1966
    200  CA        35.7960   21.4200   21.8150 C.3   648  ALA648      0.1728
    201  C         34.7190   20.4380   21.3450 C.2   648  ALA648      0.2617
    202  O         34.9730   19.6060   20.4790 O.2   648  ALA648     -0.2715
    203  CB        36.3340   21.0270   23.1950 C.3   648  ALA648      0.0334
    204  N         33.5160   20.5460   21.9030 N.am  649  SER649     -0.1936
    205  CA        32.4210   19.7040   21.4510 C.3   649  SER649      0.2055
    206  C         31.1490   20.5140   21.3330 C.2   649  SER649      0.2644
    207  O         30.5660   20.6160   20.2400 O.2   649  SER649     -0.2714
    208  CB        32.2110   18.5240   22.4050 C.3   649  SER649      0.2130
    209  OG        31.0580   17.7780   22.0570 O.3   649  SER649     -0.2179
    210  N         30.7320   21.1010   22.4570 N.am  650  GLY650     -0.1939
    211  CA        29.3790   21.6120   22.5940 C.3   650  GLY650      0.2014
    212  C         28.5060   20.4330   23.0060 C.2   650  GLY650      0.2639
    213  O         28.7950   19.2860   22.6510 O.2   650  GLY650     -0.2714
    214  N         27.4780   20.7020   23.8020 N.am  651  THR651     -0.1950
    215  CA        26.4720   19.6970   24.1380 C.3   651  THR651      0.1897
    216  C         25.0730   20.2920   24.0280 C.2   651  THR651      0.2313
    217  O         24.1080   19.5670   23.7860 O.2   651  THR651     -0.2863
    218  CB        26.6820   19.0780   25.5340 C.3   651  THR651      0.1794
    219  OG1       26.7020   20.1170   26.5100 O.3   651  THR651     -0.2208
    220  CG2       28.0060   18.2770   25.5930 C.3   651  THR651      0.0378
@<TRIPOS>BOND
     1   172   171    2
     2   184   183    2
     3   193   192    2
     4   190   191    1
     5   183   182    1
     6   207   206    2
     7   194   191    1
     8   194   195    1
     9   202   201    2
    10   171   170    1
    11   171   181   am
    12   192   191    1
    13   192   199   am
    14   170   173    1
    15   170   169    1
    16   182   181    1
    17   182   185    1
    18   195   196    1
    19   206   205    1
    20   206   210   am
    21   201   200    1
    22   201   204   am
    23   205   204    1
    24   205   208    1
    25   173   174    1
    26   175   174   ar
    27   175   177   ar
    28   199   200    1
    29   200   203    1
    30   209   208    1
    31   156   157    2
    32   156   155    1
    33   185   186    1
    34   174   176   ar
    35   198   196   ar
    36   196   197   ar
    37   210   211    1
    38   177   179   ar
    39   164   163    2
    40   211   212    1
    41   213   212    2
    42   161   162    1
    43   212   214   am
    44   186   187    1
    45   154   155    1
    46   155   158    1
    47   163   162    1
    48   176   178   ar
    49   217   216    2
    50   214   215    1
    51   179   178   ar
    52   179   180    1
    53   162   165    1
    54   216   215    1
    55   215   218    1
    56   160   158    1
    57   165   166    1
    58   187   188    1
    59   158   159    1
    60   189   188    1
    61   135   136    2
    62   135   134    1
    63   166   167    2
    64   166   168   am
    65   218   220    1
    66   218   219    1
    67   138   137    1
    68   134   133    1
    69   134   137    1
    70   126   125    2
    71   133   125   am
    72   137   139    1
    73   125   124    1
    74   124   123    1
    75   124   127    1
    76    44    43    1
    77   127   128    1
    78   129   128   ar
    79   129   131   ar
    80    45    43    1
    81   128   130   ar
    82   140   141    1
    83   144   141    1
    84    23    22    1
    85    23    24    1
    86    43    42    1
    87   131   132   ar
    88    22    20   am
    89   141   142    1
    90    24    25    2
    91    24    26   am
    92    42    39    1
    93   130   132   ar
    94   111   110   ar
    95    69    68    2
    96   142   143    2
    97    26    27    1
    98    73    71   ar
    99    39    38    1
   100    39    40    1
   101    20    19    1
   102    20    21    2
   103    27    30    1
   104    27    28    1
   105    68    67    1
   106    71    72   ar
   107    71    70    1
   108    19    18    1
   109   110   112   ar
   110   110   109    1
   111    30    31    1
   112    41    40    2
   113    70    67    1
   114    32    31    1
   115    28    29    2
   116    28    34   am
   117   106   109    1
   118   106   105    1
   119   106   107    1
   120    31    33    1
   121    67    66    1
   122   145   146    1
   123    18    12   am
   124    13    12    2
   125    74    75    1
   126    34    35    1
   127    12    11    1
   128   107   108    2
   129    66    60   am
   130   148   147    2
   131    78    75    1
   132    78    79    1
   133    36    35    1
   134    36    37    2
   135   146   147    1
   136   146   149    1
   137    75    76    1
   138    14    11    1
   139    14    15    1
   140    60    61    2
   141    60    59    1
   142   122   121   ar
   143   122   120   ar
   144    11    10    1
   145    77    76    2
   146   121   119   ar
   147    79    80   ar
   148    79    81   ar
   149   149   150    1
   150    80    82   ar
   151    76    85   am
   152   150   151    1
   153     9     7   ar
   154    59    62    1
   155    59    58    1
   156    15    16    2
   157    15    17   am
   158   120   118   ar
   159   119   118   ar
   160    81    83   ar
   161    62    63    1
   162   113   114    1
   163    82    84   ar
   164     8     7   ar
   165   152   151   ar
   166     7     6    1
   167   118   117    1
   168    85    86    1
   169   151   153   ar
   170    65    63   am
   171    63    64    2
   172    83    84   ar
   173    93    91   ar
   174     5     6    1
   175     5     2    1
   176     4     3    2
   177    86    89    1
   178    86    87    1
   179    90    91    1
   180    90    89    1
   181   114   117    1
   182   114   115    1
   183    91    92   ar
   184   104   102    1
   185     3     2    1
   186     2     1    1
   187    87    88    2
   188    49    48    2
   189   115   116    2
   190    48    47    1
   191   102   101    2
   192   102   103    1
   193   101   100    1
   194    50    47    1
   195    50    51    1
   196    47    46    1
   197   100    99    1
   198    99    98    1
   199    53    51   ar
   200    53    55   ar
   201    51    52   ar
   202    55    56   ar
   203    98    95    1
   204    52    54   ar
   205    56    54   ar
   206    56    57    1
   207    97    96    2
   208    95    96    1
   209    95    94    1
