@<TRIPOS>MOLECULE
tmp/3mrxA00.pdb
 156 157 0 0 0
SMALL
GASTEIGER

@<TRIPOS>ATOM
      1  N         10.0420   14.0350   49.7150 N.3    46  HIS46      -0.1241
      2  CA        10.2610   12.9860   50.7040 C.3    46  HIS46       0.1621
      3  C          9.5320   11.7060   50.3030 C.2    46  HIS46       0.2264
      4  O         10.0630   10.6230   50.4650 O.2    46  HIS46      -0.2867
      5  CB         9.8190   13.4530   52.0920 C.3    46  HIS46       0.0745
      6  CG        10.8670   14.2410   52.8090 C.ar   46  HIS46       0.0817
      7  ND1       11.0800   15.5800   52.5650 N.ar   46  HIS46      -0.2268
      8  CD2       11.7800   13.8770   53.7380 C.ar   46  HIS46       0.1154
      9  CE1       12.0780   16.0100   53.3170 C.ar   46  HIS46       0.1986
     10  NE2       12.5190   14.9970   54.0390 N.ar   46  HIS46      -0.2212
     11  N         11.5620   10.1930   47.3770 N.3    49  ARG49      -0.1231
     12  CA        12.8580    9.7190   47.7910 C.3    49  ARG49       0.1694
     13  C         12.7600    8.4450   48.6060 C.2    49  ARG49       0.2592
     14  O         13.6770    7.6330   48.5690 O.2    49  ARG49      -0.2718
     15  CB        13.6370   10.7990   48.5510 C.3    49  ARG49       0.0321
     16  CG        13.4610   10.7370   50.0300 C.3    49  ARG49       0.0489
     17  CD        14.4090   11.6970   50.7440 C.3    49  ARG49       0.2205
     18  NE        14.2860   11.5100   52.1800 N.pl3  49  ARG49      -0.0865
     19  CZ        14.8150   12.3110   53.0940 C.cat  49  ARG49       0.5346
     20  NH1       15.5120   13.3860   52.7290 N.pl3  49  ARG49       0.1354
     21  NH2       14.6420   12.0310   54.3770 N.pl3  49  ARG49       0.1354
     22  N         11.6530    8.2600   49.3320 N.am   50  ASP50      -0.1974
     23  CA        11.4270    7.0000   50.0550 C.3    50  ASP50       0.1709
     24  C         11.5690    5.7770   49.1330 C.2    50  ASP50       0.2293
     25  O         12.0670    4.7380   49.5430 O.2    50  ASP50      -0.2864
     26  CB        10.0380    6.9760   50.7100 C.3    50  ASP50       0.1436
     27  CG         9.9930    7.7330   52.0170 C.2    50  ASP50       0.3671
     28  OD1        8.8710    7.9800   52.4940 O.co2  50  ASP50      -0.2456
     29  OD2       11.0680    8.0710   52.5710 O.co2  50  ASP50      -0.2456
     30  N         13.5220    5.4270   46.6050 N.3    52  LEU52      -0.1231
     31  CA        14.9080    5.1620   46.2490 C.3    52  LEU52       0.1693
     32  C         15.6850    4.3550   47.2800 C.2    52  LEU52       0.2591
     33  O         16.6710    3.7010   46.9270 O.2    52  LEU52      -0.2718
     34  CB        15.6540    6.4700   45.9890 C.3    52  LEU52       0.0284
     35  CG        15.4720    7.2050   44.6700 C.3    52  LEU52       0.0019
     36  CD1       16.0890    8.5990   44.7760 C.3    52  LEU52       0.0001
     37  CD2       16.0960    6.4280   43.5350 C.3    52  LEU52       0.0001
     38  N         15.2710    4.4090   48.5480 N.am   53  VAL53      -0.1980
     39  CA        16.1500    3.9450   49.6370 C.3    53  VAL53       0.1595
     40  C         16.5300    2.4670   49.5540 C.2    53  VAL53       0.2287
     41  O         17.7060    2.1220   49.6490 O.2    53  VAL53      -0.2864
     42  CB        15.6410    4.3300   51.0780 C.3    53  VAL53       0.0276
     43  CG1       15.3230    5.8080   51.1580 C.3    53  VAL53       0.0022
     44  CG2       14.4340    3.5570   51.4450 C.3    53  VAL53       0.0022
     45  N         18.8270    1.8470   46.6580 N.3    56  TRP56      -0.1241
     46  CA        20.1340    2.4050   46.9930 C.3    56  TRP56       0.1605
     47  C         20.9600    1.4830   47.8950 C.2    56  TRP56       0.2264
     48  O         22.1310    1.2230   47.6180 O.2    56  TRP56      -0.2867
     49  CB        19.9540    3.7830   47.6510 C.3    56  TRP56       0.0550
     50  CG        21.1470    4.6970   47.5480 C.ar   56  TRP56       0.0003
     51  CD1       22.2910    4.4940   46.8190 C.ar   56  TRP56       0.0946
     52  CD2       21.2910    5.9820   48.1640 C.ar   56  TRP56       0.0152
     53  NE1       23.1410    5.5650   46.9590 N.ar   56  TRP56      -0.2442
     54  CE2       22.5520    6.4940   47.7770 C.ar   56  TRP56       0.0810
     55  CE3       20.4810    6.7470   49.0100 C.ar   56  TRP56       0.0012
     56  CZ2       23.0230    7.7420   48.2130 C.ar   56  TRP56       0.0191
     57  CZ3       20.9510    7.9920   49.4470 C.ar   56  TRP56       0.0001
     58  CH2       22.2160    8.4700   49.0490 C.ar   56  TRP56       0.0015
     59  N         30.6660   19.8630   47.7010 N.3   149  ARG149     -0.1245
     60  CA        29.3620   20.4180   48.0070 C.3   149  ARG149      0.1563
     61  C         29.5050   21.9100   48.2520 C.2   149  ARG149      0.2260
     62  O         29.7020   22.3450   49.3890 O.2   149  ARG149     -0.2867
     63  CB        28.7510   19.6950   49.2130 C.3   149  ARG149      0.0307
     64  CG        27.3650   20.1680   49.6230 C.3   149  ARG149      0.0489
     65  CD        27.0140   19.4010   50.8930 C.3   149  ARG149      0.2205
     66  NE        25.7020   19.6710   51.4620 N.pl3 149  ARG149     -0.0865
     67  CZ        25.4880   20.5080   52.4700 C.cat 149  ARG149      0.5346
     68  NH1       24.2680   20.6480   52.9670 N.pl3 149  ARG149      0.1354
     69  NH2       26.4980   21.2090   52.9760 N.pl3 149  ARG149      0.1354
     70  N         16.7120   26.2830   52.2990 N.3   174  TYR174     -0.1227
     71  CA        15.5610   25.5420   52.8150 C.3   174  TYR174      0.1736
     72  C         15.8600   24.0660   53.0940 C.2   174  TYR174      0.2596
     73  O         14.9630   23.3040   53.4610 O.2   174  TYR174     -0.2718
     74  CB        14.3920   25.6470   51.8290 C.3   174  TYR174      0.0548
     75  CG        13.9290   27.0590   51.5390 C.ar  174  TYR174     -0.0200
     76  CD1       13.1260   27.7400   52.4410 C.ar  174  TYR174     -0.0009
     77  CD2       14.2780   27.7100   50.3520 C.ar  174  TYR174     -0.0009
     78  CE1       12.6850   29.0350   52.1880 C.ar  174  TYR174      0.0417
     79  CE2       13.8330   29.0150   50.0890 C.ar  174  TYR174      0.0417
     80  CZ        13.0410   29.6660   51.0190 C.ar  174  TYR174      0.1957
     81  OH        12.5840   30.9490   50.7930 O.3   174  TYR174     -0.2866
     82  N         17.1120   23.6590   52.9200 N.am  175  GLY175     -0.1942
     83  CA        17.4910   22.2650   53.1170 C.3   175  GLY175      0.2014
     84  C         17.4040   21.4990   51.8070 C.2   175  GLY175      0.2639
     85  O         16.6410   21.8560   50.9180 O.2   175  GLY175     -0.2714
     86  N         18.1910   20.4420   51.6950 N.am  176  ASN176     -0.1958
     87  CA        18.2680   19.6590   50.4700 C.3   176  ASN176      0.1804
     88  C         17.7740   18.2500   50.7840 C.2   176  ASN176      0.2463
     89  O         18.4420   17.5210   51.5020 O.2   176  ASN176     -0.2730
     90  CB        19.7200   19.6360   49.9760 C.3   176  ASN176      0.1195
     91  CG        19.9210   18.7540   48.7480 C.2   176  ASN176      0.2630
     92  OD1       18.9590   18.3390   48.0940 O.2   176  ASN176     -0.2716
     93  ND2       21.1850   18.4780   48.4220 N.am  176  ASN176     -0.0877
     94  N         16.5930   17.8710   50.2660 N.am  177  PRO177     -0.2716
     95  CA        16.0450   16.5490   50.5870 C.3   177  PRO177      0.1536
     96  C         16.7680   15.4000   49.8800 C.2   177  PRO177      0.2599
     97  O         16.5930   14.2470   50.2630 O.2   177  PRO177     -0.2715
     98  CB        14.5840   16.6570   50.1230 C.3   177  PRO177      0.0310
     99  CG        14.6120   17.6320   49.0290 C.3   177  PRO177      0.0237
    100  CD        15.7160   18.6210   49.3500 C.3   177  PRO177      0.0939
    101  N         17.6010   15.7230   48.8930 N.am  178  TRP178     -0.1960
    102  CA        18.2950   14.7230   48.0720 C.3   178  TRP178      0.1771
    103  C         19.6830   14.3140   48.5680 C.2   178  TRP178      0.2620
    104  O         20.3830   13.5560   47.8920 O.2   178  TRP178     -0.2715
    105  CB        18.3810   15.2150   46.6250 C.3   178  TRP178      0.0590
    106  CG        17.0510   15.6660   46.1100 C.ar  178  TRP178      0.0006
    107  CD1       16.6800   16.9410   45.7960 C.ar  178  TRP178      0.0946
    108  CD2       15.9080   14.8430   45.8760 C.ar  178  TRP178      0.0152
    109  NE1       15.3740   16.9650   45.3750 N.ar  178  TRP178     -0.2442
    110  CE2       14.8750   15.6880   45.4150 C.ar  178  TRP178      0.0810
    111  CE3       15.6570   13.4690   46.0110 C.ar  178  TRP178      0.0012
    112  CZ2       13.5990   15.2050   45.0810 C.ar  178  TRP178      0.0191
    113  CZ3       14.3860   12.9830   45.6680 C.ar  178  TRP178      0.0001
    114  CH2       13.3790   13.8520   45.2110 C.ar  178  TRP178      0.0015
    115  N         20.0930   14.7960   49.7370 N.am  179  GLU179     -0.1963
    116  CA        21.3950   14.4080   50.2630 C.3   179  GLU179      0.1733
    117  C         21.2830   13.7220   51.6160 C.2   179  GLU179      0.2616
    118  O         20.3700   13.9940   52.3910 O.2   179  GLU179     -0.2715
    119  CB        22.3230   15.6260   50.3880 C.3   179  GLU179      0.0429
    120  CG        21.8470   16.6100   51.4450 C.3   179  GLU179      0.1163
    121  CD        22.6660   17.8720   51.5170 C.2   179  GLU179      0.3649
    122  OE1       22.4970   18.5700   52.5310 O.co2 179  GLU179     -0.2457
    123  OE2       23.4450   18.1730   50.5730 O.co2 179  GLU179     -0.2457
    124  N         22.2310   12.8350   51.8900 N.am  180  LYS180     -0.1963
    125  CA        22.3780   12.2720   53.2220 C.3   180  LYS180      0.1728
    126  C         23.8020   12.5450   53.7100 C.2   180  LYS180      0.2616
    127  O         24.7670   12.0480   53.1220 O.2   180  LYS180     -0.2715
    128  CB        22.0750   10.7650   53.2270 C.3   180  LYS180      0.0311
    129  CG        22.2720   10.0900   54.5970 C.3   180  LYS180      0.0038
    130  CD        21.2720   10.6560   55.6040 C.3   180  LYS180      0.0206
    131  CE        21.5100   10.1380   57.0210 C.3   180  LYS180      0.1093
    132  NZ        22.7190   10.7190   57.6470 N.3   180  LYS180     -0.1314
    133  N         23.9160   13.3490   54.7670 N.am  181  ALA181     -0.1977
    134  CA        25.1920   13.5970   55.4340 C.3   181  ALA181      0.1597
    135  C         25.7590   12.2890   55.9540 C.2   181  ALA181      0.2287
    136  O         25.0180   11.4580   56.5070 O.2   181  ALA181     -0.2864
    137  CB        25.0080   14.5930   56.5830 C.3   181  ALA181      0.0319
    138  N         28.6570   14.0990   51.8090 N.3   215  TYR215     -0.1241
    139  CA        27.2080   14.0540   51.6480 C.3   215  TYR215      0.1605
    140  C         26.8980   13.1890   50.4310 C.2   215  TYR215      0.2264
    141  O         27.4340   13.4370   49.3480 O.2   215  TYR215     -0.2867
    142  CB        26.6590   15.4730   51.4010 C.3   215  TYR215      0.0534
    143  CG        26.6680   16.3560   52.6300 C.ar  215  TYR215     -0.0201
    144  CD1       27.8680   16.8730   53.1390 C.ar  215  TYR215     -0.0009
    145  CD2       25.4780   16.6630   53.2930 C.ar  215  TYR215     -0.0009
    146  CE1       27.8750   17.6750   54.2820 C.ar  215  TYR215      0.0417
    147  CE2       25.4700   17.4670   54.4240 C.ar  215  TYR215      0.0417
    148  CZ        26.6780   17.9690   54.9110 C.ar  215  TYR215      0.1957
    149  OH        26.6700   18.7600   56.0310 O.3   215  TYR215     -0.2866
    150  N         21.7470   10.1400   45.7780 N.3   218  PRO218     -0.2116
    151  CA        21.4600    9.0030   44.9130 C.3   218  PRO218      0.1372
    152  C         21.4210    9.3880   43.4410 C.2   218  PRO218      0.2244
    153  O         20.9420   10.4690   43.0910 O.2   218  PRO218     -0.2868
    154  CB        20.0580    8.5580   45.3690 C.3   218  PRO218      0.0268
    155  CG        19.4240    9.7910   45.8630 C.3   218  PRO218      0.0207
    156  CD        20.5470   10.5840   46.5090 C.3   218  PRO218      0.0892
@<TRIPOS>BOND
     1   153   152    2
     2   152   151    1
     3    37    35    1
     4    35    36    1
     5    35    34    1
     6   151   154    1
     7   151   150    1
     8   112   114   ar
     9   112   110   ar
    10   114   113   ar
    11   154   155    1
    12   109   110   ar
    13   109   107   ar
    14   110   108   ar
    15   113   111   ar
    16   150   156    1
    17   107   106   ar
    18   155   156    1
    19   108   111   ar
    20   108   106   ar
    21    34    31    1
    22   106   105    1
    23    31    30    1
    24    31    32    1
    25   105   102    1
    26    45    46    1
    27    51    53   ar
    28    51    50   ar
    29    33    32    2
    30    53    54   ar
    31    46    49    1
    32    46    47    1
    33    32    38   am
    34    11    12    1
    35    50    49    1
    36    50    52   ar
    37    48    47    2
    38    59    60    1
    39    54    52   ar
    40    54    56   ar
    41    12    15    1
    42    12    13    1
    43   104   103    2
    44    60    61    1
    45    60    63    1
    46   102   103    1
    47   102   101    1
    48    92    91    2
    49    52    55   ar
    50    56    58   ar
    51    61    62    2
    52    93    91   am
    53    38    39    1
    54    15    16    1
    55   103   115   am
    56    14    13    2
    57    13    22   am
    58    91    90    1
    59   101    96   am
    60    55    57   ar
    61    99   100    1
    62    99    98    1
    63    58    57   ar
    64    24    25    2
    65    24    23    1
    66    63    64    1
    67    22    23    1
    68   141   140    2
    69   100    94    1
    70    40    39    1
    71    40    41    2
    72    64    65    1
    73    39    42    1
    74     1     2    1
    75   115   116    1
    76    96    97    2
    77    96    95    1
    78    90    87    1
    79    16    17    1
    80    23    26    1
    81    79    77   ar
    82    79    80   ar
    83    98    95    1
    84   116   119    1
    85   116   117    1
    86    94    95    1
    87    94    88   am
    88     3     4    2
    89     3     2    1
    90    77    75   ar
    91   119   120    1
    92   140   139    1
    93    87    88    1
    94    87    86    1
    95   123   121   ar
    96     2     5    1
    97    26    27    1
    98    17    18    1
    99    88    89    2
   100    81    80    1
   101    65    66    1
   102    85    84    2
   103    80    78   ar
   104    42    43    1
   105    42    44    1
   106   142   139    1
   107   142   143    1
   108   120   121    1
   109    66    67    2
   110   121   122   ar
   111    75    74    1
   112    75    76   ar
   113   117   124   am
   114   117   118    2
   115   139   138    1
   116    86    84   am
   117    84    83    1
   118    74    71    1
   119   124   125    1
   120    27    28   ar
   121    27    29   ar
   122     5     6    1
   123    18    19    2
   124    78    76   ar
   125    70    71    1
   126    67    68    1
   127    67    69    1
   128     7     6   ar
   129     7     9   ar
   130   143   144   ar
   131   143   145   ar
   132    20    19    1
   133     6     8   ar
   134    71    72    1
   135    82    72   am
   136    82    83    1
   137    72    73    2
   138    19    21    1
   139   127   126    2
   140   144   146   ar
   141   125   128    1
   142   125   126    1
   143   128   129    1
   144   145   147   ar
   145     9    10   ar
   146   126   133   am
   147     8    10   ar
   148   146   148   ar
   149   147   148   ar
   150   129   130    1
   151   133   134    1
   152   148   149    1
   153   134   135    1
   154   134   137    1
   155   130   131    1
   156   135   136    2
   157   131   132    1
