@<TRIPOS>MOLECULE
tmp/3ms3A00.pdb
 99 94 0 0 0
SMALL
GASTEIGER

@<TRIPOS>ATOM
      1  N         32.8750   36.4150    0.2020 N.3   112  ASN112     -0.1225
      2  CA        33.0750   37.4620   -0.8100 C.3   112  ASN112      0.1785
      3  C         31.9450   38.4780   -0.7710 C.2   112  ASN112      0.2597
      4  O         30.9360   38.2760   -0.0990 O.2   112  ASN112     -0.2718
      5  CB        33.2120   36.8490   -2.2000 C.3   112  ASN112      0.1169
      6  CG        34.2630   37.4640   -3.0880 C.2   112  ASN112      0.2627
      7  OD1       34.6220   38.6290   -2.9170 O.2   112  ASN112     -0.2716
      8  ND2       34.7780   36.7180   -4.0630 N.am  112  ASN112     -0.0877
      9  N         32.1390   39.5510   -1.5080 N.am  113  ALA113     -0.1979
     10  CA        31.1550   40.5800   -1.7780 C.3   113  ALA113      0.1597
     11  C         31.3810   41.0560   -3.2120 C.2   113  ALA113      0.2287
     12  O         32.4820   40.9590   -3.7520 O.2   113  ALA113     -0.2864
     13  CB        31.2680   41.7190   -0.8040 C.3   113  ALA113      0.0319
     14  N         36.5710   35.1430    6.5740 N.3   130  PHE130     -0.1241
     15  CA        35.8840   36.4150    6.6930 C.3   130  PHE130      0.1605
     16  C         34.7580   36.3320    7.7310 C.2   130  PHE130      0.2264
     17  O         34.1670   35.2740    7.9390 O.2   130  PHE130     -0.2867
     18  CB        35.2530   36.8780    5.3890 C.3   130  PHE130      0.0534
     19  CG        36.1450   37.4780    4.3350 C.ar  130  PHE130     -0.0203
     20  CD1       36.6980   38.7330    4.4460 C.ar  130  PHE130     -0.0042
     21  CD2       36.4320   36.7420    3.1880 C.ar  130  PHE130     -0.0042
     22  CE1       37.5220   39.2760    3.4830 C.ar  130  PHE130     -0.0003
     23  CE2       37.2470   37.2890    2.2210 C.ar  130  PHE130     -0.0003
     24  CZ        37.7840   38.5440    2.3480 C.ar  130  PHE130     -0.0000
     25  N         31.0170   40.7650    5.2570 N.3   133  LEU133     -0.1245
     26  CA        31.9700   41.6070    4.5460 C.3   133  LEU133      0.1561
     27  C         31.5720   43.0720    4.5080 C.2   133  LEU133      0.2260
     28  O         32.4380   43.9290    4.2940 O.2   133  LEU133     -0.2867
     29  CB        32.2470   41.0480    3.1310 C.3   133  LEU133      0.0270
     30  CG        33.2910   39.9250    3.1280 C.3   133  LEU133      0.0019
     31  CD1       32.5870   38.6000    3.4180 C.3   133  LEU133      0.0001
     32  CD2       34.0980   39.8350    1.8570 C.3   133  LEU133      0.0001
     33  N         35.7000   47.6210    1.6790 N.3   139  VAL139     -0.1245
     34  CA        35.0550   46.6130    0.8550 C.3   139  VAL139      0.1561
     35  C         33.7770   47.1790    0.2390 C.2   139  VAL139      0.2260
     36  O         33.5370   47.0820   -0.9730 O.2   139  VAL139     -0.2867
     37  CB        34.7270   45.3510    1.6590 C.3   139  VAL139      0.0252
     38  CG1       33.9120   44.4120    0.7840 C.3   139  VAL139      0.0019
     39  CG2       36.0090   44.7170    2.1720 C.3   139  VAL139      0.0019
     40  N         34.8040   49.7300   -2.3750 N.3   142  HIS142     -0.1226
     41  CA        35.4170   49.0120   -3.4780 C.3   142  HIS142      0.1752
     42  C         34.3270   48.5800   -4.4250 C.2   142  HIS142      0.2595
     43  O         34.3290   48.7560   -5.6440 O.2   142  HIS142     -0.2718
     44  CB        36.1810   47.7890   -2.9490 C.3   142  HIS142      0.0759
     45  CG        36.7090   46.8520   -4.0180 C.ar  142  HIS142      0.0818
     46  ND1       38.0610   46.7780   -4.3000 N.ar  142  HIS142     -0.2268
     47  CD2       36.1730   45.9300   -4.8770 C.ar  142  HIS142      0.1154
     48  CE1       38.2690   45.8930   -5.2650 C.ar  142  HIS142      0.1986
     49  NE2       37.1500   45.3500   -5.6540 N.ar  142  HIS142     -0.2212
     50  N         33.3610   47.8730   -3.8280 N.am  143  GLU143     -0.1979
     51  CA        32.3190   47.3280   -4.6830 C.3   143  GLU143      0.1602
     52  C         31.4420   48.4040   -5.3290 C.2   143  GLU143      0.2287
     53  O         31.0490   48.2920   -6.5040 O.2   143  GLU143     -0.2864
     54  CB        31.4870   46.3970   -3.8430 C.3   143  GLU143      0.0415
     55  CG        32.0550   45.4500   -2.8620 C.3   143  GLU143      0.1163
     56  CD        32.8250   44.3740   -3.6220 C.2   143  GLU143      0.3649
     57  OE1       32.6960   44.4440   -4.8530 O.co2 143  GLU143     -0.2457
     58  OE2       33.4640   43.6250   -2.8750 O.co2 143  GLU143     -0.2457
     59  N         43.5730   46.4050    2.2620 N.3   188  ILE188     -0.1231
     60  CA        42.1960   46.1710    1.8270 C.3   188  ILE188      0.1692
     61  C         41.5770   45.0070    2.5890 C.2   188  ILE188      0.2592
     62  O         42.1190   43.9090    2.5430 O.2   188  ILE188     -0.2718
     63  CB        42.1680   45.8320    0.3320 C.3   188  ILE188      0.0266
     64  CG1       42.8740   46.8830   -0.5310 C.3   188  ILE188      0.0019
     65  CG2       40.7590   45.5640   -0.1810 C.3   188  ILE188      0.0020
     66  CD1       42.2480   48.2470   -0.5240 C.3   188  ILE188      0.0001
     67  N         40.4810   45.3060    3.2630 N.am  189  GLY189     -0.1957
     68  CA        39.6230   44.3140    3.8770 C.3   189  GLY189      0.1869
     69  C         40.0390   43.8860    5.2680 C.2   189  GLY189      0.2309
     70  O         39.4860   42.9300    5.8140 O.2   189  GLY189     -0.2863
     71  N         43.5170   41.3330    2.9400 N.3   202  LEU202     -0.1231
     72  CA        43.4200   40.5940    1.6880 C.3   202  LEU202      0.1693
     73  C         44.4860   41.0280    0.6800 C.2   202  LEU202      0.2591
     74  O         45.1090   40.2190   -0.0350 O.2   202  LEU202     -0.2718
     75  CB        42.0070   40.7880    1.1570 C.3   202  LEU202      0.0284
     76  CG        41.4770   39.8460    0.1010 C.3   202  LEU202      0.0019
     77  CD1       41.4320   38.4360    0.6530 C.3   202  LEU202      0.0001
     78  CD2       40.1110   40.3300   -0.3290 C.3   202  LEU202      0.0001
     79  N         44.7000   42.3530    0.6080 N.am  203  ARG203     -0.1980
     80  CA        45.7080   42.9480   -0.2580 C.3   203  ARG203      0.1597
     81  C         46.3080   44.1510    0.4700 C.2   203  ARG203      0.2287
     82  O         45.6680   44.7100    1.3570 O.2   203  ARG203     -0.2864
     83  CB        45.1480   43.4810   -1.5700 C.3   203  ARG203      0.0334
     84  CG        44.5980   42.4640   -2.5290 C.3   203  ARG203      0.0492
     85  CD        43.9940   43.1200   -3.7530 C.3   203  ARG203      0.2205
     86  NE        42.6960   43.7550   -3.6320 N.pl3 203  ARG203     -0.0865
     87  CZ        41.5290   43.1530   -3.5690 C.cat 203  ARG203      0.5346
     88  NH1       41.4510   41.8290   -3.5940 N.pl3 203  ARG203      0.1354
     89  NH2       40.4500   43.9140   -3.4780 N.pl3 203  ARG203      0.1354
     90  N         42.8990   40.5140   -9.8290 N.3   231  HIS231     -0.1241
     91  CA        43.1600   40.8200   -8.4170 C.3   231  HIS231      0.1621
     92  C         44.6210   40.6840   -8.0250 C.2   231  HIS231      0.2264
     93  O         44.9800   40.9060   -6.8640 O.2   231  HIS231     -0.2867
     94  CB        42.3990   39.8520   -7.5030 C.3   231  HIS231      0.0745
     95  CG        40.9250   40.0510   -7.5610 C.ar  231  HIS231      0.0817
     96  ND1       40.1170   39.2680   -8.3700 N.ar  231  HIS231     -0.2268
     97  CD2       40.1220   40.9360   -6.9190 C.ar  231  HIS231      0.1154
     98  CE1       38.8510   39.6730   -8.2170 C.ar  231  HIS231      0.1986
     99  NE2       38.8680   40.6750   -7.3520 N.ar  231  HIS231     -0.2212
@<TRIPOS>BOND
     1    90    91    1
     2    91    92    1
     3    91    94    1
     4    96    98   ar
     5    96    95   ar
     6    98    99   ar
     7    92    93    2
     8    95    94    1
     9    95    97   ar
    10    99    97   ar
    11    53    52    2
    12    49    48   ar
    13    49    47   ar
    14    43    42    2
    15    52    51    1
    16    48    46   ar
    17    47    45   ar
    18    57    56   ar
    19    51    54    1
    20    51    50    1
    21    42    50   am
    22    42    41    1
    23    46    45   ar
    24     8     6   am
    25    45    44    1
    26    54    55    1
    27    85    86    1
    28    85    84    1
    29    12    11    2
    30    86    87    2
    31    56    58   ar
    32    56    55    1
    33    88    87    1
    34    87    89    1
    35    41    44    1
    36    41    40    1
    37    11    10    1
    38     6     7    2
    39     6     5    1
    40    84    83    1
    41     5     2    1
    42    10     9    1
    43    10    13    1
    44    83    80    1
    45     9     3   am
    46    36    35    2
    47     2     3    1
    48     2     1    1
    49     3     4    2
    50    64    66    1
    51    64    63    1
    52    78    76    1
    53    80    81    1
    54    80    79    1
    55    65    63    1
    56    74    73    2
    57    76    77    1
    58    76    75    1
    59    35    34    1
    60    63    60    1
    61    81    82    2
    62    79    73   am
    63    73    72    1
    64    38    37    1
    65    34    37    1
    66    34    33    1
    67    75    72    1
    68    37    39    1
    69    72    71    1
    70    60    59    1
    71    60    61    1
    72    32    30    1
    73    23    24   ar
    74    23    21   ar
    75    24    22   ar
    76    62    61    2
    77    61    67   am
    78    30    29    1
    79    30    31    1
    80    29    26    1
    81    21    19   ar
    82    67    68    1
    83    22    20   ar
    84    68    69    1
    85    28    27    2
    86    19    20   ar
    87    19    18    1
    88    27    26    1
    89    26    25    1
    90    69    70    2
    91    18    15    1
    92    14    15    1
    93    15    16    1
    94    16    17    2
