@<TRIPOS>MOLECULE
tmp/3ms4A00.pdb
 134 134 0 0 0
SMALL
GASTEIGER

@<TRIPOS>ATOM
      1  N         11.6380   10.3290   47.7230 N.3    49  ARG49      -0.1231
      2  CA        12.9400    9.8540   48.1500 C.3    49  ARG49       0.1694
      3  C         12.8540    8.5890   48.9780 C.2    49  ARG49       0.2592
      4  O         13.8090    7.8150   49.0230 O.2    49  ARG49      -0.2718
      5  CB        13.6840   10.9430   48.9320 C.3    49  ARG49       0.0321
      6  CG        13.4930   10.8640   50.4250 C.3    49  ARG49       0.0489
      7  CD        14.1990   11.9980   51.1400 C.3    49  ARG49       0.2205
      8  NE        14.1820   11.8120   52.5850 N.pl3  49  ARG49      -0.0865
      9  CZ        14.8300   12.6080   53.4420 C.cat  49  ARG49       0.5346
     10  NH1       15.5530   13.6340   52.9930 N.pl3  49  ARG49       0.1354
     11  NH2       14.7710   12.3720   54.7440 N.pl3  49  ARG49       0.1354
     12  N         11.7370    8.3880   49.6760 N.am   50  ASP50      -0.1974
     13  CA        11.5560    7.1370   50.4230 C.3    50  ASP50       0.1709
     14  C         11.7470    5.9170   49.5040 C.2    50  ASP50       0.2293
     15  O         12.3040    4.9000   49.9230 O.2    50  ASP50      -0.2864
     16  CB        10.1550    7.0820   51.0590 C.3    50  ASP50       0.1436
     17  CG        10.0770    7.8420   52.3730 C.2    50  ASP50       0.3671
     18  OD1        8.9570    8.1930   52.7700 O.co2  50  ASP50      -0.2456
     19  OD2       11.1220    8.0690   53.0130 O.co2  50  ASP50      -0.2456
     20  N         13.7880    5.5470   46.9660 N.3    52  LEU52      -0.1231
     21  CA        15.2160    5.3000   46.6800 C.3    52  LEU52       0.1693
     22  C         15.9770    4.4830   47.7110 C.2    52  LEU52       0.2591
     23  O         16.9530    3.7980   47.3600 O.2    52  LEU52      -0.2718
     24  CB        15.9620    6.6340   46.5220 C.3    52  LEU52       0.0284
     25  CG        15.6990    7.4560   45.2730 C.3    52  LEU52       0.0019
     26  CD1       16.1720    8.9100   45.4590 C.3    52  LEU52       0.0001
     27  CD2       16.3440    6.7960   44.0660 C.3    52  LEU52       0.0001
     28  N         15.6050    4.5840   48.9890 N.am   53  VAL53      -0.1980
     29  CA        16.5080    4.0980   50.0510 C.3    53  VAL53       0.1595
     30  C         16.8350    2.6100   49.9730 C.2    53  VAL53       0.2287
     31  O         17.9970    2.2290   50.0770 O.2    53  VAL53      -0.2864
     32  CB        16.0950    4.5260   51.5230 C.3    53  VAL53       0.0276
     33  CG1       15.9910    6.0400   51.6410 C.3    53  VAL53       0.0022
     34  CG2       14.7970    3.9130   51.9360 C.3    53  VAL53       0.0022
     35  N         19.0620    2.0880   47.0750 N.3    56  TRP56      -0.1241
     36  CA        20.3830    2.6480   47.3840 C.3    56  TRP56       0.1605
     37  C         21.2100    1.7400   48.3000 C.2    56  TRP56       0.2264
     38  O         22.3890    1.5090   48.0500 O.2    56  TRP56      -0.2867
     39  CB        20.2310    4.0530   47.9990 C.3    56  TRP56       0.0550
     40  CG        21.4460    4.9710   47.8940 C.ar   56  TRP56       0.0003
     41  CD1       22.5780    4.7790   47.1470 C.ar   56  TRP56       0.0946
     42  CD2       21.6030    6.2530   48.5320 C.ar   56  TRP56       0.0152
     43  NE1       23.4310    5.8580   47.2900 N.ar   56  TRP56      -0.2442
     44  CE2       22.8600    6.7710   48.1360 C.ar   56  TRP56       0.0810
     45  CE3       20.8100    7.0030   49.4120 C.ar   56  TRP56       0.0012
     46  CZ2       23.3440    8.0030   48.5930 C.ar   56  TRP56       0.0191
     47  CZ3       21.2960    8.2440   49.8640 C.ar   56  TRP56       0.0001
     48  CH2       22.5490    8.7260   49.4450 C.ar   56  TRP56       0.0015
     49  N         30.8890   20.0320   48.0300 N.3   149  ARG149     -0.1245
     50  CA        29.5840   20.6100   48.3320 C.3   149  ARG149      0.1563
     51  C         29.7000   22.1150   48.5950 C.2   149  ARG149      0.2260
     52  O         29.9180   22.5470   49.7290 O.2   149  ARG149     -0.2867
     53  CB        28.9490   19.8800   49.5150 C.3   149  ARG149      0.0307
     54  CG        27.5630   20.3710   49.9220 C.3   149  ARG149      0.0489
     55  CD        27.2380   19.6470   51.2200 C.3   149  ARG149      0.2205
     56  NE        25.9110   19.8880   51.7680 N.pl3 149  ARG149     -0.0865
     57  CZ        25.6430   20.7880   52.7110 C.cat 149  ARG149      0.5346
     58  NH1       24.4090   20.8940   53.1810 N.pl3 149  ARG149      0.1354
     59  NH2       26.6020   21.5830   53.1800 N.pl3 149  ARG149      0.1354
     60  N         17.0860   23.8110   53.0880 N.3   175  GLY175     -0.1210
     61  CA        17.4400   22.4200   53.2720 C.3   175  GLY175      0.1956
     62  C         17.4070   21.6300   51.9730 C.2   175  GLY175      0.2612
     63  O         16.6830   21.9630   51.0330 O.2   175  GLY175     -0.2717
     64  N         18.2000   20.5760   51.9150 N.am  176  ASN176     -0.1960
     65  CA        18.2980   19.7630   50.7180 C.3   176  ASN176      0.1804
     66  C         17.7990   18.3460   51.0570 C.2   176  ASN176      0.2463
     67  O         18.4660   17.6170   51.7750 O.2   176  ASN176     -0.2730
     68  CB        19.7380   19.7570   50.2020 C.3   176  ASN176      0.1195
     69  CG        19.9330   18.8480   48.9970 C.2   176  ASN176      0.2630
     70  OD1       18.9560   18.4140   48.3710 O.2   176  ASN176     -0.2716
     71  ND2       21.2020   18.5590   48.6620 N.am  176  ASN176     -0.0877
     72  N         16.6040   17.9760   50.5590 N.am  177  PRO177     -0.2716
     73  CA        16.0860   16.6420   50.8730 C.3   177  PRO177      0.1536
     74  C         16.8400   15.4900   50.1950 C.2   177  PRO177      0.2599
     75  O         16.6880   14.3510   50.6000 O.2   177  PRO177     -0.2715
     76  CB        14.6170   16.7080   50.4160 C.3   177  PRO177      0.0310
     77  CG        14.5600   17.7690   49.3910 C.3   177  PRO177      0.0237
     78  CD        15.6810   18.7550   49.7090 C.3   177  PRO177      0.0939
     79  N         17.6440   15.7880   49.1820 N.am  178  TRP178     -0.1960
     80  CA        18.3450   14.7620   48.4240 C.3   178  TRP178      0.1771
     81  C         19.7380   14.4150   48.9520 C.2   178  TRP178      0.2620
     82  O         20.4610   13.6630   48.3030 O.2   178  TRP178     -0.2715
     83  CB        18.4500   15.1930   46.9600 C.3   178  TRP178      0.0590
     84  CG        17.1480   15.6550   46.4190 C.ar  178  TRP178      0.0006
     85  CD1       16.7900   16.9360   46.0940 C.ar  178  TRP178      0.0946
     86  CD2       16.0100   14.8390   46.1710 C.ar  178  TRP178      0.0152
     87  NE1       15.4910   16.9580   45.6480 N.ar  178  TRP178     -0.2442
     88  CE2       14.9920   15.6780   45.6870 C.ar  178  TRP178      0.0810
     89  CE3       15.7550   13.4660   46.3120 C.ar  178  TRP178      0.0012
     90  CZ2       13.7310   15.1930   45.3340 C.ar  178  TRP178      0.0191
     91  CZ3       14.5040   12.9810   45.9630 C.ar  178  TRP178      0.0001
     92  CH2       13.5090   13.8430   45.4780 C.ar  178  TRP178      0.0015
     93  N         20.1490   14.9620   50.0930 N.am  179  GLU179     -0.1963
     94  CA        21.4730   14.6130   50.6040 C.3   179  GLU179      0.1733
     95  C         21.3970   13.9260   51.9600 C.2   179  GLU179      0.2616
     96  O         20.4670   14.1580   52.7220 O.2   179  GLU179     -0.2715
     97  CB        22.3830   15.8470   50.7090 C.3   179  GLU179      0.0429
     98  CG        22.0020   16.8170   51.8360 C.3   179  GLU179      0.1163
     99  CD        22.8000   18.1120   51.7900 C.2   179  GLU179      0.3649
    100  OE1       22.5950   18.9270   52.7030 O.co2 179  GLU179     -0.2457
    101  OE2       23.6010   18.3330   50.8390 O.co2 179  GLU179     -0.2457
    102  N         22.3870   13.0870   52.2430 N.am  180  LYS180     -0.1963
    103  CA        22.5430   12.5120   53.5690 C.3   180  LYS180      0.1728
    104  C         23.9490   12.8250   54.0740 C.2   180  LYS180      0.2616
    105  O         24.9360   12.3240   53.5140 O.2   180  LYS180     -0.2715
    106  CB        22.3160   10.9860   53.5510 C.3   180  LYS180      0.0311
    107  CG        22.4510   10.3200   54.9260 C.3   180  LYS180      0.0038
    108  CD        21.4390   10.9140   55.8870 C.3   180  LYS180      0.0206
    109  CE        21.5930   10.3800   57.3060 C.3   180  LYS180      0.1093
    110  NZ        22.8080   10.8680   57.9810 N.3   180  LYS180     -0.1314
    111  N         24.0290   13.6570   55.1140 N.am  181  ALA181     -0.1977
    112  CA        25.2860   13.9200   55.8100 C.3   181  ALA181      0.1597
    113  C         25.8460   12.6340   56.3770 C.2   181  ALA181      0.2287
    114  O         25.1080   11.8340   56.9700 O.2   181  ALA181     -0.2864
    115  CB        25.0740   14.9200   56.9350 C.3   181  ALA181      0.0319
    116  N         28.9150   14.3350   52.1310 N.3   215  TYR215     -0.1241
    117  CA        27.4590   14.2840   51.9610 C.3   215  TYR215      0.1605
    118  C         27.1280   13.4330   50.7430 C.2   215  TYR215      0.2264
    119  O         27.6310   13.7160   49.6400 O.2   215  TYR215     -0.2867
    120  CB        26.9190   15.6940   51.7090 C.3   215  TYR215      0.0534
    121  CG        26.8820   16.5930   52.9310 C.ar  215  TYR215     -0.0201
    122  CD1       28.0520   17.1690   53.4460 C.ar  215  TYR215     -0.0009
    123  CD2       25.6670   16.8740   53.5640 C.ar  215  TYR215     -0.0009
    124  CE1       28.0060   18.0100   54.5690 C.ar  215  TYR215      0.0417
    125  CE2       25.6020   17.6900   54.6680 C.ar  215  TYR215      0.0417
    126  CZ        26.7800   18.2520   55.1780 C.ar  215  TYR215      0.1957
    127  OH        26.7030   19.0690   56.2790 O.3   215  TYR215     -0.2866
    128  N         21.9530   10.3280   46.0460 N.3   218  PRO218     -0.2116
    129  CA        21.7140    9.1510   45.1990 C.3   218  PRO218      0.1372
    130  C         21.7270    9.4920   43.7190 C.2   218  PRO218      0.2244
    131  O         21.3380   10.5920   43.3310 O.2   218  PRO218     -0.2868
    132  CB        20.2940    8.7270   45.6000 C.3   218  PRO218      0.0268
    133  CG        19.6200   10.0270   45.9360 C.3   218  PRO218      0.0207
    134  CD        20.7050   10.7860   46.6950 C.3   218  PRO218      0.0892
@<TRIPOS>BOND
     1   131   130    2
     2   130   129    1
     3    27    25    1
     4   129   132    1
     5   129   128    1
     6    25    26    1
     7    25    24    1
     8    90    92   ar
     9    90    88   ar
    10    92    91   ar
    11   132   133    1
    12    87    88   ar
    13    87    85   ar
    14    88    86   ar
    15   133   134    1
    16    91    89   ar
    17   128   134    1
    18    85    84   ar
    19    86    89   ar
    20    86    84   ar
    21    84    83    1
    22    24    21    1
    23    21    20    1
    24    21    22    1
    25    83    80    1
    26    35    36    1
    27    41    43   ar
    28    41    40   ar
    29    43    44   ar
    30    23    22    2
    31    36    39    1
    32    36    37    1
    33    22    28   am
    34     1     2    1
    35    40    39    1
    36    40    42   ar
    37    49    50    1
    38    38    37    2
    39    44    42   ar
    40    44    46   ar
    41     2     5    1
    42     2     3    1
    43    82    81    2
    44    50    51    1
    45    50    53    1
    46    70    69    2
    47    80    81    1
    48    80    79    1
    49    42    45   ar
    50    46    48   ar
    51    51    52    2
    52    71    69   am
    53     5     6    1
    54    81    93   am
    55     3     4    2
    56     3    12   am
    57    28    29    1
    58    69    68    1
    59    79    74   am
    60    77    78    1
    61    77    76    1
    62    45    47   ar
    63    48    47   ar
    64    14    15    2
    65    14    13    1
    66    53    54    1
    67   119   118    2
    68    12    13    1
    69    78    72    1
    70    54    55    1
    71    30    29    1
    72    30    31    2
    73    29    32    1
    74    93    94    1
    75    74    75    2
    76    74    73    1
    77    68    65    1
    78    76    73    1
    79    13    16    1
    80     6     7    1
    81    72    73    1
    82    72    66   am
    83    94    97    1
    84    94    95    1
    85    97    98    1
    86    65    66    1
    87    65    64    1
    88   118   117    1
    89   101    99   ar
    90    63    62    2
    91    66    67    2
    92    16    17    1
    93     7     8    1
    94    55    56    1
    95    32    33    1
    96    32    34    1
    97   120   117    1
    98   120   121    1
    99    56    57    2
   100    99    98    1
   101    99   100   ar
   102    64    62   am
   103    95   102   am
   104    95    96    2
   105   117   116    1
   106    62    61    1
   107   102   103    1
   108    17    18   ar
   109    17    19   ar
   110     8     9    2
   111    57    59    1
   112    57    58    1
   113   121   122   ar
   114   121   123   ar
   115    10     9    1
   116    60    61    1
   117     9    11    1
   118   122   124   ar
   119   105   104    2
   120   106   103    1
   121   106   107    1
   122   123   125   ar
   123   103   104    1
   124   104   111   am
   125   124   126   ar
   126   125   126   ar
   127   107   108    1
   128   111   112    1
   129   126   127    1
   130   112   113    1
   131   112   115    1
   132   108   109    1
   133   113   114    2
   134   109   110    1
