@<TRIPOS>MOLECULE
tmp/3ms4A01.pdb
 226 216 0 0 0
SMALL
GASTEIGER

@<TRIPOS>ATOM
      1  N         33.0690   20.2100   39.5440 N.3    77  GLU77      -0.1245
      2  CA        31.7560   20.6910   39.1560 C.3    77  GLU77       0.1567
      3  C         30.7980   19.5510   38.8440 C.2    77  GLU77       0.2260
      4  O         31.1450   18.6290   38.0980 O.2    77  GLU77      -0.2867
      5  CB        31.8620   21.6210   37.9410 C.3    77  GLU77       0.0388
      6  CG        32.6410   22.9000   38.2120 C.3    77  GLU77       0.1160
      7  CD        32.6040   23.8480   37.0450 C.2    77  GLU77       0.3649
      8  OE1       33.4810   24.7170   36.9940 O.co2  77  GLU77      -0.2457
      9  OE2       31.7080   23.7260   36.1630 O.co2  77  GLU77      -0.2457
     10  N         29.6670   25.5520   36.2410 N.3   122  ASN122     -0.1225
     11  CA        29.6130   26.7380   35.3910 C.3   122  ASN122      0.1785
     12  C         28.8330   26.5840   34.0870 C.2   122  ASN122      0.2598
     13  O         28.1010   27.4790   33.6850 O.2   122  ASN122     -0.2718
     14  CB        31.0310   27.1970   35.0750 C.3   122  ASN122      0.1169
     15  CG        31.6270   27.9780   36.2060 C.2   122  ASN122      0.2627
     16  OD1       31.2520   29.1360   36.4240 O.2   122  ASN122     -0.2716
     17  ND2       32.5350   27.3450   36.9670 N.am  122  ASN122     -0.0877
     18  N         29.0210   25.4510   33.4220 N.am  123  GLY123     -0.1942
     19  CA        28.4750   25.2440   32.0860 C.3   123  GLY123      0.2014
     20  C         28.6950   23.8260   31.6370 C.2   123  GLY123      0.2639
     21  O         28.3730   22.8730   32.3730 O.2   123  GLY123     -0.2714
     22  N         29.2540   23.6880   30.4380 N.am  124  GLY124     -0.1939
     23  CA        29.3090   22.4030   29.7430 C.3   124  GLY124      0.2014
     24  C         30.0490   21.2940   30.4700 C.2   124  GLY124      0.2638
     25  O         29.5780   20.1580   30.5330 O.2   124  GLY124     -0.2714
     26  N         31.2280   21.6100   31.0090 N.am  125  LEU125     -0.1977
     27  CA        31.9870   20.6370   31.8040 C.3   125  LEU125      0.1596
     28  C         31.1830   20.1210   33.0310 C.2   125  LEU125      0.2287
     29  O         31.1710   18.9120   33.3060 O.2   125  LEU125     -0.2864
     30  CB        33.3480   21.2370   32.2340 C.3   125  LEU125      0.0297
     31  CG        34.2460   20.5490   33.2820 C.3   125  LEU125      0.0022
     32  CD1       35.7490   20.9500   33.1200 C.3   125  LEU125      0.0001
     33  CD2       33.7830   20.8940   34.6700 C.3   125  LEU125      0.0001
     34  N         28.1790   18.0580   31.8160 N.3   128  LEU128     -0.1245
     35  CA        28.6990   16.7910   31.3140 C.3   128  LEU128      0.1561
     36  C         28.8530   15.7650   32.4220 C.2   128  LEU128      0.2260
     37  O         28.4760   14.6130   32.2480 O.2   128  LEU128     -0.2867
     38  CB        30.0360   16.9670   30.5830 C.3   128  LEU128      0.0270
     39  CG        30.5030   15.6950   29.8490 C.3   128  LEU128      0.0019
     40  CD1       29.6750   15.4430   28.5710 C.3   128  LEU128      0.0001
     41  CD2       32.0180   15.6820   29.5310 C.3   128  LEU128      0.0001
     42  N         31.5960   28.3200   44.6550 N.3   262  LEU262     -0.1231
     43  CA        32.0970   27.9240   43.3460 C.3   262  LEU262      0.1693
     44  C         32.7040   29.1240   42.6190 C.2   262  LEU262      0.2592
     45  O         32.0580   30.1670   42.4620 O.2   262  LEU262     -0.2718
     46  CB        30.9830   27.2780   42.5010 C.3   262  LEU262      0.0284
     47  CG        31.1720   27.0330   40.9890 C.3   262  LEU262      0.0019
     48  CD1       32.0800   25.8180   40.6520 C.3   262  LEU262      0.0001
     49  CD2       29.7950   26.8620   40.3040 C.3   262  LEU262      0.0001
     50  N         33.9570   28.9740   42.2050 N.am  263  TYR263     -0.1976
     51  CA        34.5920   29.9110   41.2710 C.3   263  TYR263      0.1639
     52  C         33.8540   29.9670   39.9220 C.2   263  TYR263      0.2290
     53  O         33.6640   28.9270   39.2680 O.2   263  TYR263     -0.2864
     54  CB        36.0480   29.5090   41.0510 C.3   263  TYR263      0.0560
     55  CG        36.9480   30.0450   42.1300 C.ar  263  TYR263     -0.0198
     56  CD1       37.0680   29.3940   43.3480 C.ar  263  TYR263     -0.0009
     57  CD2       37.6370   31.2380   41.9410 C.ar  263  TYR263     -0.0009
     58  CE1       37.8790   29.9030   44.3550 C.ar  263  TYR263      0.0417
     59  CE2       38.4510   31.7600   42.9400 C.ar  263  TYR263      0.0417
     60  CZ        38.5680   31.0890   44.1380 C.ar  263  TYR263      0.1957
     61  OH        39.3740   31.6060   45.1140 O.3   263  TYR263     -0.2866
     62  N         34.8050   32.0140   37.2230 N.3   265  ASN265     -0.1225
     63  CA        35.6770   32.5620   36.1680 C.3   265  ASN265      0.1785
     64  C         36.0830   31.4800   35.1960 C.2   265  ASN265      0.2597
     65  O         37.2140   30.9900   35.2500 O.2   265  ASN265     -0.2718
     66  CB        36.9390   33.2140   36.7530 C.3   265  ASN265      0.1169
     67  CG        37.6640   32.3030   37.7480 C.2   265  ASN265      0.2627
     68  OD1       37.1420   32.0190   38.8300 O.2   265  ASN265     -0.2716
     69  ND2       38.8680   31.8430   37.3860 N.am  265  ASN265     -0.0877
     70  N         35.1630   31.0930   34.3180 N.am  266  ASP266     -0.1974
     71  CA        35.4460   30.0250   33.3570 C.3   266  ASP266      0.1709
     72  C         36.2790   30.5370   32.1780 C.2   266  ASP266      0.2293
     73  O         36.7260   29.7540   31.3320 O.2   266  ASP266     -0.2864
     74  CB        34.1560   29.3660   32.8710 C.3   266  ASP266      0.1436
     75  CG        33.2770   30.3060   32.0600 C.2   266  ASP266      0.3671
     76  OD1       33.4060   31.5490   32.1900 O.co2 266  ASP266     -0.2456
     77  OD2       32.4410   29.7900   31.2850 O.co2 266  ASP266     -0.2456
     78  N         39.2110   32.6690   32.4140 N.3   268  PHE268     -0.1227
     79  CA        40.5880   33.0820   32.6370 C.3   268  PHE268      0.1736
     80  C         41.1610   32.4470   33.9000 C.2   268  PHE268      0.2595
     81  O         40.6160   32.6210   34.9930 O.2   268  PHE268     -0.2718
     82  CB        40.6280   34.6150   32.7280 C.3   268  PHE268      0.0547
     83  CG        41.9990   35.1910   32.9500 C.ar  268  PHE268     -0.0202
     84  CD1       42.9000   35.3150   31.8880 C.ar  268  PHE268     -0.0042
     85  CD2       42.3800   35.6420   34.2160 C.ar  268  PHE268     -0.0042
     86  CE1       44.1780   35.8560   32.0840 C.ar  268  PHE268     -0.0003
     87  CE2       43.6590   36.1920   34.4280 C.ar  268  PHE268     -0.0003
     88  CZ        44.5580   36.2970   33.3550 C.ar  268  PHE268     -0.0000
     89  N         42.2560   31.7080   33.7510 N.am  269  PHE269     -0.1976
     90  CA        42.8910   31.1040   34.9160 C.3   269  PHE269      0.1639
     91  C         43.3920   32.1930   35.8590 C.2   269  PHE269      0.2290
     92  O         44.1280   33.1060   35.4620 O.2   269  PHE269     -0.2864
     93  CB        44.0220   30.1380   34.5270 C.3   269  PHE269      0.0560
     94  CG        44.8180   29.6150   35.7090 C.ar  269  PHE269     -0.0200
     95  CD1       46.1500   29.9900   35.8910 C.ar  269  PHE269     -0.0042
     96  CD2       44.2280   28.7670   36.6460 C.ar  269  PHE269     -0.0042
     97  CE1       46.8840   29.5160   36.9790 C.ar  269  PHE269     -0.0003
     98  CE2       44.9520   28.2890   37.7390 C.ar  269  PHE269     -0.0003
     99  CZ        46.2790   28.6600   37.9060 C.ar  269  PHE269     -0.0000
    100  N         41.3240   28.6610   45.4810 N.3   275  ARG275     -0.1245
    101  CA        41.0160   27.6860   44.4270 C.3   275  ARG275      0.1563
    102  C         41.9590   26.4790   44.4840 C.2   275  ARG275      0.2260
    103  O         41.5350   25.3320   44.2820 O.2   275  ARG275     -0.2867
    104  CB        41.0630   28.3540   43.0550 C.3   275  ARG275      0.0307
    105  CG        41.0490   27.4090   41.8490 C.3   275  ARG275      0.0489
    106  CD        39.7090   26.6750   41.6940 C.3   275  ARG275      0.2205
    107  NE        39.6360   25.9910   40.4060 N.pl3 275  ARG275     -0.0865
    108  CZ        38.5420   25.4220   39.9090 C.cat 275  ARG275      0.5346
    109  NH1       37.3980   25.4440   40.5790 N.pl3 275  ARG275      0.1354
    110  NH2       38.5920   24.8380   38.7250 N.pl3 275  ARG275      0.1354
    111  N         39.2270   17.3600   33.4310 N.3   313  ASP313     -0.1239
    112  CA        40.1300   18.4870   33.2020 C.3   313  ASP313      0.1674
    113  C         41.3110   18.4410   34.1660 C.2   313  ASP313      0.2266
    114  O         41.5510   17.4230   34.8020 O.2   313  ASP313     -0.2867
    115  CB        39.4030   19.8330   33.2790 C.3   313  ASP313      0.1410
    116  CG        39.9630   20.8190   32.2960 C.2   313  ASP313      0.3668
    117  OD1       39.2020   21.3620   31.4900 O.co2 313  ASP313     -0.2456
    118  OD2       41.1960   21.0020   32.2950 O.co2 313  ASP313     -0.2456
    119  N         41.6380   20.1860   36.9040 N.3   315  HIS315     -0.1241
    120  CA        41.3050   20.6690   38.2440 C.3   315  HIS315      0.1621
    121  C         41.6270   19.6940   39.3720 C.2   315  HIS315      0.2264
    122  O         42.0580   20.1310   40.4320 O.2   315  HIS315     -0.2867
    123  CB        39.8710   21.2260   38.3690 C.3   315  HIS315      0.0745
    124  CG        39.4430   22.0470   37.1990 C.ar  315  HIS315      0.0817
    125  ND1       38.1550   22.0210   36.7070 N.ar  315  HIS315     -0.2268
    126  CD2       40.1380   22.8930   36.3980 C.ar  315  HIS315      0.1154
    127  CE1       38.0750   22.8230   35.6590 C.ar  315  HIS315      0.1986
    128  NE2       39.2640   23.3620   35.4480 N.ar  315  HIS315     -0.2212
    129  N         39.1060   19.4360   28.1940 N.3   351  HIS351     -0.1226
    130  CA        37.8670   20.1050   27.8230 C.3   351  HIS351      0.1752
    131  C         38.1000   21.4570   27.1530 C.2   351  HIS351      0.2596
    132  O         37.1300   22.1570   26.8570 O.2   351  HIS351     -0.2718
    133  CB        36.9700   20.3070   29.0460 C.3   351  HIS351      0.0759
    134  CG        36.5080   19.0380   29.6730 C.ar  351  HIS351      0.0818
    135  ND1       35.3500   18.3980   29.2910 N.ar  351  HIS351     -0.2268
    136  CD2       37.0400   18.2920   30.6670 C.ar  351  HIS351      0.1154
    137  CE1       35.1870   17.3140   30.0240 C.ar  351  HIS351      0.1986
    138  NE2       36.2010   17.2250   30.8660 N.ar  351  HIS351     -0.2212
    139  N         39.3630   21.8300   26.9190 N.am  352  THR352     -0.1953
    140  CA        39.6580   23.0690   26.1720 C.3   352  THR352      0.1897
    141  C         41.0370   23.2040   25.5270 C.2   352  THR352      0.2313
    142  O         42.0010   22.5200   25.9030 O.2   352  THR352     -0.2863
    143  CB        39.4520   24.3280   27.0030 C.3   352  THR352      0.1794
    144  OG1       39.4570   25.4670   26.1220 O.3   352  THR352     -0.2208
    145  CG2       40.5580   24.4510   28.0520 C.3   352  THR352      0.0378
    146  N         42.9370   29.6300   29.6280 N.3   357  ALA357     -0.1245
    147  CA        42.1730   28.7640   30.5250 C.3   357  ALA357      0.1562
    148  C         43.0260   27.6710   31.1750 C.2   357  ALA357      0.2260
    149  O         42.5890   27.0480   32.1460 O.2   357  ALA357     -0.2867
    150  CB        40.9890   28.1440   29.7730 C.3   357  ALA357      0.0290
    151  N         45.6590   25.6530   33.4270 N.3   359  GLU359     -0.1245
    152  CA        46.1280   25.8530   34.7960 C.3   359  GLU359      0.1567
    153  C         47.6450   25.7650   34.8790 C.2   359  GLU359      0.2260
    154  O         48.2420   24.7230   34.6220 O.2   359  GLU359     -0.2867
    155  CB        45.5210   24.8450   35.7720 C.3   359  GLU359      0.0388
    156  CG        44.0120   24.9310   35.9260 C.3   359  GLU359      0.1160
    157  CD        43.5240   24.1120   37.0930 C.2   359  GLU359      0.3649
    158  OE1       43.5750   22.8610   37.0190 O.co2 359  GLU359     -0.2457
    159  OE2       43.0900   24.7290   38.0820 O.co2 359  GLU359     -0.2457
    160  N         37.1030   15.4770   23.4580 N.3   429  VAL429     -0.1245
    161  CA        35.6640   15.3490   23.6830 C.3   429  VAL429      0.1561
    162  C         34.8370   15.4760   22.4030 C.2   429  VAL429      0.2260
    163  O         33.6080   15.5200   22.4540 O.2   429  VAL429     -0.2867
    164  CB        35.1920   16.3340   24.7780 C.3   429  VAL429      0.0252
    165  CG1       35.6970   15.8680   26.1300 C.3   429  VAL429      0.0019
    166  CG2       35.6550   17.7710   24.4860 C.3   429  VAL429      0.0019
    167  N         31.4510   13.6790   23.2270 N.3   458  ASN458     -0.1240
    168  CA        30.4540   13.9750   24.2550 C.3   458  ASN458      0.1653
    169  C         29.0450   13.5000   23.8920 C.2   458  ASN458      0.2266
    170  O         28.7370   13.2140   22.7240 O.2   458  ASN458     -0.2867
    171  CB        30.4220   15.4840   24.5550 C.3   458  ASN458      0.1155
    172  CG        31.5870   15.9430   25.4490 C.2   458  ASN458      0.2627
    173  OD1       31.8780   17.1560   25.5480 O.2   458  ASN458     -0.2716
    174  ND2       32.2500   14.9940   26.1020 N.am  458  ASN458     -0.0877
    175  N         34.8410   33.7100   22.1370 N.3   547  TYR547     -0.1227
    176  CA        34.9620   32.6130   21.1740 C.3   547  TYR547      0.1736
    177  C         33.6080   32.0810   20.6940 C.2   547  TYR547      0.2595
    178  O         33.4960   31.6080   19.5550 O.2   547  TYR547     -0.2718
    179  CB        35.8890   31.5020   21.6620 C.3   547  TYR547      0.0548
    180  CG        35.2740   30.4150   22.5030 C.ar  547  TYR547     -0.0200
    181  CD1       34.6730   29.3000   21.9060 C.ar  547  TYR547     -0.0009
    182  CD2       35.3600   30.4500   23.8970 C.ar  547  TYR547     -0.0009
    183  CE1       34.1360   28.2740   22.6830 C.ar  547  TYR547      0.0417
    184  CE2       34.8220   29.4260   24.6790 C.ar  547  TYR547      0.0417
    185  CZ        34.2160   28.3480   24.0600 C.ar  547  TYR547      0.1957
    186  OH        33.6750   27.3320   24.8180 O.3   547  TYR547     -0.2866
    187  N         32.5870   32.1830   21.5410 N.am  548  LYS548     -0.1980
    188  CA        31.2500   31.6510   21.2070 C.3   548  LYS548      0.1596
    189  C         30.4770   32.5740   20.2350 C.2   548  LYS548      0.2287
    190  O         29.4220   32.1900   19.6900 O.2   548  LYS548     -0.2864
    191  CB        30.4390   31.3720   22.4850 C.3   548  LYS548      0.0298
    192  CG        30.9030   30.1330   23.2910 C.3   548  LYS548      0.0038
    193  CD        30.2040   30.0710   24.6620 C.3   548  LYS548      0.0206
    194  CE        30.6670   28.9070   25.5350 C.3   548  LYS548      0.1093
    195  NZ        30.3240   27.5350   24.9770 N.3   548  LYS548     -0.1314
    196  N         35.4990   25.6340   20.0200 N.3   646  GLU646     -0.1231
    197  CA        34.5640   24.8960   20.8840 C.3   646  GLU646      0.1699
    198  C         34.9590   23.4220   20.8780 C.2   646  GLU646      0.2592
    199  O         34.7880   22.7550   19.8800 O.2   646  GLU646     -0.2718
    200  CB        33.1040   25.0670   20.4250 C.3   646  GLU646      0.0402
    201  CG        32.0700   24.5610   21.4430 C.3   646  GLU646      0.1161
    202  CD        31.9440   25.4730   22.6520 C.2   646  GLU646      0.3649
    203  OE1       32.6220   25.2040   23.6750 O.co2 646  GLU646     -0.2457
    204  OE2       31.1980   26.4830   22.5660 O.co2 646  GLU646     -0.2457
    205  N         35.5360   22.9350   21.9720 N.am  647  ALA647     -0.1966
    206  CA        36.0190   21.5530   22.0410 C.3   647  ALA647      0.1728
    207  C         34.9510   20.5400   21.5790 C.2   647  ALA647      0.2617
    208  O         35.2300   19.6650   20.7610 O.2   647  ALA647     -0.2715
    209  CB        36.4930   21.2280   23.4500 C.3   647  ALA647      0.0334
    210  N         33.7270   20.6940   22.0700 N.am  648  SER648     -0.1936
    211  CA        32.6320   19.8560   21.6270 C.3   648  SER648      0.2055
    212  C         31.3340   20.6390   21.5600 C.2   648  SER648      0.2644
    213  O         30.6800   20.7060   20.4920 O.2   648  SER648     -0.2714
    214  CB        32.4880   18.6560   22.5690 C.3   648  SER648      0.2130
    215  OG        31.2790   17.9650   22.3390 O.3   648  SER648     -0.2179
    216  N         30.9590   21.2470   22.6830 N.am  649  GLY649     -0.1939
    217  CA        29.6000   21.7330   22.8380 C.3   649  GLY649      0.2014
    218  C         28.7250   20.5430   23.2120 C.2   649  GLY649      0.2639
    219  O         29.0280   19.4070   22.8350 O.2   649  GLY649     -0.2714
    220  N         27.6880   20.7850   24.0090 N.am  650  THR650     -0.1950
    221  CA        26.6800   19.7670   24.2940 C.3   650  THR650      0.1897
    222  C         25.2750   20.3590   24.1580 C.2   650  THR650      0.2313
    223  O         24.3110   19.6350   23.8860 O.2   650  THR650     -0.2863
    224  CB        26.8560   19.1400   25.6860 C.3   650  THR650      0.1794
    225  OG1       26.8650   20.1800   26.6610 O.3   650  THR650     -0.2208
    226  CG2       28.1670   18.3530   25.7590 C.3   650  THR650      0.0378
@<TRIPOS>BOND
     1   178   177    2
     2   190   189    2
     3   199   198    2
     4   196   197    1
     5   189   188    1
     6   200   197    1
     7   200   201    1
     8   213   212    2
     9   177   176    1
    10   177   187   am
    11   208   207    2
    12   198   197    1
    13   198   205   am
    14   176   179    1
    15   176   175    1
    16   188   187    1
    17   188   191    1
    18   201   202    1
    19   212   211    1
    20   212   216   am
    21   207   206    1
    22   207   210   am
    23   211   210    1
    24   211   214    1
    25   179   180    1
    26   181   180   ar
    27   181   183   ar
    28   205   206    1
    29   206   209    1
    30   215   214    1
    31   162   163    2
    32   162   161    1
    33   191   192    1
    34   180   182   ar
    35   204   202   ar
    36   202   203   ar
    37   183   185   ar
    38   216   217    1
    39   170   169    2
    40   219   218    2
    41   217   218    1
    42   218   220   am
    43   167   168    1
    44   192   193    1
    45   160   161    1
    46   161   164    1
    47   223   222    2
    48   169   168    1
    49   182   184   ar
    50   220   221    1
    51   185   184   ar
    52   185   186    1
    53   222   221    1
    54   168   171    1
    55   221   224    1
    56   166   164    1
    57   171   172    1
    58   193   194    1
    59   164   165    1
    60   195   194    1
    61   172   173    2
    62   172   174   am
    63   141   142    2
    64   141   140    1
    65   224   226    1
    66   224   225    1
    67   144   143    1
    68   140   139    1
    69   140   143    1
    70   132   131    2
    71   139   131   am
    72   143   145    1
    73   131   130    1
    74   130   129    1
    75   130   133    1
    76    40    39    1
    77   133   134    1
    78   135   134   ar
    79   135   137   ar
    80    41    39    1
    81   146   147    1
    82   134   136   ar
    83    23    22    1
    84    23    24    1
    85   150   147    1
    86    39    38    1
    87   137   138   ar
    88    22    20   am
    89    24    25    2
    90    24    26   am
    91   147   148    1
    92    38    35    1
    93   136   138   ar
    94    26    27    1
    95   148   149    2
    96    77    75   ar
    97    35    34    1
    98    35    36    1
    99    73    72    2
   100   117   116   ar
   101    20    19    1
   102    20    21    2
   103    27    30    1
   104    27    28    1
   105    84    86   ar
   106    84    83   ar
   107    75    76   ar
   108    75    74    1
   109    86    88   ar
   110    19    18    1
   111    72    71    1
   112    30    31    1
   113    37    36    2
   114   118   116   ar
   115   116   115    1
   116    78    79    1
   117    79    82    1
   118    79    80    1
   119    82    83    1
   120    74    71    1
   121    83    85   ar
   122    28    29    2
   123    32    31    1
   124   112   115    1
   125   112   111    1
   126   112   113    1
   127    31    33    1
   128    88    87   ar
   129    71    70    1
   130    18    12   am
   131   151   152    1
   132    13    12    2
   133    89    80   am
   134    89    90    1
   135    80    81    2
   136    12    11    1
   137   113   114    2
   138    85    87   ar
   139    70    64   am
   140    93    90    1
   141    93    94    1
   142   154   153    2
   143   152   153    1
   144   152   155    1
   145    90    91    1
   146    14    11    1
   147    14    15    1
   148    64    65    2
   149    64    63    1
   150    11    10    1
   151   128   127   ar
   152   128   126   ar
   153    92    91    2
   154   127   125   ar
   155    94    95   ar
   156    94    96   ar
   157   155   156    1
   158    95    97   ar
   159   156   157    1
   160     9     7   ar
   161    63    66    1
   162    63    62    1
   163    15    16    2
   164    15    17   am
   165   126   124   ar
   166    96    98   ar
   167   125   124   ar
   168    66    67    1
   169   119   120    1
   170    97    99   ar
   171     8     7   ar
   172   158   157   ar
   173     7     6    1
   174   157   159   ar
   175   124   123    1
   176    69    67   am
   177    98    99   ar
   178    67    68    2
   179     5     6    1
   180     5     2    1
   181     4     3    2
   182   120   123    1
   183   120   121    1
   184   110   108    1
   185     3     2    1
   186     2     1    1
   187    53    52    2
   188   121   122    2
   189   108   107    2
   190   108   109    1
   191    52    51    1
   192    49    47    1
   193   107   106    1
   194    48    47    1
   195    47    46    1
   196    54    51    1
   197    54    55    1
   198    51    50    1
   199   106   105    1
   200   105   104    1
   201    57    55   ar
   202    57    59   ar
   203    55    56   ar
   204    50    44   am
   205    45    44    2
   206    46    43    1
   207    44    43    1
   208    59    60   ar
   209   104   101    1
   210    43    42    1
   211    56    58   ar
   212    60    58   ar
   213    60    61    1
   214   103   102    2
   215   101   102    1
   216   101   100    1
