@<TRIPOS>MOLECULE
tmp/3ms5A01.pdb
 135 132 0 0 0
SMALL
GASTEIGER

@<TRIPOS>ATOM
      1  N         26.2180   33.1080   93.4820 N.3   178  TYR178     -0.1241
      2  CA        26.2920   33.9720   92.2600 C.3   178  TYR178      0.1605
      3  C         26.1420   35.4630   92.5510 C.2   178  TYR178      0.2264
      4  O         26.2300   36.2730   91.6230 O.2   178  TYR178     -0.2867
      5  CB        25.2940   33.5050   91.2100 C.3   178  TYR178      0.0534
      6  CG        25.7040   32.1820   90.6050 C.ar  178  TYR178     -0.0201
      7  CD1       26.7040   32.1290   89.6620 C.ar  178  TYR178     -0.0009
      8  CD2       25.1640   30.9780   91.0400 C.ar  178  TYR178     -0.0009
      9  CE1       27.1360   30.8960   89.0840 C.ar  178  TYR178      0.0417
     10  CE2       25.6080   29.7250   90.4990 C.ar  178  TYR178      0.0417
     11  CZ        26.5890   29.7150   89.5070 C.ar  178  TYR178      0.1957
     12  OH        27.0280   28.5350   88.9370 O.3   178  TYR178     -0.2866
     13  N         23.0470   39.2190   89.9050 N.3   182  TRP182     -0.1241
     14  CA        23.9610   38.5810   88.9420 C.3   182  TRP182      0.1605
     15  C         23.7040   39.0050   87.5160 C.2   182  TRP182      0.2264
     16  O         22.5850   39.4250   87.1650 O.2   182  TRP182     -0.2867
     17  CB        23.9420   37.0700   89.0390 C.3   182  TRP182      0.0550
     18  CG        22.6360   36.4960   89.4630 C.ar  182  TRP182      0.0003
     19  CD1       22.3080   36.1910   90.7510 C.ar  182  TRP182      0.0946
     20  CD2       21.4970   36.1290   88.6600 C.ar  182  TRP182      0.0152
     21  NE1       21.0390   35.6890   90.8020 N.ar  182  TRP182     -0.2442
     22  CE2       20.5040   35.6330   89.5540 C.ar  182  TRP182      0.0810
     23  CE3       21.2000   36.1750   87.2950 C.ar  182  TRP182      0.0012
     24  CZ2       19.2630   35.1640   89.1300 C.ar  182  TRP182      0.0191
     25  CZ3       19.9450   35.7230   86.8700 C.ar  182  TRP182      0.0001
     26  CH2       18.9920   35.2110   87.7960 C.ar  182  TRP182      0.0015
     27  N         23.4890   38.2470   83.6250 N.3   184  VAL184     -0.1245
     28  CA        23.3780   37.2290   82.5650 C.3   184  VAL184      0.1561
     29  C         23.8960   37.8370   81.2750 C.2   184  VAL184      0.2260
     30  O         23.2280   38.6530   80.6340 O.2   184  VAL184     -0.2867
     31  CB        21.9500   36.7730   82.3680 C.3   184  VAL184      0.0252
     32  CG1       21.8980   35.5970   81.3050 C.3   184  VAL184      0.0019
     33  CG2       21.3110   36.3390   83.7510 C.3   184  VAL184      0.0019
     34  N         28.9460   29.1230   84.3000 N.3   192  ASN192     -0.1240
     35  CA        27.5880   28.6210   84.2390 C.3   192  ASN192      0.1653
     36  C         27.1020   28.6980   82.7870 C.2   192  ASN192      0.2266
     37  O         27.4070   29.6480   82.0860 O.2   192  ASN192     -0.2867
     38  CB        26.6830   29.4300   85.1930 C.3   192  ASN192      0.1155
     39  CG        25.3300   28.7570   85.4540 C.2   192  ASN192      0.2627
     40  OD1       24.4390   28.7840   84.5970 O.2   192  ASN192     -0.2716
     41  ND2       25.1600   28.1920   86.6580 N.am  192  ASN192     -0.0877
     42  N         24.4690   29.5030   81.7160 N.3   194  ALA194     -0.1231
     43  CA        23.7190   30.7490   81.5790 C.3   194  ALA194      0.1694
     44  C         24.5420   31.8940   80.9590 C.2   194  ALA194      0.2592
     45  O         24.0190   32.7150   80.2240 O.2   194  ALA194     -0.2718
     46  CB        23.1360   31.2050   82.9730 C.3   194  ALA194      0.0304
     47  N         25.8250   31.9250   81.2770 N.am  195  TYR195     -0.1976
     48  CA        26.6910   33.0520   80.9460 C.3   195  TYR195      0.1639
     49  C         27.4100   32.7610   79.6120 C.2   195  TYR195      0.2290
     50  O         28.6120   32.9820   79.4920 O.2   195  TYR195     -0.2864
     51  CB        27.6620   33.3080   82.0760 C.3   195  TYR195      0.0560
     52  CG        27.0280   33.6210   83.4320 C.ar  195  TYR195     -0.0198
     53  CD1       25.7380   34.1650   83.5270 C.ar  195  TYR195     -0.0009
     54  CD2       27.7270   33.4170   84.6160 C.ar  195  TYR195     -0.0009
     55  CE1       25.1620   34.4860   84.7800 C.ar  195  TYR195      0.0417
     56  CE2       27.1260   33.7010   85.8670 C.ar  195  TYR195      0.0417
     57  CZ        25.8610   34.2780   85.9120 C.ar  195  TYR195      0.1957
     58  OH        25.2570   34.6210   87.1020 O.3   195  TYR195     -0.2866
     59  N         14.3100   25.0090   82.6110 N.3   203  HIS203     -0.1241
     60  CA        14.9260   24.7080   83.8790 C.3   203  HIS203      0.1621
     61  C         14.2490   25.5450   84.9650 C.2   203  HIS203      0.2264
     62  O         13.5690   26.5470   84.6720 O.2   203  HIS203     -0.2867
     63  CB        16.4240   24.9970   83.8780 C.3   203  HIS203      0.0745
     64  CG        16.7620   26.4340   83.6920 C.ar  203  HIS203      0.0817
     65  ND1       16.7540   27.0350   82.4550 N.ar  203  HIS203     -0.2268
     66  CD2       17.1430   27.3930   84.5840 C.ar  203  HIS203      0.1154
     67  CE1       17.0950   28.3110   82.5990 C.ar  203  HIS203      0.1986
     68  NE2       17.3170   28.5520   83.8800 N.ar  203  HIS203     -0.2212
     69  N         15.8480   27.4860   88.4470 N.3   205  ASP205     -0.1225
     70  CA        17.1520   27.9150   88.9050 C.3   205  ASP205      0.1805
     71  C         17.5100   27.2800   90.2000 C.2   205  ASP205      0.2598
     72  O         16.7150   27.2000   91.1340 O.2   205  ASP205     -0.2718
     73  CB        17.2430   29.4080   89.0660 C.3   205  ASP205      0.1424
     74  CG        17.6060   30.1280   87.7990 C.2   205  ASP205      0.3668
     75  OD1       17.3350   29.6430   86.6880 O.co2 205  ASP205     -0.2456
     76  OD2       18.1860   31.2350   87.9230 O.co2 205  ASP205     -0.2456
     77  N         18.7360   26.8070   90.2510 N.am  206  TYR206     -0.1963
     78  CA        19.4320   26.4600   91.4700 C.3   206  TYR206      0.1756
     79  C         18.9870   25.2060   92.2260 C.2   206  TYR206      0.2461
     80  O         19.0450   25.1820   93.4440 O.2   206  TYR206     -0.2730
     81  CB        19.5750   27.6860   92.4200 C.3   206  TYR206      0.0574
     82  CG        20.9950   28.1410   92.7820 C.ar  206  TYR206     -0.0198
     83  CD1       21.2790   29.4890   92.9630 C.ar  206  TYR206     -0.0009
     84  CD2       22.0430   27.2170   92.9710 C.ar  206  TYR206     -0.0009
     85  CE1       22.5360   29.9030   93.3350 C.ar  206  TYR206      0.0417
     86  CE2       23.2800   27.6400   93.3740 C.ar  206  TYR206      0.0417
     87  CZ        23.5340   28.9980   93.4950 C.ar  206  TYR206      0.1957
     88  OH        24.7740   29.4390   93.9100 O.3   206  TYR206     -0.2866
     89  N         18.6140   24.1120   91.5120 N.am  207  PRO207     -0.2716
     90  CA        18.3500   22.8680   92.2330 C.3   207  PRO207      0.1536
     91  C         19.6070   22.2960   92.9250 C.2   207  PRO207      0.2598
     92  O         19.4960   21.3820   93.7050 O.2   207  PRO207     -0.2715
     93  CB        17.8060   21.9320   91.1390 C.3   207  PRO207      0.0310
     94  CG        18.4790   22.4800   89.8460 C.3   207  PRO207      0.0237
     95  CD        18.3940   23.9660   90.0590 C.3   207  PRO207      0.0939
     96  N         20.8020   22.8140   92.6080 N.am  208  ALA208     -0.1978
     97  CA        22.0310   22.4760   93.3730 C.3   208  ALA208      0.1597
     98  C         21.9510   22.9040   94.8350 C.2   208  ALA208      0.2287
     99  O         22.7490   22.4670   95.6460 O.2   208  ALA208     -0.2864
    100  CB        23.3310   23.0740   92.6750 C.3   208  ALA208      0.0319
    101  N         27.3110   21.9670   91.5950 N.3   262  ASP262     -0.1239
    102  CA        27.8240   23.2030   91.0140 C.3   262  ASP262      0.1674
    103  C         29.1840   23.4750   91.6440 C.2   262  ASP262      0.2266
    104  O         29.2870   23.5570   92.8740 O.2   262  ASP262     -0.2867
    105  CB        26.8800   24.3670   91.2840 C.3   262  ASP262      0.1410
    106  CG        27.0790   25.5470   90.3410 C.2   262  ASP262      0.3668
    107  OD1       27.7100   25.3890   89.2480 O.co2 262  ASP262     -0.2456
    108  OD2       26.5360   26.6250   90.6650 O.co2 262  ASP262     -0.2456
    109  N         17.3310   21.3590   86.5600 N.3   293  ASN293     -0.1240
    110  CA        18.1990   22.0990   85.6320 C.3   293  ASN293      0.1653
    111  C         19.1080   21.0470   84.9950 C.2   293  ASN293      0.2266
    112  O         19.9150   20.3910   85.6840 O.2   293  ASN293     -0.2867
    113  CB        18.9730   23.1820   86.3520 C.3   293  ASN293      0.1155
    114  CG        19.9430   23.9560   85.4420 C.2   293  ASN293      0.2627
    115  OD1       20.1610   23.5870   84.2550 O.2   293  ASN293     -0.2716
    116  ND2       20.5400   25.0240   86.0040 N.am  293  ASN293     -0.0877
    117  N         22.9680   21.2660   85.5350 N.3   296  THR296     -0.1218
    118  CA        23.5850   21.0120   86.8510 C.3   296  THR296      0.1862
    119  C         23.2550   19.6780   87.4580 C.2   296  THR296      0.2287
    120  O         23.8290   19.2800   88.4810 O.2   296  THR296     -0.2866
    121  CB        23.2470   22.1290   87.8720 C.3   296  THR296      0.1770
    122  OG1       21.8380   22.1520   88.1300 O.3   296  THR296     -0.2211
    123  CG2       23.7390   23.5220   87.3250 C.3   296  THR296      0.0375
    124  N         17.2170   36.7750   93.4030 N.3   367  TYR367     -0.1241
    125  CA        16.2760   35.8690   94.0180 C.3   367  TYR367      0.1605
    126  C         15.6800   36.4430   95.2980 C.2   367  TYR367      0.2264
    127  O         16.3230   37.2430   95.9960 O.2   367  TYR367     -0.2867
    128  CB        16.9940   34.5600   94.3620 C.3   367  TYR367      0.0534
    129  CG        17.6740   33.8270   93.1900 C.ar  367  TYR367     -0.0201
    130  CD1       16.9400   33.3610   92.1050 C.ar  367  TYR367     -0.0009
    131  CD2       19.0430   33.5640   93.2100 C.ar  367  TYR367     -0.0009
    132  CE1       17.5530   32.7060   91.0490 C.ar  367  TYR367      0.0417
    133  CE2       19.6770   32.8470   92.1810 C.ar  367  TYR367      0.0417
    134  CZ        18.9240   32.4090   91.1050 C.ar  367  TYR367      0.1957
    135  OH        19.5520   31.7550   90.0460 O.3   367  TYR367     -0.2866
@<TRIPOS>BOND
     1    50    49    2
     2    49    48    1
     3    45    44    2
     4    30    29    2
     5    48    47    1
     6    48    51    1
     7    44    47   am
     8    44    43    1
     9    29    28    1
    10    32    31    1
    11    43    42    1
    12    43    46    1
    13    51    52    1
    14    37    36    2
    15    31    28    1
    16    31    33    1
    17    65    67   ar
    18    65    64   ar
    19    28    27    1
    20    67    68   ar
    21    59    60    1
    22    36    35    1
    23    52    53   ar
    24    52    54   ar
    25    53    55   ar
    26    64    63    1
    27    64    66   ar
    28    63    60    1
    29    60    61    1
    30    68    66   ar
    31    35    34    1
    32    35    38    1
    33   115   114    2
    34    40    39    2
    35    54    56   ar
    36    62    61    2
    37    55    57   ar
    38   111   110    1
    39   111   112    2
    40    38    39    1
    41   114   116   am
    42   114   113    1
    43    39    41   am
    44   117   118    1
    45   110   113    1
    46   110   109    1
    47    56    57   ar
    48    57    58    1
    49    75    74   ar
    50   118   119    1
    51   118   121    1
    52    25    23   ar
    53    25    26   ar
    54    16    15    2
    55    23    20   ar
    56   123   121    1
    57   119   120    2
    58    15    14    1
    59    26    24   ar
    60    74    76   ar
    61    74    73    1
    62   121   122    1
    63    69    70    1
    64    20    18   ar
    65    20    22   ar
    66    70    73    1
    67    70    71    1
    68    12    11    1
    69    14    17    1
    70    14    13    1
    71    17    18    1
    72     9    11   ar
    73     9     7   ar
    74    24    22   ar
    75   107   106   ar
    76    18    19   ar
    77    11    10   ar
    78    22    21   ar
    79     7     6   ar
    80    94    95    1
    81    94    93    1
    82   135   134    1
    83    95    89    1
    84    71    77   am
    85    71    72    2
    86    77    78    1
    87   106   108   ar
    88   106   105    1
    89    10     8   ar
    90     6     8   ar
    91     6     5    1
    92    19    21   ar
    93   102   105    1
    94   102   101    1
    95   102   103    1
    96   132   134   ar
    97   132   130   ar
    98   134   133   ar
    99    93    90    1
   100     5     2    1
   101    78    79    1
   102    78    81    1
   103    89    79   am
   104    89    90    1
   105     4     3    2
   106   103   104    2
   107   130   129   ar
   108   133   131   ar
   109    79    80    2
   110    90    91    1
   111     2     3    1
   112     2     1    1
   113    81    82    1
   114    96    91   am
   115    96    97    1
   116   100    97    1
   117    82    83   ar
   118    82    84   ar
   119    91    92    2
   120    83    85   ar
   121    84    86   ar
   122   129   131   ar
   123   129   128    1
   124    85    87   ar
   125    97    98    1
   126    86    87   ar
   127   124   125    1
   128    87    88    1
   129   125   128    1
   130   125   126    1
   131    98    99    2
   132   126   127    2
