@<TRIPOS>MOLECULE
tmp/3ms6A00.pdb
 79 73 0 0 0
SMALL
GASTEIGER

@<TRIPOS>ATOM
      1  N          6.1950   13.7140   -3.1530 N.3     4  LEU4       -0.1245
      2  CA         5.8890   13.6520   -1.7320 C.3     4  LEU4        0.1561
      3  C          6.3920   14.9300   -1.0590 C.2     4  LEU4        0.2260
      4  O          5.7220   15.4900   -0.2050 O.2     4  LEU4       -0.2867
      5  CB         6.5150   12.4050   -1.0850 C.3     4  LEU4        0.0270
      6  CG         6.2260   12.2120    0.4110 C.3     4  LEU4        0.0019
      7  CD1        4.7380   12.3380    0.6830 C.3     4  LEU4        0.0001
      8  CD2        6.7650   10.8800    0.9680 C.3     4  LEU4        0.0001
      9  N          3.9360   17.6400   -1.4140 N.3     7  HIS7       -0.1226
     10  CA         2.8090   17.3190   -0.5590 C.3     7  HIS7        0.1752
     11  C          3.1110   17.6240    0.8940 C.2     7  HIS7        0.2595
     12  O          2.2870   18.2200    1.5930 O.2     7  HIS7       -0.2718
     13  CB         2.3920   15.8620   -0.7530 C.3     7  HIS7        0.0759
     14  CG         1.6190   15.6440   -2.0110 C.ar    7  HIS7        0.0818
     15  ND1        0.5310   14.8090   -2.0850 N.ar    7  HIS7       -0.2268
     16  CD2        1.7500   16.2060   -3.2390 C.ar    7  HIS7        0.1154
     17  CE1        0.0350   14.8440   -3.3100 C.ar    7  HIS7        0.1986
     18  NE2        0.7560   15.6830   -4.0320 N.ar    7  HIS7       -0.2212
     19  N          4.2920   17.2260    1.3530 N.am    8  LEU8       -0.1980
     20  CA         4.6700   17.4950    2.7360 C.3     8  LEU8        0.1596
     21  C          4.7430   19.0010    2.9950 C.2     8  LEU8        0.2287
     22  O          4.2930   19.4810    4.0270 O.2     8  LEU8       -0.2864
     23  CB         6.0170   16.8490    3.0700 C.3     8  LEU8        0.0297
     24  CG         6.0530   15.3190    3.0530 C.3     8  LEU8        0.0022
     25  CD1        7.4400   14.8450    3.4200 C.3     8  LEU8        0.0001
     26  CD2        5.0210   14.7470    3.9990 C.3     8  LEU8        0.0001
     27  N          1.2480   20.4870    3.0940 N.3    11  THR11      -0.1218
     28  CA         0.5450   20.0750    4.3140 C.3    11  THR11       0.1862
     29  C          0.9050   21.0000    5.4690 C.2    11  THR11       0.2287
     30  O          0.0450   21.3820    6.2690 O.2    11  THR11      -0.2866
     31  CB         0.8650   18.5990    4.6810 C.3    11  THR11       0.1770
     32  OG1        0.3740   17.7440    3.6420 O.3    11  THR11      -0.2211
     33  CG2        0.2040   18.1850    6.0120 C.3    11  THR11       0.0375
     34  N          4.1860   16.1600   10.1600 N.3    19  VAL19      -0.1245
     35  CA         3.6530   15.1700    9.2260 C.3    19  VAL19       0.1561
     36  C          4.7380   14.1730    8.8600 C.2    19  VAL19       0.2260
     37  O          5.9010   14.5490    8.6750 O.2    19  VAL19      -0.2867
     38  CB         3.0790   15.8480    7.9620 C.3    19  VAL19       0.0252
     39  CG1        4.1410   16.7070    7.2960 C.3    19  VAL19       0.0019
     40  CG2        2.5080   14.8110    6.9750 C.3    19  VAL19       0.0019
     41  N          5.2730   10.2340    6.6400 N.3    21  CYS21      -0.1235
     42  CA         4.7190    9.1310    5.8450 C.3    21  CYS21       0.1677
     43  C          5.6220    7.9230    5.9240 C.2    21  CYS21       0.2270
     44  O          6.8390    8.0790    5.8410 O.2    21  CYS21      -0.2867
     45  CB         4.5990    9.5320    4.3780 C.3    21  CYS21       0.0956
     46  SG         3.4190   10.8370    4.0940 S.3    21  CYS21      -0.0801
     47  N         -3.3210    6.2330    2.9000 N.3    76  HIS76      -0.1226
     48  CA        -3.8150    6.9130    1.7230 C.3    76  HIS76       0.1752
     49  C         -3.0160    6.3670    0.5620 C.2    76  HIS76       0.2596
     50  O         -1.7960    6.4900    0.5530 O.2    76  HIS76      -0.2718
     51  CB        -3.5920    8.4190    1.8540 C.3    76  HIS76       0.0759
     52  CG        -4.1980    9.2230    0.7460 C.ar   76  HIS76       0.0818
     53  ND1       -5.5620    9.3260    0.5610 N.ar   76  HIS76      -0.2268
     54  CD2       -3.6310    9.9710   -0.2280 C.ar   76  HIS76       0.1154
     55  CE1       -5.8050   10.1000   -0.4810 C.ar   76  HIS76       0.1986
     56  NE2       -4.6510   10.5070   -0.9780 N.ar   76  HIS76      -0.2212
     57  N         -3.6880    5.7170   -0.3830 N.am   77  ASP77      -0.1974
     58  CA        -3.0350    5.1950   -1.5880 C.3    77  ASP77       0.1709
     59  C         -1.8140    4.2910   -1.3060 C.2    77  ASP77       0.2293
     60  O         -0.7890    4.3790   -2.0030 O.2    77  ASP77      -0.2864
     61  CB        -2.6370    6.3550   -2.5180 C.3    77  ASP77       0.1436
     62  CG        -3.8470    7.1480   -3.0360 C.2    77  ASP77       0.3671
     63  OD1       -4.9720    6.6130   -2.9860 O.co2  77  ASP77      -0.2456
     64  OD2       -3.6710    8.3000   -3.4980 O.co2  77  ASP77      -0.2456
     65  N          0.1320    4.2280    1.3280 N.3    79  ILE79      -0.1245
     66  CA         1.0650    4.8540    2.2560 C.3    79  ILE79       0.1561
     67  C          0.3960    5.0930    3.5980 C.2    79  ILE79       0.2260
     68  O         -0.7970    5.3360    3.6580 O.2    79  ILE79      -0.2867
     69  CB         1.5200    6.2300    1.7040 C.3    79  ILE79       0.0252
     70  CG1        2.2390    6.0240    0.3810 C.3    79  ILE79       0.0019
     71  CG2        2.4500    6.9170    2.6600 C.3    79  ILE79       0.0019
     72  CD1        3.2420    4.9690    0.4830 C.3    79  ILE79       0.0001
     73  N          0.0190    7.6630    6.4850 N.3    81  VAL81      -0.1245
     74  CA         0.2190    9.0840    6.6880 C.3    81  VAL81       0.1561
     75  C         -0.1990    9.5090    8.0780 C.2    81  VAL81       0.2260
     76  O         -1.3180    9.2350    8.4990 O.2    81  VAL81      -0.2867
     77  CB        -0.5870    9.9050    5.6970 C.3    81  VAL81       0.0252
     78  CG1       -0.2600   11.3870    5.8920 C.3    81  VAL81       0.0019
     79  CG2       -0.2830    9.4480    4.2750 C.3    81  VAL81       0.0019
@<TRIPOS>BOND
     1    18    17   ar
     2    18    16   ar
     3    64    62   ar
     4    17    15   ar
     5    16    14   ar
     6     1     2    1
     7    62    63   ar
     8    62    61    1
     9    61    58    1
    10    15    14   ar
    11    14    13    1
    12    60    59    2
    13     2     5    1
    14     2     3    1
    15    58    59    1
    16    58    57    1
    17     9    10    1
    18     5     6    1
    19     3     4    2
    20    56    55   ar
    21    56    54   ar
    22    13    10    1
    23    10    11    1
    24    55    53   ar
    25    57    49   am
    26    54    52   ar
    27    70    72    1
    28    70    69    1
    29     6     7    1
    30     6     8    1
    31    50    49    2
    32    53    52   ar
    33    49    48    1
    34    52    51    1
    35    11    19   am
    36    11    12    2
    37    65    66    1
    38    19    20    1
    39    69    66    1
    40    69    71    1
    41    48    51    1
    42    48    47    1
    43    66    67    1
    44    20    21    1
    45    20    23    1
    46    21    22    2
    47    24    23    1
    48    24    25    1
    49    24    26    1
    50    27    28    1
    51    67    68    2
    52    32    31    1
    53    46    45    1
    54    79    77    1
    55    28    31    1
    56    28    29    1
    57    45    42    1
    58    31    33    1
    59    29    30    2
    60    77    78    1
    61    77    74    1
    62    44    43    2
    63    42    43    1
    64    42    41    1
    65    73    74    1
    66    74    75    1
    67    40    38    1
    68    39    38    1
    69    38    35    1
    70    75    76    2
    71    37    36    2
    72    36    35    1
    73    35    34    1
