@<TRIPOS>MOLECULE
tmp/3ms9A01.pdb
 106 99 0 0 0
SMALL
GASTEIGER

@<TRIPOS>ATOM
      1  N         -6.4130   64.3780   27.0110 N.3   106  ALA106     -0.1231
      2  CA        -6.2270   63.2620   27.9220 C.3   106  ALA106      0.1694
      3  C         -6.3400   61.9040   27.2590 C.2   106  ALA106      0.2591
      4  O         -5.5490   60.9960   27.5640 O.2   106  ALA106     -0.2718
      5  CB        -7.1990   63.3370   29.1880 C.3   106  ALA106      0.0304
      6  N         -7.3380   61.7270   26.3790 N.am  107  VAL107     -0.1980
      7  CA        -7.5090   60.4350   25.7740 C.3   107  VAL107      0.1595
      8  C         -6.3930   60.1280   24.7740 C.2   107  VAL107      0.2287
      9  O         -6.0780   58.9470   24.5160 O.2   107  VAL107     -0.2864
     10  CB        -8.9150   60.3220   25.0290 C.3   107  VAL107      0.0276
     11  CG1       -8.8940   61.1300   23.7970 C.3   107  VAL107      0.0022
     12  CG2       -9.1810   58.8880   24.6870 C.3   107  VAL107      0.0022
     13  N         -3.2680   61.1770   25.1920 N.3   109  LEU109     -0.1231
     14  CA        -2.1270   60.7200   26.0400 C.3   109  LEU109      0.1693
     15  C         -2.2720   59.2410   26.3810 C.2   109  LEU109      0.2591
     16  O         -1.2950   58.4600   26.3590 O.2   109  LEU109     -0.2718
     17  CB        -1.9600   61.5880   27.2750 C.3   109  LEU109      0.0284
     18  CG        -1.8470   63.0660   27.1280 C.3   109  LEU109      0.0019
     19  CD1       -1.7610   63.6930   28.5910 C.3   109  LEU109      0.0001
     20  CD2       -0.6590   63.5040   26.2470 C.3   109  LEU109      0.0001
     21  N         -3.4980   58.8480   26.7280 N.am  110  LEU110     -0.1980
     22  CA        -3.7720   57.4290   27.0270 C.3   110  LEU110      0.1596
     23  C         -3.4000   56.5600   25.8280 C.2   110  LEU110      0.2287
     24  O         -2.7960   55.5060   25.9980 O.2   110  LEU110     -0.2864
     25  CB        -5.2420   57.2330   27.4230 C.3   110  LEU110      0.0297
     26  CG        -5.6330   55.7690   27.6540 C.3   110  LEU110      0.0022
     27  CD1       -4.7950   55.1270   28.7880 C.3   110  LEU110      0.0001
     28  CD2       -7.2010   55.7040   27.9910 C.3   110  LEU110      0.0001
     29  N          0.4370   56.1590   25.4250 N.3   113  ALA113     -0.1245
     30  CA         0.9760   55.2830   26.4790 C.3   113  ALA113      0.1562
     31  C          0.7220   53.8290   26.0800 C.2   113  ALA113      0.2260
     32  O          1.5800   52.9530   26.2120 O.2   113  ALA113     -0.2867
     33  CB         0.2880   55.6120   27.8100 C.3   113  ALA113      0.0290
     34  N          6.0510   57.6050   30.8840 N.3   196  LEU196     -0.1245
     35  CA         4.6550   57.9690   31.2290 C.3   196  LEU196      0.1561
     36  C          4.5470   59.3440   31.9060 C.2   196  LEU196      0.2260
     37  O          3.6420   60.1230   31.5860 O.2   196  LEU196     -0.2867
     38  CB         4.0170   56.9430   32.1600 C.3   196  LEU196      0.0270
     39  CG         3.6170   55.5230   31.6300 C.3   196  LEU196      0.0019
     40  CD1        3.0290   54.6530   32.9100 C.3   196  LEU196      0.0001
     41  CD2        2.6030   55.7260   30.4790 C.3   196  LEU196      0.0001
     42  N          5.0010   61.8720   29.1930 N.3   199  ILE199     -0.1231
     43  CA         3.7980   62.0340   28.4060 C.3   199  ILE199      0.1692
     44  C          2.7640   62.8550   29.2420 C.2   199  ILE199      0.2591
     45  O          2.2020   63.8160   28.7360 O.2   199  ILE199     -0.2718
     46  CB         3.2040   60.6410   28.0100 C.3   199  ILE199      0.0266
     47  CG1        4.1770   59.9590   27.0180 C.3   199  ILE199      0.0019
     48  CG2        1.7680   60.8860   27.4580 C.3   199  ILE199      0.0020
     49  CD1        3.8400   58.4840   26.7390 C.3   199  ILE199      0.0001
     50  N          2.6010   62.5170   30.5200 N.am  200  ALA200     -0.1980
     51  CA         1.6030   63.1390   31.3870 C.3   200  ALA200      0.1597
     52  C          1.8140   64.6200   31.6090 C.2   200  ALA200      0.2287
     53  O          0.8480   65.3970   31.8400 O.2   200  ALA200     -0.2864
     54  CB         1.5960   62.4540   32.7720 C.3   200  ALA200      0.0319
     55  N         -0.2260   66.9840   37.0690 N.3   229  GLU229     -0.1231
     56  CA        -1.5780   67.5660   36.9980 C.3   229  GLU229      0.1699
     57  C         -2.4040   66.8610   35.9300 C.2   229  GLU229      0.2593
     58  O         -1.9360   66.6910   34.7840 O.2   229  GLU229     -0.2718
     59  CB        -1.4980   69.0180   36.6550 C.3   229  GLU229      0.0402
     60  CG        -2.8160   69.7190   36.9220 C.3   229  GLU229      0.1161
     61  CD        -2.5620   71.1250   37.4400 C.2   229  GLU229      0.3649
     62  OE1       -1.6370   71.8170   36.8950 O.co2 229  GLU229     -0.2457
     63  OE2       -3.2890   71.5260   38.3810 O.co2 229  GLU229     -0.2457
     64  N         -3.6090   66.4380   36.3040 N.am  230  GLY230     -0.1942
     65  CA        -4.5220   65.7840   35.3310 C.3   230  GLY230      0.2014
     66  C         -4.2790   64.2890   35.0820 C.2   230  GLY230      0.2639
     67  O         -5.0150   63.6270   34.3060 O.2   230  GLY230     -0.2714
     68  N         -3.2480   63.7130   35.7170 N.am  231  CYS231     -0.1954
     69  CA        -2.9400   62.3080   35.4480 C.3   231  CYS231      0.1828
     70  C         -3.9080   61.4550   36.2880 C.2   231  CYS231      0.2467
     71  O         -4.0280   61.6730   37.4990 O.2   231  CYS231     -0.2730
     72  CB        -1.4840   62.0150   35.8660 C.3   231  CYS231      0.0996
     73  SG        -1.0010   60.3170   35.5980 S.3   231  CYS231     -0.0797
     74  N         -4.6350   60.5470   35.6540 N.am  232  PRO232     -0.2726
     75  CA        -5.5880   59.6960   36.3970 C.3   232  PRO232      0.1402
     76  C         -4.8790   58.9620   37.5000 C.2   232  PRO232      0.2269
     77  O         -3.6960   58.5140   37.3370 O.2   232  PRO232     -0.2865
     78  CB        -6.1160   58.7240   35.3360 C.3   232  PRO232      0.0296
     79  CG        -5.9320   59.4060   34.0170 C.3   232  PRO232      0.0237
     80  CD        -4.6510   60.2540   34.1900 C.3   232  PRO232      0.0939
     81  N         -3.3510   55.6720   36.3650 N.3   235  VAL235     -0.1245
     82  CA        -2.1510   55.8040   35.5150 C.3   235  VAL235      0.1561
     83  C         -0.9870   56.0790   36.4740 C.2   235  VAL235      0.2260
     84  O          0.1370   55.5100   36.3070 O.2   235  VAL235     -0.2867
     85  CB        -2.3040   56.9220   34.4600 C.3   235  VAL235      0.0252
     86  CG1       -0.9500   57.2860   33.6800 C.3   235  VAL235      0.0019
     87  CG2       -3.3970   56.5460   33.4450 C.3   235  VAL235      0.0019
     88  N         -3.4930   49.1740   30.3540 N.3   260  PHE260     -0.1241
     89  CA        -3.8450   50.3000   29.4970 C.3   260  PHE260      0.1605
     90  C         -4.9450   49.9940   28.4670 C.2   260  PHE260      0.2264
     91  O         -5.7830   50.8160   28.1980 O.2   260  PHE260     -0.2867
     92  CB        -2.6490   50.8170   28.7210 C.3   260  PHE260      0.0534
     93  CG        -1.7560   51.7430   29.5340 C.ar  260  PHE260     -0.0203
     94  CD1       -2.2690   52.9090   30.0750 C.ar  260  PHE260     -0.0042
     95  CD2       -0.4400   51.4230   29.7770 C.ar  260  PHE260     -0.0042
     96  CE1       -1.4560   53.7920   30.8120 C.ar  260  PHE260     -0.0003
     97  CE2        0.3810   52.3170   30.5370 C.ar  260  PHE260     -0.0003
     98  CZ        -0.1600   53.4800   31.0500 C.ar  260  PHE260     -0.0000
     99  N         -8.2250   50.2300   30.3400 N.3   263  MET263     -0.1245
    100  CA        -8.5500   51.6350   30.4060 C.3   263  MET263      0.1570
    101  C         -8.8990   52.2270   29.0400 C.2   263  MET263      0.2261
    102  O         -9.8660   52.9910   28.9790 O.2   263  MET263     -0.2867
    103  CB        -7.3680   52.4490   30.9910 C.3   263  MET263      0.0387
    104  CG        -7.0260   52.2380   32.4260 C.3   263  MET263      0.0595
    105  SD        -5.5980   53.4240   32.6710 S.3   263  MET263     -0.1393
    106  CE        -4.4380   52.4230   33.5440 C.3   263  MET263      0.0692
@<TRIPOS>BOND
     1    11    10    1
     2     9     8    2
     3    12    10    1
     4     8     7    1
     5    10     7    1
     6    13    14    1
     7    29    30    1
     8     7     6    1
     9    23    24    2
    10    23    22    1
    11    14    15    1
    12    14    17    1
    13    31    32    2
    14    31    30    1
    15    20    18    1
    16    16    15    2
    17     6     3   am
    18    15    21   am
    19    30    33    1
    20    21    22    1
    21    49    47    1
    22     1     2    1
    23    47    46    1
    24    22    25    1
    25    18    17    1
    26    18    19    1
    27     3     4    2
    28     3     2    1
    29    25    26    1
    30    48    46    1
    31    26    28    1
    32    26    27    1
    33     2     5    1
    34    46    43    1
    35    91    90    2
    36    43    42    1
    37    43    44    1
    38    90    89    1
    39    92    89    1
    40    92    93    1
    41    45    44    2
    42   102   101    2
    43   101   100    1
    44    44    50   am
    45    89    88    1
    46    93    95   ar
    47    93    94   ar
    48    95    97   ar
    49    94    96   ar
    50    99   100    1
    51   100   103    1
    52    41    39    1
    53    50    51    1
    54    97    98   ar
    55    96    98   ar
    56    34    35    1
    57   103   104    1
    58    35    36    1
    59    35    38    1
    60    51    52    1
    61    51    54    1
    62    37    36    2
    63    52    53    2
    64    39    38    1
    65    39    40    1
    66   104   105    1
    67   105   106    1
    68    87    85    1
    69    86    85    1
    70    79    80    1
    71    79    78    1
    72    80    74    1
    73    67    66    2
    74    85    82    1
    75    58    57    2
    76    66    65    1
    77    66    68   am
    78    65    64    1
    79    78    75    1
    80    69    68    1
    81    69    72    1
    82    69    70    1
    83    82    81    1
    84    82    83    1
    85    73    72    1
    86    74    70   am
    87    74    75    1
    88    57    64   am
    89    57    56    1
    90    70    71    2
    91    84    83    2
    92    75    76    1
    93    59    60    1
    94    59    56    1
    95    62    61   ar
    96    60    61    1
    97    56    55    1
    98    77    76    2
    99    61    63   ar
