@<TRIPOS>MOLECULE
tmp/3mscA00.pdb
 235 226 0 0 0
SMALL
GASTEIGER

@<TRIPOS>ATOM
      1  N         32.9960   20.2450   39.3670 N.3    77  GLU77      -0.1245
      2  CA        31.6830   20.7130   38.9650 C.3    77  GLU77       0.1567
      3  C         30.7360   19.5580   38.6770 C.2    77  GLU77       0.2260
      4  O         31.1050   18.5880   37.9950 O.2    77  GLU77      -0.2867
      5  CB        31.7850   21.6660   37.7560 C.3    77  GLU77       0.0388
      6  CG        32.5540   22.9490   38.0590 C.3    77  GLU77       0.1160
      7  CD        32.5550   23.9460   36.9150 C.2    77  GLU77       0.3649
      8  OE1       33.5100   24.7490   36.8530 O.co2  77  GLU77      -0.2457
      9  OE2       31.6230   23.9320   36.0750 O.co2  77  GLU77      -0.2457
     10  N         29.4950   25.5750   36.0320 N.3   122  ASN122     -0.1225
     11  CA        29.4240   26.7810   35.2160 C.3   122  ASN122      0.1785
     12  C         28.6420   26.6110   33.9070 C.2   122  ASN122      0.2598
     13  O         27.9180   27.5100   33.4780 O.2   122  ASN122     -0.2718
     14  CB        30.8390   27.2450   34.8840 C.3   122  ASN122      0.1169
     15  CG        31.4580   28.0190   36.0020 C.2   122  ASN122      0.2627
     16  OD1       31.1210   29.1880   36.2210 O.2   122  ASN122     -0.2716
     17  ND2       32.3640   27.3760   36.7340 N.am  122  ASN122     -0.0877
     18  N         28.8060   25.4650   33.2660 N.am  123  GLY123     -0.1942
     19  CA        28.2190   25.2610   31.9470 C.3   123  GLY123      0.2014
     20  C         28.4830   23.8680   31.4680 C.2   123  GLY123      0.2639
     21  O         28.1810   22.8990   32.1740 O.2   123  GLY123     -0.2714
     22  N         29.0790   23.7730   30.2810 N.am  124  GLY124     -0.1939
     23  CA        29.2620   22.4970   29.5860 C.3   124  GLY124      0.2014
     24  C         29.9720   21.4080   30.3620 C.2   124  GLY124      0.2638
     25  O         29.5000   20.2780   30.4330 O.2   124  GLY124     -0.2714
     26  N         31.1170   21.7400   30.9500 N.am  125  LEU125     -0.1977
     27  CA        31.9050   20.7410   31.6720 C.3   125  LEU125      0.1596
     28  C         31.1390   20.2060   32.9030 C.2   125  LEU125      0.2287
     29  O         31.1420   19.0050   33.1670 O.2   125  LEU125     -0.2864
     30  CB        33.2970   21.3090   32.0250 C.3   125  LEU125      0.0297
     31  CG        34.2280   20.5930   33.0150 C.3   125  LEU125      0.0022
     32  CD1       35.7000   20.9750   32.7760 C.3   125  LEU125      0.0001
     33  CD2       33.8200   20.9070   34.4580 C.3   125  LEU125      0.0001
     34  N         28.1530   18.0730   31.7080 N.3   128  LEU128     -0.1245
     35  CA        28.6530   16.7920   31.2150 C.3   128  LEU128      0.1561
     36  C         28.8140   15.7820   32.3500 C.2   128  LEU128      0.2260
     37  O         28.4520   14.6120   32.1990 O.2   128  LEU128     -0.2867
     38  CB        29.9640   16.9450   30.4320 C.3   128  LEU128      0.0270
     39  CG        30.4190   15.7070   29.6450 C.3   128  LEU128      0.0019
     40  CD1       29.6000   15.4940   28.3420 C.3   128  LEU128      0.0001
     41  CD2       31.9090   15.7860   29.3290 C.3   128  LEU128      0.0001
     42  N         33.9570   28.8410   41.9210 N.3   263  TYR263     -0.1241
     43  CA        34.5850   29.8260   41.0310 C.3   263  TYR263      0.1605
     44  C         33.7880   29.8800   39.7230 C.2   263  TYR263      0.2264
     45  O         33.5930   28.8410   39.0780 O.2   263  TYR263     -0.2867
     46  CB        36.0540   29.4960   40.7740 C.3   263  TYR263      0.0534
     47  CG        36.9640   30.0750   41.8300 C.ar  263  TYR263     -0.0201
     48  CD1       37.1430   29.4310   43.0570 C.ar  263  TYR263     -0.0009
     49  CD2       37.6140   31.2810   41.6130 C.ar  263  TYR263     -0.0009
     50  CE1       37.9690   29.9740   44.0410 C.ar  263  TYR263      0.0417
     51  CE2       38.4460   31.8390   42.5890 C.ar  263  TYR263      0.0417
     52  CZ        38.6150   31.1810   43.7980 C.ar  263  TYR263      0.1957
     53  OH        39.4270   31.7350   44.7510 O.3   263  TYR263     -0.2866
     54  N         34.1900   31.0400   36.6240 N.3   265  ASN265     -0.1225
     55  CA        34.8580   31.1980   35.3270 C.3   265  ASN265      0.1785
     56  C         34.5770   30.0330   34.3960 C.2   265  ASN265      0.2597
     57  O         34.7560   28.8770   34.7670 O.2   265  ASN265     -0.2718
     58  CB        36.3660   31.3410   35.5250 C.3   265  ASN265      0.1169
     59  CG        36.7110   32.5370   36.3580 C.2   265  ASN265      0.2627
     60  OD1       36.1010   33.6010   36.2090 O.2   265  ASN265     -0.2716
     61  ND2       37.6720   32.3770   37.2630 N.am  265  ASN265     -0.0877
     62  N         34.1130   30.3260   33.1980 N.am  266  ASP266     -0.1960
     63  CA        33.9360   29.2880   32.2130 C.3   266  ASP266      0.1840
     64  C         35.1200   29.4080   31.2660 C.2   266  ASP266      0.2622
     65  O         35.4370   30.5060   30.8130 O.2   266  ASP266     -0.2715
     66  CB        32.6090   29.4820   31.4780 C.3   266  ASP266      0.1450
     67  CG        32.2210   28.2700   30.6430 C.2   266  ASP266      0.3671
     68  OD1       31.5800   27.3390   31.1880 O.co2 266  ASP266     -0.2456
     69  OD2       32.5550   28.2510   29.4340 O.co2 266  ASP266     -0.2456
     70  N         35.7940   28.2900   30.9920 N.am  267  ASN267     -0.1958
     71  CA        36.9320   28.2790   30.0610 C.3   267  ASN267      0.1819
     72  C         37.9100   29.4320   30.3160 C.2   267  ASN267      0.2621
     73  O         38.2460   30.1810   29.3870 O.2   267  ASN267     -0.2715
     74  CB        36.4470   28.3340   28.6000 C.3   267  ASN267      0.1195
     75  CG        35.9360   27.0020   28.1000 C.2   267  ASN267      0.2630
     76  OD1       36.7030   26.1640   27.6290 O.2   267  ASN267     -0.2716
     77  ND2       34.6310   26.8070   28.1810 N.am  267  ASN267     -0.0877
     78  N         38.3440   29.5790   31.5740 N.am  268  PHE268     -0.1960
     79  CA        39.2960   30.6300   31.9630 C.3   268  PHE268      0.1771
     80  C         39.9850   30.3040   33.2950 C.2   268  PHE268      0.2620
     81  O         39.3230   30.0100   34.2930 O.2   268  PHE268     -0.2715
     82  CB        38.6080   32.0010   32.0430 C.3   268  PHE268      0.0574
     83  CG        39.5560   33.1480   32.2620 C.ar  268  PHE268     -0.0200
     84  CD1       40.2020   33.7480   31.1860 C.ar  268  PHE268     -0.0042
     85  CD2       39.7970   33.6370   33.5450 C.ar  268  PHE268     -0.0042
     86  CE1       41.0840   34.8220   31.3840 C.ar  268  PHE268     -0.0003
     87  CE2       40.6830   34.7100   33.7580 C.ar  268  PHE268     -0.0003
     88  CZ        41.3270   35.3010   32.6770 C.ar  268  PHE268     -0.0000
     89  N         41.3140   30.3920   33.3030 N.am  269  PHE269     -0.1960
     90  CA        42.1060   30.0940   34.4950 C.3   269  PHE269      0.1771
     91  C         42.4080   31.3640   35.2950 C.2   269  PHE269      0.2619
     92  O         42.8320   32.3690   34.7370 O.2   269  PHE269     -0.2715
     93  CB        43.4040   29.3700   34.1050 C.3   269  PHE269      0.0574
     94  CG        44.3760   29.1700   35.2520 C.ar  269  PHE269     -0.0200
     95  CD1       45.6290   29.7850   35.2330 C.ar  269  PHE269     -0.0042
     96  CD2       44.0390   28.3760   36.3470 C.ar  269  PHE269     -0.0042
     97  CE1       46.5380   29.6000   36.2730 C.ar  269  PHE269     -0.0003
     98  CE2       44.9460   28.1910   37.4000 C.ar  269  PHE269     -0.0003
     99  CZ        46.1970   28.8000   37.3550 C.ar  269  PHE269     -0.0000
    100  N         42.1650   31.2880   36.6010 N.am  270  GLU270     -0.1977
    101  CA        42.5260   32.3230   37.5630 C.3   270  GLU270      0.1602
    102  C         43.3480   31.6390   38.6600 C.2   270  GLU270      0.2287
    103  O         42.8440   30.7460   39.3550 O.2   270  GLU270     -0.2864
    104  CB        41.2520   32.9470   38.1490 C.3   270  GLU270      0.0415
    105  CG        41.3790   34.4160   38.6010 C.3   270  GLU270      0.1163
    106  CD        40.1630   34.8920   39.4100 C.2   270  GLU270      0.3649
    107  OE1       40.3640   35.5960   40.4260 O.co2 270  GLU270     -0.2457
    108  OE2       39.0070   34.5570   39.0440 O.co2 270  GLU270     -0.2457
    109  N         41.3220   28.7150   45.1320 N.3   275  ARG275     -0.1245
    110  CA        41.0260   27.7360   44.0830 C.3   275  ARG275      0.1563
    111  C         41.9320   26.5100   44.1730 C.2   275  ARG275      0.2260
    112  O         41.4700   25.3800   44.0280 O.2   275  ARG275     -0.2867
    113  CB        41.1460   28.3850   42.7070 C.3   275  ARG275      0.0307
    114  CG        41.0610   27.4270   41.5220 C.3   275  ARG275      0.0489
    115  CD        39.6630   26.8450   41.3500 C.3   275  ARG275      0.2205
    116  NE        39.5750   25.9880   40.1660 N.pl3 275  ARG275     -0.0865
    117  CZ        38.4350   25.5290   39.6440 C.cat 275  ARG275      0.5346
    118  NH1       37.2650   25.8270   40.2010 N.pl3 275  ARG275      0.1354
    119  NH2       38.4650   24.7640   38.5580 N.pl3 275  ARG275      0.1354
    120  N         39.0540   17.3280   33.2150 N.3   313  ASP313     -0.1239
    121  CA        40.0260   18.3960   32.9890 C.3   313  ASP313      0.1674
    122  C         41.1980   18.3030   33.9810 C.2   313  ASP313      0.2266
    123  O         41.3760   17.2750   34.6240 O.2   313  ASP313     -0.2867
    124  CB        39.3730   19.7820   32.9510 C.3   313  ASP313      0.1410
    125  CG        40.0640   20.7100   31.9650 C.2   313  ASP313      0.3668
    126  OD1       39.6340   20.8000   30.7980 O.co2 313  ASP313     -0.2456
    127  OD2       41.0930   21.2960   32.3450 O.co2 313  ASP313     -0.2456
    128  N         41.5590   20.0920   36.6430 N.3   315  HIS315     -0.1241
    129  CA        41.2170   20.6100   37.9700 C.3   315  HIS315      0.1621
    130  C         41.5340   19.6470   39.1200 C.2   315  HIS315      0.2264
    131  O         41.9870   20.0970   40.1690 O.2   315  HIS315     -0.2867
    132  CB        39.7890   21.1620   38.0440 C.3   315  HIS315      0.0745
    133  CG        39.4040   21.9880   36.8560 C.ar  315  HIS315      0.0817
    134  ND1       38.1140   22.0340   36.3740 N.ar  315  HIS315     -0.2268
    135  CD2       40.1440   22.7720   36.0300 C.ar  315  HIS315      0.1154
    136  CE1       38.0700   22.8220   35.3120 C.ar  315  HIS315      0.1986
    137  NE2       39.2880   23.2860   35.0850 N.ar  315  HIS315     -0.2212
    138  N         39.1850   19.4380   27.9640 N.3   351  HIS351     -0.1226
    139  CA        37.9400   20.1020   27.5810 C.3   351  HIS351      0.1752
    140  C         38.1580   21.4040   26.8120 C.2   351  HIS351      0.2596
    141  O         37.1940   22.0480   26.4190 O.2   351  HIS351     -0.2718
    142  CB        37.0560   20.3510   28.8060 C.3   351  HIS351      0.0759
    143  CG        36.5450   19.0970   29.4370 C.ar  351  HIS351      0.0818
    144  ND1       35.3840   18.4790   29.0280 N.ar  351  HIS351     -0.2268
    145  CD2       37.0480   18.3340   30.4360 C.ar  351  HIS351      0.1154
    146  CE1       35.1840   17.3960   29.7570 C.ar  351  HIS351      0.1986
    147  NE2       36.1830   17.2820   30.6160 N.ar  351  HIS351     -0.2212
    148  N         39.4120   21.7860   26.5800 N.am  352  THR352     -0.1953
    149  CA        39.6730   23.0450   25.8720 C.3   352  THR352      0.1897
    150  C         41.0670   23.1930   25.2820 C.2   352  THR352      0.2313
    151  O         42.0360   22.6200   25.7930 O.2   352  THR352     -0.2863
    152  CB        39.3770   24.2800   26.7630 C.3   352  THR352      0.1794
    153  OG1       39.4350   25.4730   25.9650 O.3   352  THR352     -0.2208
    154  CG2       40.3560   24.3550   27.9370 C.3   352  THR352      0.0378
    155  N         42.6910   29.3360   29.3070 N.3   357  ALA357     -0.1245
    156  CA        41.9060   28.4020   30.1110 C.3   357  ALA357      0.1562
    157  C         42.7790   27.3380   30.7920 C.2   357  ALA357      0.2260
    158  O         42.3280   26.6740   31.7280 O.2   357  ALA357     -0.2867
    159  CB        40.8310   27.7430   29.2610 C.3   357  ALA357      0.0290
    160  N         45.5490   25.5360   33.1000 N.3   359  GLU359     -0.1245
    161  CA        46.0390   25.7590   34.4530 C.3   359  GLU359      0.1567
    162  C         47.5410   25.6740   34.4820 C.2   359  GLU359      0.2260
    163  O         48.1300   24.6500   34.1410 O.2   359  GLU359     -0.2867
    164  CB        45.4550   24.7520   35.4390 C.3   359  GLU359      0.0388
    165  CG        43.9670   24.8750   35.6560 C.3   359  GLU359      0.1160
    166  CD        43.5110   24.0470   36.8270 C.2   359  GLU359      0.3649
    167  OE1       43.5430   22.7940   36.7400 O.co2 359  GLU359     -0.2457
    168  OE2       43.1380   24.6610   37.8450 O.co2 359  GLU359     -0.2457
    169  N         37.1620   15.5720   23.3140 N.3   429  VAL429     -0.1245
    170  CA        35.7240   15.3980   23.5320 C.3   429  VAL429      0.1561
    171  C         34.8570   15.4930   22.2730 C.2   429  VAL429      0.2260
    172  O         33.6330   15.5220   22.3650 O.2   429  VAL429     -0.2867
    173  CB        35.1990   16.3350   24.6580 C.3   429  VAL429      0.0252
    174  CG1       35.7250   15.8580   26.0160 C.3   429  VAL429      0.0019
    175  CG2       35.5880   17.7930   24.4050 C.3   429  VAL429      0.0019
    176  N         31.4770   13.7380   23.1400 N.3   458  ASN458     -0.1240
    177  CA        30.5040   14.0190   24.1870 C.3   458  ASN458      0.1653
    178  C         29.0970   13.5390   23.8130 C.2   458  ASN458      0.2266
    179  O         28.8100   13.2370   22.6500 O.2   458  ASN458     -0.2867
    180  CB        30.4670   15.5230   24.4920 C.3   458  ASN458      0.1155
    181  CG        31.6230   15.9950   25.3960 C.2   458  ASN458      0.2627
    182  OD1       31.8460   17.2130   25.5490 O.2   458  ASN458     -0.2716
    183  ND2       32.3450   15.0550   25.9950 N.am  458  ASN458     -0.0877
    184  N         34.6720   33.7110   22.1250 N.3   547  TYR547     -0.1227
    185  CA        34.8640   32.6270   21.1550 C.3   547  TYR547      0.1736
    186  C         33.5580   32.0320   20.6610 C.2   547  TYR547      0.2595
    187  O         33.5210   31.4910   19.5560 O.2   547  TYR547     -0.2718
    188  CB        35.8340   31.5380   21.6360 C.3   547  TYR547      0.0548
    189  CG        35.2310   30.4330   22.4760 C.ar  547  TYR547     -0.0200
    190  CD1       34.6200   29.3330   21.8760 C.ar  547  TYR547     -0.0009
    191  CD2       35.3020   30.4680   23.8720 C.ar  547  TYR547     -0.0009
    192  CE1       34.0810   28.3170   22.6330 C.ar  547  TYR547      0.0417
    193  CE2       34.7590   29.4410   24.6450 C.ar  547  TYR547      0.0417
    194  CZ        34.1450   28.3720   24.0160 C.ar  547  TYR547      0.1957
    195  OH        33.6000   27.3260   24.7510 O.3   547  TYR547     -0.2866
    196  N         32.5060   32.1420   21.4730 N.am  548  LYS548     -0.1980
    197  CA        31.1750   31.6450   21.1180 C.3   548  LYS548      0.1596
    198  C         30.4240   32.5960   20.1680 C.2   548  LYS548      0.2287
    199  O         29.4000   32.2180   19.5930 O.2   548  LYS548     -0.2864
    200  CB        30.3430   31.3580   22.3770 C.3   548  LYS548      0.0298
    201  CG        30.8700   30.1960   23.2240 C.3   548  LYS548      0.0038
    202  CD        30.1950   30.1560   24.5920 C.3   548  LYS548      0.0206
    203  CE        30.7500   29.0560   25.5170 C.3   548  LYS548      0.1093
    204  NZ        30.4380   27.6660   25.0180 N.3   548  LYS548     -0.1314
    205  N         35.5000   25.7240   19.9580 N.3   646  GLU646     -0.1231
    206  CA        34.5540   24.9780   20.8110 C.3   646  GLU646      0.1699
    207  C         34.9300   23.4860   20.7980 C.2   646  GLU646      0.2592
    208  O         34.7190   22.8150   19.7970 O.2   646  GLU646     -0.2718
    209  CB        33.1010   25.2000   20.3320 C.3   646  GLU646      0.0402
    210  CG        32.0180   24.6850   21.2910 C.3   646  GLU646      0.1161
    211  CD        31.8900   25.5340   22.5420 C.2   646  GLU646      0.3649
    212  OE1       32.5710   25.2150   23.5400 O.co2 646  GLU646     -0.2457
    213  OE2       31.1360   26.5410   22.5210 O.co2 646  GLU646     -0.2457
    214  N         35.5140   22.9670   21.8850 N.am  647  ALA647     -0.1966
    215  CA        36.0210   21.5770   21.8950 C.3   647  ALA647      0.1728
    216  C         34.9830   20.5480   21.4240 C.2   647  ALA647      0.2617
    217  O         35.2770   19.6600   20.6090 O.2   647  ALA647     -0.2715
    218  CB        36.5600   21.1930   23.2700 C.3   647  ALA647      0.0334
    219  N         33.7710   20.6740   21.9500 N.am  648  SER648     -0.1936
    220  CA        32.6760   19.8420   21.5190 C.3   648  SER648      0.2055
    221  C         31.3940   20.6490   21.4290 C.2   648  SER648      0.2644
    222  O         30.8030   20.7750   20.3450 O.2   648  SER648     -0.2714
    223  CB        32.5050   18.6570   22.4730 C.3   648  SER648      0.2130
    224  OG        31.2790   18.0080   22.2240 O.3   648  SER648     -0.2179
    225  N         30.9760   21.2070   22.5660 N.am  649  GLY649     -0.1939
    226  CA        29.6250   21.7230   22.7200 C.3   649  GLY649      0.2014
    227  C         28.7020   20.5780   23.1110 C.2   649  GLY649      0.2639
    228  O         28.9370   19.4400   22.7150 O.2   649  GLY649     -0.2714
    229  N         27.6740   20.8660   23.9100 N.am  650  THR650     -0.1950
    230  CA        26.6490   19.8720   24.2620 C.3   650  THR650      0.1897
    231  C         25.2450   20.4310   24.0790 C.2   650  THR650      0.2313
    232  O         24.3060   19.6900   23.7840 O.2   650  THR650     -0.2863
    233  CB        26.7950   19.3460   25.7050 C.3   650  THR650      0.1794
    234  OG1       26.8730   20.4570   26.6020 O.3   650  THR650     -0.2208
    235  CG2       28.0260   18.4700   25.8410 C.3   650  THR650      0.0378
@<TRIPOS>BOND
     1   187   186    2
     2   199   198    2
     3   208   207    2
     4   205   206    1
     5   198   197    1
     6   209   206    1
     7   209   210    1
     8   222   221    2
     9   217   216    2
    10   186   185    1
    11   186   196   am
    12   207   206    1
    13   207   214   am
    14   197   196    1
    15   197   200    1
    16   185   188    1
    17   185   184    1
    18   210   211    1
    19   216   215    1
    20   216   219   am
    21   221   220    1
    22   221   225   am
    23   220   219    1
    24   220   223    1
    25   188   189    1
    26   190   189   ar
    27   190   192   ar
    28   214   215    1
    29   215   218    1
    30   224   223    1
    31   171   172    2
    32   171   170    1
    33   200   201    1
    34   189   191   ar
    35   213   211   ar
    36   211   212   ar
    37   225   226    1
    38   192   194   ar
    39   179   178    2
    40   228   227    2
    41   226   227    1
    42   227   229   am
    43   176   177    1
    44   201   202    1
    45   169   170    1
    46   170   173    1
    47   232   231    2
    48   178   177    1
    49   191   193   ar
    50   229   230    1
    51   194   193   ar
    52   194   195    1
    53   231   230    1
    54   177   180    1
    55   230   233    1
    56   175   173    1
    57   180   181    1
    58   202   203    1
    59   173   174    1
    60   204   203    1
    61   150   151    2
    62   150   149    1
    63   181   182    2
    64   181   183   am
    65   233   235    1
    66   233   234    1
    67   149   148    1
    68   149   152    1
    69   153   152    1
    70   141   140    2
    71   148   140   am
    72   152   154    1
    73   140   139    1
    74   139   138    1
    75   139   142    1
    76    76    75    2
    77    75    77   am
    78    75    74    1
    79    40    39    1
    80    74    71    1
    81   142   143    1
    82   144   143   ar
    83   144   146   ar
    84   159   156    1
    85   155   156    1
    86    41    39    1
    87    73    72    2
    88    69    67   ar
    89   143   145   ar
    90    23    22    1
    91    23    24    1
    92    39    38    1
    93   146   147   ar
    94    71    72    1
    95    71    70    1
    96   156   157    1
    97    22    20   am
    98    72    78   am
    99    24    25    2
   100    24    26   am
   101    38    35    1
   102   145   147   ar
   103    67    68   ar
   104    67    66    1
   105   157   158    2
   106   126   125   ar
   107    65    64    2
   108    26    27    1
   109    70    64   am
   110    84    86   ar
   111    84    83   ar
   112    35    34    1
   113    35    36    1
   114    64    63    1
   115    86    88   ar
   116    20    19    1
   117    20    21    2
   118    66    63    1
   119    78    79    1
   120    27    30    1
   121    27    28    1
   122    19    18    1
   123    79    82    1
   124    79    80    1
   125   125   127   ar
   126   125   124    1
   127    30    31    1
   128    82    83    1
   129    37    36    2
   130    63    62    1
   131    83    85   ar
   132    88    87   ar
   133    32    31    1
   134    28    29    2
   135   124   121    1
   136   121   120    1
   137   121   122    1
   138    31    33    1
   139   160   161    1
   140    62    56   am
   141    18    12   am
   142    80    89   am
   143    80    81    2
   144    89    90    1
   145    13    12    2
   146    85    87   ar
   147    12    11    1
   148   122   123    2
   149    93    90    1
   150    93    94    1
   151   163   162    2
   152    56    57    2
   153    56    55    1
   154   161   162    1
   155   161   164    1
   156    90    91    1
   157    92    91    2
   158    14    11    1
   159    14    15    1
   160   137   136   ar
   161   137   135   ar
   162    11    10    1
   163    95    94   ar
   164    95    97   ar
   165    94    96   ar
   166    91   100   am
   167   136   134   ar
   168    55    58    1
   169    55    54    1
   170   164   165    1
   171    58    59    1
   172   165   166    1
   173    15    16    2
   174    15    17   am
   175   135   133   ar
   176     9     7   ar
   177    60    59    2
   178    97    99   ar
   179    96    98   ar
   180    59    61   am
   181   134   133   ar
   182   100   101    1
   183   128   129    1
   184   167   166   ar
   185   166   168   ar
   186     8     7   ar
   187   133   132    1
   188     7     6    1
   189    99    98   ar
   190   101   104    1
   191   101   102    1
   192     5     6    1
   193     5     2    1
   194   129   132    1
   195   129   130    1
   196     4     3    2
   197   104   105    1
   198   119   117    1
   199   105   106    1
   200   102   103    2
   201     3     2    1
   202     2     1    1
   203   108   106   ar
   204    45    44    2
   205   130   131    2
   206   106   107   ar
   207   117   116    2
   208   117   118    1
   209    44    43    1
   210   116   115    1
   211    46    43    1
   212    46    47    1
   213    43    42    1
   214   115   114    1
   215   114   113    1
   216    49    47   ar
   217    49    51   ar
   218    47    48   ar
   219    51    52   ar
   220   113   110    1
   221    48    50   ar
   222    52    50   ar
   223    52    53    1
   224   112   111    2
   225   110   111    1
   226   110   109    1
