@<TRIPOS>MOLECULE
tmp/3mscA01.pdb
 127 128 0 0 0
SMALL
GASTEIGER

@<TRIPOS>ATOM
      1  N         11.5720   10.3640   47.5470 N.3    49  ARG49      -0.1231
      2  CA        12.8590   10.0250   48.1200 C.3    49  ARG49       0.1694
      3  C         12.8240    8.6650   48.8190 C.2    49  ARG49       0.2592
      4  O         13.7710    7.8930   48.7050 O.2    49  ARG49      -0.2718
      5  CB        13.2480   11.1400   49.0990 C.3    49  ARG49       0.0321
      6  CG        14.4830   10.9180   49.8970 C.3    49  ARG49       0.0489
      7  CD        14.7880   12.1590   50.7540 C.3    49  ARG49       0.2205
      8  NE        14.5200   11.9590   52.1780 N.pl3  49  ARG49      -0.0865
      9  CZ        14.8790   12.8070   53.1490 C.cat  49  ARG49       0.5346
     10  NH1       15.5300   13.9310   52.8700 N.pl3  49  ARG49       0.1354
     11  NH2       14.5930   12.5220   54.4180 N.pl3  49  ARG49       0.1354
     12  N         11.7310    8.3730   49.5290 N.am   50  ASP50      -0.1974
     13  CA        11.5840    7.0750   50.2060 C.3    50  ASP50       0.1709
     14  C         11.7320    5.8860   49.2510 C.2    50  ASP50       0.2293
     15  O         12.2940    4.8600   49.6270 O.2    50  ASP50      -0.2864
     16  CB        10.2340    6.9690   50.9290 C.3    50  ASP50       0.1436
     17  CG        10.1750    7.7970   52.1940 C.2    50  ASP50       0.3671
     18  OD1        9.0470    8.0570   52.6440 O.co2  50  ASP50      -0.2456
     19  OD2       11.2390    8.1950   52.7290 O.co2  50  ASP50      -0.2456
     20  N         13.7210    5.6700   46.7510 N.3    52  LEU52      -0.1231
     21  CA        15.1430    5.5000   46.4420 C.3    52  LEU52       0.1693
     22  C         15.8880    4.6300   47.4490 C.2    52  LEU52       0.2591
     23  O         16.7480    3.8430   47.0680 O.2    52  LEU52      -0.2718
     24  CB        15.8440    6.8640   46.3350 C.3    52  LEU52       0.0284
     25  CG        15.5850    7.6640   45.0610 C.3    52  LEU52       0.0019
     26  CD1       15.9990    9.1190   45.2190 C.3    52  LEU52       0.0001
     27  CD2       16.2980    7.0110   43.8750 C.3    52  LEU52       0.0001
     28  N         15.5490    4.7620   48.7300 N.am   53  VAL53      -0.1980
     29  CA        16.4090    4.2430   49.8090 C.3    53  VAL53       0.1595
     30  C         16.6840    2.7420   49.7610 C.2    53  VAL53       0.2287
     31  O         17.8330    2.3260   49.9070 O.2    53  VAL53      -0.2864
     32  CB        15.9490    4.6980   51.2450 C.3    53  VAL53       0.0276
     33  CG1       15.5550    6.1490   51.2310 C.3    53  VAL53       0.0022
     34  CG2       14.7950    3.8670   51.7460 C.3    53  VAL53       0.0022
     35  N         18.9360    2.1140   46.9100 N.3    56  TRP56      -0.1241
     36  CA        20.2360    2.6790   47.2520 C.3    56  TRP56       0.1605
     37  C         21.0570    1.7720   48.1660 C.2    56  TRP56       0.2264
     38  O         22.2500    1.5680   47.9340 O.2    56  TRP56      -0.2867
     39  CB        20.0470    4.0570   47.8970 C.3    56  TRP56       0.0550
     40  CG        21.2400    4.9530   47.8120 C.ar   56  TRP56       0.0003
     41  CD1       22.3910    4.7310   47.1090 C.ar   56  TRP56       0.0946
     42  CD2       21.3880    6.2400   48.4220 C.ar   56  TRP56       0.0152
     43  NE1       23.2510    5.7890   47.2590 N.ar   56  TRP56      -0.2442
     44  CE2       22.6590    6.7330   48.0560 C.ar   56  TRP56       0.0810
     45  CE3       20.5710    7.0240   49.2460 C.ar   56  TRP56       0.0012
     46  CZ2       23.1380    7.9820   48.4890 C.ar   56  TRP56       0.0191
     47  CZ3       21.0520    8.2700   49.6830 C.ar   56  TRP56       0.0001
     48  CH2       22.3230    8.7280   49.3020 C.ar   56  TRP56       0.0015
     49  N         18.1780   20.6870   51.6080 N.3   176  ASN176     -0.1226
     50  CA        18.2880   19.8580   50.4210 C.3   176  ASN176      0.1770
     51  C         17.8270   18.4400   50.7700 C.2   176  ASN176      0.2439
     52  O         18.5590   17.6870   51.4170 O.2   176  ASN176     -0.2733
     53  CB        19.7290   19.8970   49.8910 C.3   176  ASN176      0.1168
     54  CG        19.9620   18.9550   48.7260 C.2   176  ASN176      0.2627
     55  OD1       19.0140   18.4600   48.1090 O.2   176  ASN176     -0.2716
     56  ND2       21.2370   18.7000   48.4160 N.am  176  ASN176     -0.0877
     57  N         16.5960   18.0820   50.3620 N.am  177  PRO177     -0.2718
     58  CA        16.0530   16.7720   50.7090 C.3   177  PRO177      0.1535
     59  C         16.8370   15.6160   50.0750 C.2   177  PRO177      0.2599
     60  O         16.8080   14.5070   50.5840 O.2   177  PRO177     -0.2715
     61  CB        14.6130   16.8270   50.1780 C.3   177  PRO177      0.0310
     62  CG        14.6020   17.8870   49.1660 C.3   177  PRO177      0.0237
     63  CD        15.6530   18.8820   49.5570 C.3   177  PRO177      0.0939
     64  N         17.5740   15.9060   49.0100 N.am  178  TRP178     -0.1960
     65  CA        18.2770   14.8890   48.2570 C.3   178  TRP178      0.1771
     66  C         19.6460   14.4630   48.8190 C.2   178  TRP178      0.2620
     67  O         20.1370   13.4000   48.4480 O.2   178  TRP178     -0.2715
     68  CB        18.3750   15.3100   46.7870 C.3   178  TRP178      0.0590
     69  CG        17.0360   15.7380   46.2470 C.ar  178  TRP178      0.0006
     70  CD1       16.6370   17.0100   45.9330 C.ar  178  TRP178      0.0946
     71  CD2       15.9080   14.8930   46.0130 C.ar  178  TRP178      0.0152
     72  NE1       15.3290   17.0040   45.5010 N.ar  178  TRP178     -0.2442
     73  CE2       14.8580   15.7160   45.5470 C.ar  178  TRP178      0.0810
     74  CE3       15.6830   13.5120   46.1510 C.ar  178  TRP178      0.0012
     75  CZ2       13.6000   15.2000   45.1970 C.ar  178  TRP178      0.0191
     76  CZ3       14.4290   12.9980   45.8110 C.ar  178  TRP178      0.0001
     77  CH2       13.4050   13.8420   45.3440 C.ar  178  TRP178      0.0015
     78  N         20.2580   15.2390   49.7100 N.am  179  GLU179     -0.1963
     79  CA        21.5680   14.8510   50.2440 C.3   179  GLU179      0.1733
     80  C         21.4350   14.1430   51.5920 C.2   179  GLU179      0.2616
     81  O         20.5300   14.4420   52.3430 O.2   179  GLU179     -0.2715
     82  CB        22.5100   16.0600   50.3580 C.3   179  GLU179      0.0429
     83  CG        22.2330   16.9710   51.5390 C.3   179  GLU179      0.1163
     84  CD        22.8690   18.3240   51.4070 C.2   179  GLU179      0.3649
     85  OE1       22.5740   19.1770   52.2680 O.co2 179  GLU179     -0.2457
     86  OE2       23.6480   18.5540   50.4490 O.co2 179  GLU179     -0.2457
     87  N         22.3170   13.1900   51.8700 N.am  180  LYS180     -0.1963
     88  CA        22.4430   12.6240   53.2100 C.3   180  LYS180      0.1728
     89  C         23.8280   12.9660   53.7620 C.2   180  LYS180      0.2616
     90  O         24.8350   12.5250   53.2070 O.2   180  LYS180     -0.2715
     91  CB        22.2330   11.1060   53.1950 C.3   180  LYS180      0.0311
     92  CG        22.3970   10.4290   54.5580 C.3   180  LYS180      0.0038
     93  CD        21.1750   10.6650   55.4270 C.3   180  LYS180      0.0206
     94  CE        21.3970   10.2250   56.8730 C.3   180  LYS180      0.1093
     95  NZ        22.3730   11.0920   57.5760 N.3   180  LYS180     -0.1314
     96  N         23.8700   13.7510   54.8420 N.am  181  ALA181     -0.1977
     97  CA        25.1180   14.0500   55.5420 C.3   181  ALA181      0.1597
     98  C         25.6830   12.7770   56.1340 C.2   181  ALA181      0.2287
     99  O         24.9400   11.9670   56.7130 O.2   181  ALA181     -0.2864
    100  CB        24.9010   15.1010   56.6420 C.3   181  ALA181      0.0319
    101  N         28.7570   14.4390   51.9240 N.3   215  TYR215     -0.1227
    102  CA        27.3130   14.4230   51.7640 C.3   215  TYR215      0.1736
    103  C         27.0140   13.5680   50.5380 C.2   215  TYR215      0.2595
    104  O         27.5350   13.8510   49.4450 O.2   215  TYR215     -0.2718
    105  CB        26.7740   15.8350   51.5120 C.3   215  TYR215      0.0548
    106  CG        26.7390   16.7380   52.7340 C.ar  215  TYR215     -0.0200
    107  CD1       27.9130   17.3170   53.2320 C.ar  215  TYR215     -0.0009
    108  CD2       25.5320   17.0170   53.3820 C.ar  215  TYR215     -0.0009
    109  CE1       27.8880   18.1370   54.3580 C.ar  215  TYR215      0.0417
    110  CE2       25.4890   17.8490   54.4980 C.ar  215  TYR215      0.0417
    111  CZ        26.6710   18.4040   54.9810 C.ar  215  TYR215      0.1957
    112  OH        26.6450   19.2260   56.0790 O.3   215  TYR215     -0.2866
    113  N         26.1840   12.5440   50.7180 N.am  216  ASP216     -0.1974
    114  CA        25.8410   11.6150   49.6360 C.3   216  ASP216      0.1709
    115  C         24.4970   11.9460   48.9850 C.2   216  ASP216      0.2293
    116  O         23.5020   12.1880   49.6660 O.2   216  ASP216     -0.2864
    117  CB        25.8350   10.1690   50.1480 C.3   216  ASP216      0.1436
    118  CG        27.2200    9.6760   50.5210 C.2   216  ASP216      0.3671
    119  OD1       27.3400    8.5760   51.0930 O.co2 216  ASP216     -0.2456
    120  OD2       28.1980   10.3890   50.2350 O.co2 216  ASP216     -0.2456
    121  N         21.8410   10.3840   45.9870 N.3   218  PRO218     -0.2116
    122  CA        21.5550    9.1990   45.1690 C.3   218  PRO218      0.1372
    123  C         21.4830    9.5470   43.6850 C.2   218  PRO218      0.2244
    124  O         21.0290   10.6250   43.3340 O.2   218  PRO218     -0.2868
    125  CB        20.1840    8.7480   45.6710 C.3   218  PRO218      0.0268
    126  CG        19.5430    9.9910   46.1910 C.3   218  PRO218      0.0207
    127  CD        20.6490   10.8460   46.7250 C.3   218  PRO218      0.0892
@<TRIPOS>BOND
     1   124   123    2
     2   123   122    1
     3    27    25    1
     4    25    26    1
     5    25    24    1
     6   122   125    1
     7   122   121    1
     8    75    77   ar
     9    75    73   ar
    10    77    76   ar
    11    72    73   ar
    12    72    70   ar
    13    73    71   ar
    14   125   126    1
    15    76    74   ar
    16    70    69   ar
    17   121   127    1
    18    71    74   ar
    19    71    69   ar
    20   126   127    1
    21    69    68    1
    22    24    21    1
    23    21    20    1
    24    21    22    1
    25    68    65    1
    26    35    36    1
    27    23    22    2
    28    41    43   ar
    29    41    40   ar
    30    36    39    1
    31    36    37    1
    32    43    44   ar
    33    22    28   am
    34     1     2    1
    35    40    39    1
    36    40    42   ar
    37    38    37    2
    38    44    42   ar
    39    44    46   ar
    40    55    54    2
    41     2     3    1
    42     2     5    1
    43    65    66    1
    44    65    64    1
    45    56    54   am
    46    42    45   ar
    47    67    66    2
    48    46    48   ar
    49     4     3    2
    50    54    53    1
    51    28    29    1
    52     3    12   am
    53    66    78   am
    54   115   114    1
    55   115   116    2
    56    64    59   am
    57     5     6    1
    58    62    63    1
    59    62    61    1
    60    45    47   ar
    61    14    15    2
    62    14    13    1
    63    48    47   ar
    64   104   103    2
    65    12    13    1
    66    63    57    1
    67   114   117    1
    68   114   113    1
    69    78    79    1
    70    30    29    1
    71    30    31    2
    72    29    32    1
    73    53    50    1
    74     6     7    1
    75    59    60    2
    76    59    58    1
    77   117   118    1
    78    61    58    1
    79    13    16    1
    80   120   118   ar
    81    79    82    1
    82    79    80    1
    83    82    83    1
    84    57    58    1
    85    57    51   am
    86    50    51    1
    87    50    49    1
    88    86    84   ar
    89   118   119   ar
    90   103   113   am
    91   103   102    1
    92     7     8    1
    93    51    52    2
    94    16    17    1
    95    33    32    1
    96    32    34    1
    97    84    83    1
    98    84    85   ar
    99   105   102    1
   100   105   106    1
   101    80    87   am
   102    80    81    2
   103   102   101    1
   104    87    88    1
   105     8     9    2
   106    17    18   ar
   107    17    19   ar
   108   106   107   ar
   109   106   108   ar
   110    10     9    1
   111     9    11    1
   112    91    88    1
   113    91    92    1
   114    90    89    2
   115    88    89    1
   116   107   109   ar
   117   108   110   ar
   118    89    96   am
   119   109   111   ar
   120   110   111   ar
   121    92    93    1
   122    96    97    1
   123   111   112    1
   124    93    94    1
   125    97    98    1
   126    97   100    1
   127    98    99    2
   128    94    95    1
