@<TRIPOS>MOLECULE
tmp/3msdA00.pdb
 144 141 0 0 0
SMALL
GASTEIGER

@<TRIPOS>ATOM
      1  N        -33.8460  -21.6950 -102.1270 N.3    43  GLU43      -0.1231
      2  CA       -33.6330  -20.3430 -102.6270 C.3    43  GLU43       0.1699
      3  C        -32.1790  -20.0980 -103.0340 C.2    43  GLU43       0.2592
      4  O        -31.9100  -19.3970 -104.0130 O.2    43  GLU43      -0.2718
      5  CB       -34.0600  -19.3110 -101.5730 C.3    43  GLU43       0.0402
      6  CG       -33.9000  -17.8700 -102.0460 C.3    43  GLU43       0.1161
      7  CD       -34.4100  -16.8490 -101.0480 C.2    43  GLU43       0.3649
      8  OE1      -34.6410  -17.2100  -99.8740 O.co2  43  GLU43      -0.2457
      9  OE2      -34.5700  -15.6740 -101.4430 O.co2  43  GLU43      -0.2457
     10  N        -31.2440  -20.7010 -102.3040 N.am   44  ASN44      -0.1974
     11  CA       -29.8280  -20.5100 -102.5950 C.3    44  ASN44       0.1688
     12  C        -28.9320  -21.7170 -102.3850 C.2    44  ASN44       0.2292
     13  O        -27.8920  -21.8370 -103.0360 O.2    44  ASN44      -0.2864
     14  CB       -29.2570  -19.3950 -101.7150 C.3    44  ASN44       0.1181
     15  CG       -29.6150  -18.0190 -102.2080 C.2    44  ASN44       0.2629
     16  OD1      -29.2190  -17.6230 -103.3000 O.2    44  ASN44      -0.2716
     17  ND2      -30.3640  -17.2760 -101.4010 N.am   44  ASN44      -0.0877
     18  N        -27.3600  -23.9720 -105.3210 N.3    47  LYS47      -0.1245
     19  CA       -26.6340  -23.2830 -106.3800 C.3    47  LYS47       0.1561
     20  C        -25.1840  -23.7470 -106.2780 C.2    47  LYS47       0.2260
     21  O        -24.7500  -24.2110 -105.2220 O.2    47  LYS47      -0.2867
     22  CB       -26.7460  -21.7680 -106.2020 C.3    47  LYS47       0.0271
     23  CG       -28.1560  -21.2650 -106.4630 C.3    47  LYS47       0.0035
     24  CD       -28.3260  -19.7980 -106.0950 C.3    47  LYS47       0.0206
     25  CE       -29.7500  -19.3390 -106.3850 C.3    47  LYS47       0.1093
     26  NZ       -29.9810  -17.9260 -105.9660 N.3    47  LYS47      -0.1314
     27  N        -32.5620  -26.3270 -107.9670 N.3    80  HIS80      -0.1241
     28  CA       -32.1800  -25.0270 -108.5340 C.3    80  HIS80       0.1621
     29  C        -30.8080  -24.6280 -107.9800 C.2    80  HIS80       0.2264
     30  O        -30.6800  -24.4860 -106.7690 O.2    80  HIS80      -0.2867
     31  CB       -33.2440  -23.9970 -108.1080 C.3    80  HIS80       0.0745
     32  CG       -32.9850  -22.6060 -108.5930 C.ar   80  HIS80       0.0817
     33  ND1      -33.2630  -22.2050 -109.8810 N.ar   80  HIS80      -0.2268
     34  CD2      -32.4640  -21.5240 -107.9650 C.ar   80  HIS80       0.1154
     35  CE1      -32.9240  -20.9360 -110.0270 C.ar   80  HIS80       0.1986
     36  NE2      -32.4360  -20.5000 -108.8800 N.ar   80  HIS80      -0.2212
     37  N        -25.2530  -21.6470 -114.2690 N.3    84  TRP84      -0.1241
     38  CA       -25.7180  -20.2610 -114.2670 C.3    84  TRP84       0.1605
     39  C        -24.5160  -19.3170 -114.2720 C.2    84  TRP84       0.2264
     40  O        -23.4440  -19.6720 -113.7770 O.2    84  TRP84      -0.2867
     41  CB       -26.5630  -20.0550 -113.0020 C.3    84  TRP84       0.0550
     42  CG       -27.2490  -18.7240 -112.8340 C.ar   84  TRP84       0.0003
     43  CD1      -27.7060  -17.8950 -113.8200 C.ar   84  TRP84       0.0946
     44  CD2      -27.6670  -18.1400 -111.5930 C.ar   84  TRP84       0.0152
     45  NE1      -28.3890  -16.8330 -113.2680 N.ar   84  TRP84      -0.2442
     46  CE2      -28.3810  -16.9600 -111.9040 C.ar   84  TRP84       0.0810
     47  CE3      -27.5130  -18.5020 -110.2470 C.ar   84  TRP84       0.0012
     48  CZ2      -28.9410  -16.1390 -110.9180 C.ar   84  TRP84       0.0191
     49  CZ3      -28.0700  -17.6850 -109.2640 C.ar   84  TRP84       0.0001
     50  CH2      -28.7770  -16.5160 -109.6070 C.ar   84  TRP84       0.0015
     51  N        -23.5460  -16.7750 -109.0100 N.3    87  GLN87      -0.1245
     52  CA       -23.2900  -17.6580 -107.8790 C.3    87  GLN87       0.1566
     53  C        -22.5510  -18.9570 -108.2010 C.2    87  GLN87       0.2260
     54  O        -22.9450  -20.0460 -107.7780 O.2    87  GLN87      -0.2867
     55  CB       -24.6120  -17.9300 -107.1480 C.3    87  GLN87       0.0367
     56  CG       -25.0920  -16.6990 -106.3670 C.3    87  GLN87       0.0905
     57  CD       -26.4460  -16.8700 -105.7000 C.2    87  GLN87       0.2608
     58  OE1      -27.4850  -16.5590 -106.2830 O.2    87  GLN87      -0.2717
     59  NE2      -26.4390  -17.3660 -104.4680 N.am   87  GLN87      -0.0878
     60  N        -29.7960  -21.7780 -116.2670 N.3   132  ASN132     -0.1225
     61  CA       -30.5130  -20.6280 -115.7400 C.3   132  ASN132      0.1785
     62  C        -30.0690  -19.3380 -116.4340 C.2   132  ASN132      0.2597
     63  O        -28.8780  -19.0370 -116.4990 O.2   132  ASN132     -0.2718
     64  CB       -30.2670  -20.5130 -114.2270 C.3   132  ASN132      0.1169
     65  CG       -31.3730  -19.7500 -113.5000 C.2   132  ASN132      0.2627
     66  OD1      -32.5510  -19.9620 -113.7630 O.2   132  ASN132     -0.2716
     67  ND2      -30.9920  -18.8810 -112.5670 N.am  132  ASN132     -0.0877
     68  N        -31.0370  -18.6090 -116.9840 N.am  133  GLU133     -0.1979
     69  CA       -30.7950  -17.3010 -117.5980 C.3   133  GLU133      0.1602
     70  C        -29.6840  -17.1590 -118.6390 C.2   133  GLU133      0.2287
     71  O        -28.9570  -16.1650 -118.6340 O.2   133  GLU133     -0.2864
     72  CB       -30.5600  -16.2900 -116.4730 C.3   133  GLU133      0.0415
     73  CG       -31.6450  -16.3390 -115.4030 C.3   133  GLU133      0.1163
     74  CD       -31.3310  -15.5020 -114.1740 C.2   133  GLU133      0.3649
     75  OE1      -30.2540  -14.8690 -114.1060 O.co2 133  GLU133     -0.2457
     76  OE2      -32.1800  -15.4800 -113.2610 O.co2 133  GLU133     -0.2457
     77  N        -36.0710  -15.2460 -116.5050 N.3   178  TYR178     -0.1241
     78  CA       -36.9710  -14.1560 -116.1050 C.3   178  TYR178      0.1605
     79  C        -37.2560  -13.2210 -117.2880 C.2   178  TYR178      0.2264
     80  O        -36.6100  -13.3240 -118.3340 O.2   178  TYR178     -0.2867
     81  CB       -36.3760  -13.3570 -114.9430 C.3   178  TYR178      0.0534
     82  CG       -35.0980  -12.6320 -115.2820 C.ar  178  TYR178     -0.0201
     83  CD1      -33.8890  -13.3160 -115.3900 C.ar  178  TYR178     -0.0009
     84  CD2      -35.0980  -11.2540 -115.5020 C.ar  178  TYR178     -0.0009
     85  CE1      -32.7040  -12.6450 -115.7080 C.ar  178  TYR178      0.0417
     86  CE2      -33.9230  -10.5750 -115.8200 C.ar  178  TYR178      0.0417
     87  CZ       -32.7310  -11.2740 -115.9200 C.ar  178  TYR178      0.1957
     88  OH       -31.5640  -10.6050 -116.2170 O.3   178  TYR178     -0.2866
     89  N        -39.8190  -17.6820 -114.5390 N.3   209  GLN209     -0.1245
     90  CA       -39.5650  -17.1610 -113.1980 C.3   209  GLN209      0.1566
     91  C        -40.6950  -16.3090 -112.6390 C.2   209  GLN209      0.2260
     92  O        -41.0480  -16.4280 -111.4700 O.2   209  GLN209     -0.2867
     93  CB       -38.2500  -16.3820 -113.1680 C.3   209  GLN209      0.0367
     94  CG       -37.0150  -17.2930 -113.1890 C.3   209  GLN209      0.0905
     95  CD       -35.7150  -16.5280 -113.0630 C.2   209  GLN209      0.2608
     96  OE1      -35.6790  -15.4350 -112.4970 O.2   209  GLN209     -0.2717
     97  NE2      -34.6290  -17.1090 -113.5680 N.am  209  GLN209     -0.0878
     98  N        -40.9170  -12.9170 -112.0490 N.3   211  HIS211     -0.1241
     99  CA       -40.5560  -11.8920 -111.0710 C.3   211  HIS211      0.1621
    100  C        -41.2200  -10.6800 -111.7100 C.2   211  HIS211      0.2264
    101  O        -40.6010   -9.9090 -112.4510 O.2   211  HIS211     -0.2867
    102  CB       -39.0390  -11.7290 -110.9770 C.3   211  HIS211      0.0745
    103  CG       -38.3820  -12.8130 -110.1810 C.ar  211  HIS211      0.0817
    104  ND1      -38.7210  -13.0760 -108.8710 N.ar  211  HIS211     -0.2268
    105  CD2      -37.4460  -13.7330 -110.5200 C.ar  211  HIS211      0.1154
    106  CE1      -38.0230  -14.1140 -108.4380 C.ar  211  HIS211      0.1986
    107  NE2      -37.2430  -14.5300 -109.4200 N.ar  211  HIS211     -0.2212
    108  N        -40.5790  -18.7830 -109.8340 N.3   240  GLU240     -0.1245
    109  CA       -40.1210  -17.8640 -108.7950 C.3   240  GLU240      0.1567
    110  C        -41.0660  -16.6760 -108.6780 C.2   240  GLU240      0.2260
    111  O        -40.6330  -15.5350 -108.5430 O.2   240  GLU240     -0.2867
    112  CB       -38.7120  -17.3760 -109.1540 C.3   240  GLU240      0.0388
    113  CG       -37.7470  -18.5240 -109.5170 C.3   240  GLU240      0.1160
    114  CD       -36.3220  -18.0660 -109.7970 C.2   240  GLU240      0.3649
    115  OE1      -35.9760  -16.9180 -109.4550 O.co2 240  GLU240     -0.2457
    116  OE2      -35.5300  -18.8720 -110.3450 O.co2 240  GLU240     -0.2457
    117  N        -41.4160  -17.2090 -104.9600 N.3   290  TRP290     -0.1241
    118  CA       -40.0510  -17.0940 -104.4570 C.3   290  TRP290      0.1605
    119  C        -40.0980  -16.6480 -102.9990 C.2   290  TRP290      0.2264
    120  O        -39.6020  -15.5760 -102.6380 O.2   290  TRP290     -0.2867
    121  CB       -39.2350  -16.1080 -105.2990 C.3   290  TRP290      0.0550
    122  CG       -37.7720  -16.4890 -105.3690 C.ar  290  TRP290      0.0003
    123  CD1      -36.7020  -15.6910 -105.0920 C.ar  290  TRP290      0.0946
    124  CD2      -37.2320  -17.7720 -105.7320 C.ar  290  TRP290      0.0152
    125  NE1      -35.5270  -16.3930 -105.2560 N.ar  290  TRP290     -0.2442
    126  CE2      -35.8240  -17.6720 -105.6470 C.ar  290  TRP290      0.0810
    127  CE3      -37.8020  -18.9930 -106.1200 C.ar  290  TRP290      0.0012
    128  CZ2      -34.9740  -18.7500 -105.9340 C.ar  290  TRP290      0.0191
    129  CZ3      -36.9580  -20.0690 -106.4060 C.ar  290  TRP290      0.0001
    130  CH2      -35.5580  -19.9370 -106.3100 C.ar  290  TRP290      0.0015
    131  N        -36.4040  -11.6830 -101.2790 N.3   298  TRP298     -0.1241
    132  CA       -35.1860  -11.1450 -101.8590 C.3   298  TRP298      0.1605
    133  C        -35.4230   -9.7390 -102.4090 C.2   298  TRP298      0.2264
    134  O        -34.4750   -8.9810 -102.6210 O.2   298  TRP298     -0.2867
    135  CB       -34.6830  -12.0670 -102.9760 C.3   298  TRP298      0.0550
    136  CG       -35.4920  -12.0150 -104.2430 C.ar  298  TRP298      0.0003
    137  CD1      -36.8200  -12.2920 -104.3870 C.ar  298  TRP298      0.0946
    138  CD2      -35.0070  -11.6800 -105.5440 C.ar  298  TRP298      0.0152
    139  NE1      -37.1930  -12.1500 -105.7050 N.ar  298  TRP298     -0.2442
    140  CE2      -36.0970  -11.7740 -106.4360 C.ar  298  TRP298      0.0810
    141  CE3      -33.7520  -11.3090 -106.0460 C.ar  298  TRP298      0.0012
    142  CZ2      -35.9710  -11.5100 -107.8050 C.ar  298  TRP298      0.0191
    143  CZ3      -33.6250  -11.0460 -107.4070 C.ar  298  TRP298      0.0001
    144  CH2      -34.7300  -11.1470 -108.2690 C.ar  298  TRP298      0.0015
@<TRIPOS>BOND
     1    70    71    2
     2    70    69    1
     3    80    79    2
     4    69    68    1
     5    69    72    1
     6    79    78    1
     7    68    62   am
     8    77    78    1
     9    63    62    2
    10    72    73    1
    11    62    61    1
    12    60    61    1
    13    88    87    1
    14    78    81    1
    15    87    86   ar
    16    87    85   ar
    17    86    84   ar
    18    61    64    1
    19    85    83   ar
    20    84    82   ar
    21    73    74    1
    22    83    82   ar
    23    82    81    1
    24    89    90    1
    25    39    38    1
    26    39    40    2
    27    37    38    1
    28    38    41    1
    29    64    65    1
    30    74    75   ar
    31    74    76   ar
    32    43    45   ar
    33    43    42   ar
    34    66    65    2
    35    97    95   am
    36    65    67   am
    37    45    46   ar
    38    90    93    1
    39    90    91    1
    40    94    93    1
    41    94    95    1
    42    95    96    2
    43    41    42    1
    44    42    44   ar
    45    91    92    2
    46   101   100    2
    47    98    99    1
    48    46    44   ar
    49    46    48   ar
    50   100    99    1
    51    44    47   ar
    52    99   102    1
    53   102   103    1
    54    48    50   ar
    55   105   103   ar
    56   105   107   ar
    57   116   114   ar
    58    47    49   ar
    59   103   104   ar
    60    35    33   ar
    61    35    36   ar
    62    33    32   ar
    63   108   109    1
    64   114   113    1
    65   114   115   ar
    66    50    49   ar
    67   113   112    1
    68   107   106   ar
    69   112   109    1
    70    51    52    1
    71    36    34   ar
    72   104   106   ar
    73   109   110    1
    74   110   111    2
    75    32    31    1
    76    32    34   ar
    77    28    31    1
    78    28    29    1
    79    28    27    1
    80   144   142   ar
    81   144   143   ar
    82    53    52    1
    83    53    54    2
    84    29    30    2
    85    52    55    1
    86   142   140   ar
    87   143   141   ar
    88    55    56    1
    89    23    22    1
    90    23    24    1
    91   140   139   ar
    92   140   138   ar
    93   129   130   ar
    94   129   127   ar
    95    25    24    1
    96    25    26    1
    97    19    20    1
    98    19    22    1
    99    19    18    1
   100    56    57    1
   101   130   128   ar
   102    58    57    2
   103    20    21    2
   104   127   124   ar
   105   141   138   ar
   106   128   126   ar
   107   124   126   ar
   108   124   122   ar
   109   139   137   ar
   110    57    59   am
   111   126   125   ar
   112   138   136   ar
   113   122   121    1
   114   122   123   ar
   115   121   118    1
   116   125   123   ar
   117   117   118    1
   118   118   119    1
   119   137   136   ar
   120   136   135    1
   121     4     3    2
   122    16    15    2
   123    13    12    2
   124     3     2    1
   125     3    10   am
   126   119   120    2
   127   135   132    1
   128     2     1    1
   129     2     5    1
   130   134   133    2
   131    11    12    1
   132    11    10    1
   133    11    14    1
   134   133   132    1
   135    15    14    1
   136    15    17   am
   137     6     5    1
   138     6     7    1
   139   132   131    1
   140     9     7   ar
   141     7     8   ar
