@<TRIPOS>MOLECULE
tmp/3mshA00.pdb
 87 81 0 0 0
SMALL
GASTEIGER

@<TRIPOS>ATOM
      1  N          6.0320   13.5200   -3.2170 N.3     5  LEU5       -0.1245
      2  CA         5.7100   13.5000   -1.7910 C.3     5  LEU5        0.1561
      3  C          6.2680   14.7340   -1.0840 C.2     5  LEU5        0.2260
      4  O          5.5980   15.3180   -0.2200 O.2     5  LEU5       -0.2867
      5  CB         6.2190   12.2130   -1.1340 C.3     5  LEU5        0.0270
      6  CG         5.9430   12.1090    0.3730 C.3     5  LEU5        0.0019
      7  CD1        4.4670   12.1970    0.6720 C.3     5  LEU5        0.0001
      8  CD2        6.5520   10.8090    0.9170 C.3     5  LEU5        0.0001
      9  N          3.9200   17.5110   -1.5320 N.3     8  HIS8       -0.1226
     10  CA         2.7390   17.2970   -0.7120 C.3     8  HIS8        0.1752
     11  C          2.9840   17.5700    0.7690 C.2     8  HIS8        0.2595
     12  O          2.1140   18.1110    1.4450 O.2     8  HIS8       -0.2718
     13  CB         2.1940   15.8800   -0.9070 C.3     8  HIS8        0.0759
     14  CG         1.4080   15.7140   -2.1670 C.ar    8  HIS8        0.0818
     15  ND1        0.4920   14.6990   -2.3430 N.ar    8  HIS8       -0.2268
     16  CD2        1.4010   16.4320   -3.3110 C.ar    8  HIS8        0.1154
     17  CE1       -0.0460   14.8000   -3.5460 C.ar    8  HIS8        0.1986
     18  NE2        0.4920   15.8400   -4.1570 N.ar    8  HIS8       -0.2212
     19  N          4.1440   17.1940    1.2930 N.am    9  LEU9       -0.1980
     20  CA         4.4490   17.4680    2.7010 C.3     9  LEU9        0.1596
     21  C          4.5420   18.9740    2.9530 C.2     9  LEU9        0.2287
     22  O          4.0380   19.4740    3.9630 O.2     9  LEU9       -0.2864
     23  CB         5.7570   16.7900    3.1060 C.3     9  LEU9        0.0297
     24  CG         5.7910   15.2710    2.9960 C.3     9  LEU9        0.0022
     25  CD1        7.2240   14.7850    3.1220 C.3     9  LEU9        0.0001
     26  CD2        4.9170   14.6250    4.0650 C.3     9  LEU9        0.0001
     27  N          3.0000   21.3020    1.1920 N.3    11  ASP11      -0.1225
     28  CA         1.6170   21.7870    1.0970 C.3    11  ASP11       0.1805
     29  C          0.8770   21.5670    2.4150 C.2    11  ASP11       0.2598
     30  O          0.1600   22.4520    2.9090 O.2    11  ASP11      -0.2718
     31  CB         0.8580   21.0240   -0.0040 C.3    11  ASP11       0.1424
     32  CG         1.3330   21.3630   -1.4250 C.2    11  ASP11       0.3668
     33  OD1        1.0710   20.5500   -2.3350 O.co2  11  ASP11      -0.2456
     34  OD2        1.9440   22.4280   -1.6410 O.co2  11  ASP11      -0.2456
     35  N          1.0390   20.3760    2.9870 N.am   12  THR12      -0.1953
     36  CA         0.3360   19.9970    4.2010 C.3    12  THR12       0.1897
     37  C          0.7430   20.9230    5.3550 C.2    12  THR12       0.2313
     38  O         -0.0980   21.3930    6.1400 O.2    12  THR12      -0.2863
     39  CB         0.6360   18.5290    4.5620 C.3    12  THR12       0.1794
     40  OG1        0.0970   17.6710    3.5450 O.3    12  THR12      -0.2208
     41  CG2        0.0080   18.1510    5.9040 C.3    12  THR12       0.0378
     42  N          4.1080   16.2050   10.1060 N.3    21  VAL21      -0.1245
     43  CA         3.5480   15.1970    9.2150 C.3    21  VAL21       0.1561
     44  C          4.6140   14.1740    8.8790 C.2    21  VAL21       0.2260
     45  O          5.7890   14.5190    8.7240 O.2    21  VAL21      -0.2867
     46  CB         2.9470   15.8290    7.9350 C.3    21  VAL21       0.0252
     47  CG1        3.9870   16.7100    7.2000 C.3    21  VAL21       0.0019
     48  CG2        2.3630   14.7500    7.0070 C.3    21  VAL21       0.0019
     49  N          5.1310   10.2160    6.6810 N.3    23  CYS23      -0.1235
     50  CA         4.5990    9.1080    5.8960 C.3    23  CYS23       0.1677
     51  C          5.5000    7.8930    5.9940 C.2    23  CYS23       0.2270
     52  O          6.7120    8.0160    5.9560 O.2    23  CYS23      -0.2867
     53  CB         4.4590    9.5080    4.4260 C.3    23  CYS23       0.0956
     54  SG         3.3010   10.8500    4.1810 S.3    23  CYS23      -0.0801
     55  N         -3.4470    6.2390    2.9380 N.3    79  HIS79      -0.1226
     56  CA        -3.8880    6.9350    1.7340 C.3    79  HIS79       0.1752
     57  C         -3.0800    6.4210    0.5520 C.2    79  HIS79       0.2596
     58  O         -1.8610    6.5620    0.5270 O.2    79  HIS79      -0.2718
     59  CB        -3.6870    8.4410    1.8940 C.3    79  HIS79       0.0759
     60  CG        -4.4100    9.2620    0.8730 C.ar   79  HIS79       0.0818
     61  ND1       -5.7600    9.5270    0.9530 N.ar   79  HIS79      -0.2268
     62  CD2       -3.9690    9.8900   -0.2420 C.ar   79  HIS79       0.1154
     63  CE1       -6.1220   10.2750   -0.0740 C.ar   79  HIS79       0.1986
     64  NE2       -5.0530   10.5110   -0.8130 N.ar   79  HIS79      -0.2212
     65  N         -3.7570    5.8140   -0.4160 N.am   80  ASP80      -0.1974
     66  CA        -3.1000    5.3470   -1.6360 C.3    80  ASP80       0.1709
     67  C         -1.9050    4.4390   -1.3510 C.2    80  ASP80       0.2293
     68  O         -0.8950    4.4820   -2.0590 O.2    80  ASP80      -0.2864
     69  CB        -2.6750    6.5360   -2.5090 C.3    80  ASP80       0.1436
     70  CG        -3.8640    7.3140   -3.0530 C.2    80  ASP80       0.3671
     71  OD1       -4.9630    6.7250   -3.1310 O.co2  80  ASP80      -0.2456
     72  OD2       -3.7010    8.5020   -3.4100 O.co2  80  ASP80      -0.2456
     73  N          0.1080    4.2420    1.3960 N.3    82  ILE82      -0.1245
     74  CA         1.0570    4.6220    2.4330 C.3    82  ILE82       0.1561
     75  C          0.3790    5.0950    3.7230 C.2    82  ILE82       0.2260
     76  O         -0.7860    5.4810    3.7250 O.2    82  ILE82      -0.2867
     77  CB         2.0760    5.6540    1.9270 C.3    82  ILE82       0.0252
     78  CG1        1.4250    7.0140    1.7450 C.3    82  ILE82       0.0019
     79  CG2        2.7310    5.1680    0.6100 C.3    82  ILE82       0.0019
     80  CD1        2.3910    8.0800    1.2160 C.3    82  ILE82       0.0001
     81  N         -0.0480    7.7290    6.6490 N.3    84  VAL84      -0.1245
     82  CA         0.1470    9.1620    6.8200 C.3    84  VAL84       0.1561
     83  C         -0.2450    9.5720    8.2340 C.2    84  VAL84       0.2260
     84  O         -1.3730    9.3010    8.6720 O.2    84  VAL84      -0.2867
     85  CB        -0.6900    9.9700    5.8280 C.3    84  VAL84       0.0252
     86  CG1       -0.4030   11.4730    5.9840 C.3    84  VAL84       0.0019
     87  CG2       -0.4220    9.5150    4.3870 C.3    84  VAL84       0.0019
@<TRIPOS>BOND
     1    18    17   ar
     2    18    16   ar
     3    17    15   ar
     4    72    70   ar
     5    16    14   ar
     6     1     2    1
     7    71    70   ar
     8    70    69    1
     9    69    66    1
    10    15    14   ar
    11    33    32   ar
    12    14    13    1
    13    68    67    2
    14     2     5    1
    15     2     3    1
    16    34    32   ar
    17    66    67    1
    18    66    65    1
    19     9    10    1
    20    32    31    1
    21     5     6    1
    22     3     4    2
    23    13    10    1
    24    64    62   ar
    25    64    63   ar
    26    10    11    1
    27    65    57   am
    28    62    60   ar
    29    63    61   ar
    30    31    28    1
    31     6     7    1
    32     6     8    1
    33    58    57    2
    34    57    56    1
    35    79    77    1
    36    11    19   am
    37    11    12    2
    38    60    61   ar
    39    60    59    1
    40    28    27    1
    41    28    29    1
    42    80    78    1
    43    19    20    1
    44    73    74    1
    45    56    59    1
    46    56    55    1
    47    78    77    1
    48    77    74    1
    49    29    30    2
    50    29    35   am
    51    74    75    1
    52    20    21    1
    53    20    23    1
    54    21    22    2
    55    35    36    1
    56    24    23    1
    57    24    25    1
    58    24    26    1
    59    40    39    1
    60    75    76    2
    61    54    53    1
    62    36    39    1
    63    36    37    1
    64    87    85    1
    65    53    50    1
    66    39    41    1
    67    37    38    2
    68    85    86    1
    69    85    82    1
    70    50    51    1
    71    50    49    1
    72    52    51    2
    73    81    82    1
    74    82    83    1
    75    48    46    1
    76    47    46    1
    77    46    43    1
    78    83    84    2
    79    45    44    2
    80    44    43    1
    81    43    42    1
