@<TRIPOS>MOLECULE
tmp/3msjA00.pdb
 151 140 0 0 0
SMALL
GASTEIGER

@<TRIPOS>ATOM
      1  N        -14.4040  -84.7420    3.6520 N.3    34  LEU34      -0.1245
      2  CA       -15.0800  -86.0280    3.7200 C.3    34  LEU34       0.1561
      3  C        -16.5730  -85.8270    3.8690 C.2    34  LEU34       0.2260
      4  O        -17.0260  -85.0740    4.7150 O.2    34  LEU34      -0.2867
      5  CB       -14.5510  -86.8510    4.8940 C.3    34  LEU34       0.0270
      6  CG       -15.1810  -88.2280    5.1120 C.3    34  LEU34       0.0019
      7  CD1      -14.6280  -89.2140    4.1080 C.3    34  LEU34       0.0001
      8  CD2      -14.9510  -88.7220    6.5400 C.3    34  LEU34       0.0001
      9  N        -19.7220  -87.2180    5.2260 N.3    36  ASP36      -0.1239
     10  CA       -19.9420  -88.1770    6.2820 C.3    36  ASP36       0.1674
     11  C        -21.3450  -88.0600    6.8220 C.2    36  ASP36       0.2266
     12  O        -21.6170  -87.1790    7.6100 O.2    36  ASP36      -0.2867
     13  CB       -18.9040  -87.9560    7.3860 C.3    36  ASP36       0.1410
     14  CG       -19.0170  -88.9600    8.5060 C.2    36  ASP36       0.3668
     15  OD1      -19.6750  -90.0100    8.3360 O.co2  36  ASP36      -0.2456
     16  OD2      -18.4280  -88.6940    9.5720 O.co2  36  ASP36      -0.2456
     17  N        -22.5250  -90.0880    8.8600 N.3    38  GLY38      -0.1210
     18  CA       -22.4710  -90.7700   10.1530 C.3    38  GLY38       0.1956
     19  C        -22.0080  -89.8450   11.2690 C.2    38  GLY38       0.2612
     20  O        -21.7340  -90.3020   12.3670 O.2    38  GLY38      -0.2717
     21  N        -21.8820  -88.5570   10.9770 N.am   39  SER39      -0.1952
     22  CA       -21.4290  -87.5730   11.9570 C.3    39  SER39       0.1924
     23  C        -22.0700  -86.2040   11.7000 C.2    39  SER39       0.2314
     24  O        -22.7340  -85.9990   10.6990 O.2    39  SER39      -0.2863
     25  CB       -19.8830  -87.4780   12.0260 C.3    39  SER39       0.2116
     26  OG       -19.3050  -86.8620   10.8770 O.3    39  SER39      -0.2180
     27  N        -13.1370  -84.6650   20.2780 N.3    73  VAL73      -0.1245
     28  CA       -13.9170  -85.7470   19.6890 C.3    73  VAL73       0.1561
     29  C        -13.1310  -87.0420   19.7200 C.2    73  VAL73       0.2260
     30  O        -12.4940  -87.4130   18.7370 O.2    73  VAL73      -0.2867
     31  CB       -14.3910  -85.3910   18.2640 C.3    73  VAL73       0.0252
     32  CG1      -15.2360  -86.5050   17.6760 C.3    73  VAL73       0.0019
     33  CG2      -15.2080  -84.0920   18.3180 C.3    73  VAL73       0.0019
     34  N        -12.8810  -91.1890   19.9080 N.3    75  TYR75      -0.1241
     35  CA       -13.6450  -92.3080   19.3840 C.3    75  TYR75       0.1605
     36  C        -12.8050  -93.5710   19.4720 C.2    75  TYR75       0.2264
     37  O        -11.7510  -93.5770   20.1140 O.2    75  TYR75      -0.2867
     38  CB       -14.1050  -92.0190   17.9460 C.3    75  TYR75       0.0534
     39  CG       -13.0020  -91.5830   17.0210 C.ar   75  TYR75      -0.0201
     40  CD1      -12.6260  -90.2540   16.9530 C.ar   75  TYR75      -0.0009
     41  CD2      -12.3490  -92.4950   16.2030 C.ar   75  TYR75      -0.0009
     42  CE1      -11.6270  -89.8350   16.1110 C.ar   75  TYR75       0.0417
     43  CE2      -11.3370  -92.0860   15.3500 C.ar   75  TYR75       0.0417
     44  CZ       -10.9820  -90.7490   15.3150 C.ar   75  TYR75       0.1957
     45  OH        -9.9860  -90.3140   14.4830 O.3    75  TYR75      -0.2866
     46  N        -10.1280  -86.3720   17.3520 N.3    80  TRP80      -0.1241
     47  CA        -9.7180  -85.0590   16.9020 C.3    80  TRP80       0.1605
     48  C        -10.1550  -84.0190   17.9080 C.2    80  TRP80       0.2264
     49  O        -11.0960  -84.2170   18.6870 O.2    80  TRP80      -0.2867
     50  CB       -10.2030  -84.7340   15.4930 C.3    80  TRP80       0.0550
     51  CG       -11.6620  -84.6750   15.3000 C.ar   80  TRP80       0.0003
     52  CD1      -12.4560  -85.6710   14.8400 C.ar   80  TRP80       0.0946
     53  CD2      -12.5120  -83.5400   15.5000 C.ar   80  TRP80       0.0152
     54  NE1      -13.7570  -85.2430   14.7540 N.ar   80  TRP80      -0.2442
     55  CE2      -13.8220  -83.9360   15.1520 C.ar   80  TRP80       0.0810
     56  CE3      -12.2970  -82.2300   15.9440 C.ar   80  TRP80       0.0012
     57  CZ2      -14.9090  -83.0730   15.2270 C.ar   80  TRP80       0.0191
     58  CZ3      -13.3790  -81.3760   16.0290 C.ar   80  TRP80       0.0001
     59  CH2      -14.6700  -81.8010   15.6800 C.ar   80  TRP80       0.0015
     60  N         -6.7920  -89.7950   12.7700 N.3   112  PHE112     -0.1241
     61  CA        -7.9870  -89.2210   12.1760 C.3   112  PHE112      0.1605
     62  C         -7.7230  -89.0030   10.6930 C.2   112  PHE112      0.2264
     63  O         -8.3570  -89.6260    9.8330 O.2   112  PHE112     -0.2867
     64  CB        -8.3570  -87.9080   12.8790 C.3   112  PHE112      0.0534
     65  CG        -9.4720  -87.1730   12.2200 C.ar  112  PHE112     -0.0203
     66  CD1      -10.7710  -87.6430   12.3170 C.ar  112  PHE112     -0.0042
     67  CD2       -9.2260  -86.0240   11.4880 C.ar  112  PHE112     -0.0042
     68  CE1      -11.8080  -86.9760   11.7070 C.ar  112  PHE112     -0.0003
     69  CE2      -10.2490  -85.3490   10.8770 C.ar  112  PHE112     -0.0003
     70  CZ       -11.5490  -85.8220   10.9820 C.ar  112  PHE112     -0.0000
     71  N        -13.9250  -82.9220    7.4800 N.3   122  ILE122     -0.1245
     72  CA       -15.0720  -83.8100    7.5000 C.3   122  ILE122      0.1561
     73  C        -16.3260  -82.9600    7.5240 C.2   122  ILE122      0.2260
     74  O        -16.3820  -81.9530    8.2380 O.2   122  ILE122     -0.2867
     75  CB       -15.0150  -84.7410    8.7360 C.3   122  ILE122      0.0252
     76  CG1      -16.1820  -85.6990    8.7590 C.3   122  ILE122      0.0019
     77  CG2      -14.9710  -83.9430   10.0610 C.3   122  ILE122      0.0019
     78  CD1      -15.9300  -86.8580    9.7030 C.3   122  ILE122      0.0001
     79  N        -28.3310  -90.0110   14.0810 N.3   191  TYR191     -0.1241
     80  CA       -27.8230  -90.6360   12.8580 C.3   191  TYR191      0.1605
     81  C        -28.9710  -90.7210   11.8970 C.2   191  TYR191      0.2264
     82  O        -30.1020  -90.3480   12.1910 O.2   191  TYR191     -0.2867
     83  CB       -27.3130  -92.0420   13.1530 C.3   191  TYR191      0.0534
     84  CG       -26.1310  -92.0820   14.0640 C.ar  191  TYR191     -0.0201
     85  CD1      -24.8450  -91.8130   13.5990 C.ar  191  TYR191     -0.0009
     86  CD2      -26.2850  -92.3930   15.3880 C.ar  191  TYR191     -0.0009
     87  CE1      -23.7720  -91.8460   14.4590 C.ar  191  TYR191      0.0417
     88  CE2      -25.2280  -92.4210   16.2430 C.ar  191  TYR191      0.0417
     89  CZ       -23.9740  -92.1480   15.7830 C.ar  191  TYR191      0.1957
     90  OH       -22.9270  -92.1910   16.6640 O.3   191  TYR191     -0.2866
     91  N        -28.7800 -100.2590   16.7280 N.3   217  LYS217     -0.1245
     92  CA       -29.3650  -99.3860   15.7230 C.3   217  LYS217      0.1561
     93  C        -28.8590  -99.8230   14.3840 C.2   217  LYS217      0.2260
     94  O        -27.9430 -100.6300   14.3090 O.2   217  LYS217     -0.2867
     95  CB       -28.9740  -97.9190   15.9760 C.3   217  LYS217      0.0271
     96  CG       -27.5060  -97.6170   15.6910 C.3   217  LYS217      0.0035
     97  CD       -27.0720  -96.3030   16.3020 C.3   217  LYS217      0.0206
     98  CE       -25.5540  -96.1390   16.2750 C.3   217  LYS217      0.1093
     99  NZ       -24.8970  -96.9390   17.3490 N.3   217  LYS217     -0.1314
    100  N        -27.8760  -97.7260   10.7480 N.3   219  ILE219     -0.1245
    101  CA       -27.6990  -96.3840   10.2110 C.3   219  ILE219      0.1561
    102  C        -27.1140  -96.4430    8.8190 C.2   219  ILE219      0.2260
    103  O        -26.4730  -97.4390    8.4680 O.2   219  ILE219     -0.2867
    104  CB       -26.7840  -95.4980   11.1080 C.3   219  ILE219      0.0252
    105  CG1      -25.3460  -96.0160   11.1250 C.3   219  ILE219      0.0019
    106  CG2      -27.3480  -95.4090   12.5090 C.3   219  ILE219      0.0019
    107  CD1      -24.3760  -95.0670   11.7150 C.3   219  ILE219      0.0001
    108  N        -24.4490  -94.5750    6.5760 N.3   221  ASP221     -0.1239
    109  CA       -23.1930  -93.8810    6.9010 C.3   221  ASP221      0.1674
    110  C        -22.1610  -93.8890    5.7770 C.2   221  ASP221      0.2266
    111  O        -21.3870  -94.8390    5.6550 O.2   221  ASP221     -0.2867
    112  CB       -22.5780  -94.5500    8.1130 C.3   221  ASP221      0.1410
    113  CG       -21.3500  -93.8400    8.6070 C.2   221  ASP221      0.3668
    114  OD1      -20.9940  -92.7770    8.0470 O.co2 221  ASP221     -0.2456
    115  OD2      -20.7300  -94.3400    9.5680 O.co2 221  ASP221     -0.2456
    116  N        -19.4940  -92.2750    5.7050 N.3   223  GLY223     -0.1210
    117  CA       -18.1500  -92.2090    6.2690 C.3   223  GLY223      0.1956
    118  C        -17.6010  -93.5380    6.7660 C.2   223  GLY223      0.2612
    119  O        -16.5180  -93.5840    7.3520 O.2   223  GLY223     -0.2717
    120  N        -18.3600  -94.6100    6.5820 N.am  224  THR224     -0.1952
    121  CA       -17.9170  -95.9570    6.9210 C.3   224  THR224      0.1897
    122  C        -17.7840  -96.7470    5.6210 C.2   224  THR224      0.2313
    123  O        -18.6630  -96.7150    4.7800 O.2   224  THR224     -0.2863
    124  CB       -18.9040  -96.6200    7.9060 C.3   224  THR224      0.1794
    125  OG1      -18.7920  -95.9690    9.1890 O.3   224  THR224     -0.2208
    126  CG2      -18.6390  -98.1380    8.0500 C.3   224  THR224      0.0378
    127  N        -21.3020 -103.0730    8.1460 N.3   228  ARG228     -0.1245
    128  CA       -21.0020 -103.6060    9.4650 C.3   228  ARG228      0.1563
    129  C        -22.2930 -104.1650   10.0610 C.2   228  ARG228      0.2260
    130  O        -23.3690 -103.5650    9.9040 O.2   228  ARG228     -0.2867
    131  CB       -20.4050 -102.5370   10.3350 C.3   228  ARG228      0.0307
    132  CG       -19.2990 -101.7610    9.6610 C.3   228  ARG228      0.0489
    133  CD       -18.7400 -100.7270   10.5630 C.3   228  ARG228      0.2205
    134  NE       -17.9680 -101.3270   11.6470 N.pl3 228  ARG228     -0.0865
    135  CZ       -18.2610 -101.2410   12.9420 C.cat 228  ARG228      0.5346
    136  NH1      -19.3220 -100.5580   13.3750 N.pl3 228  ARG228      0.1354
    137  NH2      -17.4640 -101.8390   13.8220 N.pl3 228  ARG228      0.1354
    138  N        -21.9530 -101.8070   17.7040 N.3   317  THR317     -0.1218
    139  CA       -22.7280 -100.5790   17.8110 C.3   317  THR317      0.1862
    140  C        -23.8230 -100.5540   16.7540 C.2   317  THR317      0.2287
    141  O        -24.2810  -99.4840   16.3320 O.2   317  THR317     -0.2866
    142  CB       -21.8070  -99.3400   17.6540 C.3   317  THR317      0.1770
    143  OG1      -21.0040  -99.4840   16.4740 O.3   317  THR317     -0.2211
    144  CG2      -20.9020  -99.1720   18.8830 C.3   317  THR317      0.0375
    145  N        -24.2480 -100.7990   10.1890 N.3   320  VAL320     -0.1245
    146  CA       -23.8180  -99.6090    9.4730 C.3   320  VAL320      0.1561
    147  C        -23.8550  -99.9300    8.0100 C.2   320  VAL320      0.2260
    148  O        -23.0510 -100.7200    7.5240 O.2   320  VAL320     -0.2867
    149  CB       -22.3920  -99.1670    9.8420 C.3   320  VAL320      0.0252
    150  CG1      -22.0300  -97.9230    9.0730 C.3   320  VAL320      0.0019
    151  CG2      -22.2550  -98.9180   11.3260 C.3   320  VAL320      0.0019
@<TRIPOS>BOND
     1     1     2    1
     2     2     3    1
     3     2     5    1
     4     3     4    2
     5     7     6    1
     6   123   122    2
     7     5     6    1
     8     6     8    1
     9     9    10    1
    10   122   121    1
    11   111   110    2
    12   116   117    1
    13   110   109    1
    14   117   118    1
    15    10    11    1
    16    10    13    1
    17   108   109    1
    18   120   118   am
    19   120   121    1
    20   118   119    2
    21    11    12    2
    22   109   112    1
    23   121   124    1
    24    13    14    1
    25    71    72    1
    26    72    73    1
    27    72    75    1
    28    73    74    2
    29   148   147    2
    30   124   126    1
    31   124   125    1
    32   147   146    1
    33   114   113   ar
    34   112   113    1
    35   127   128    1
    36    15    14   ar
    37   103   102    2
    38    14    16   ar
    39   113   115   ar
    40    75    76    1
    41    75    77    1
    42    76    78    1
    43   102   101    1
    44    17    18    1
    45   150   149    1
    46   128   129    1
    47   128   131    1
    48   146   149    1
    49   146   145    1
    50   132   131    1
    51   132   133    1
    52    63    62    2
    53   149   151    1
    54   130   129    2
    55    18    19    1
    56   101   100    1
    57   101   104    1
    58   133   134    1
    59    62    61    1
    60    24    23    2
    61    26    25    1
    62    69    70   ar
    63    69    67   ar
    64    21    19   am
    65    21    22    1
    66    70    68   ar
    67   104   105    1
    68   104   106    1
    69   105   107    1
    70    19    20    2
    71    67    65   ar
    72   134   135    2
    73    23    22    1
    74    68    66   ar
    75    81    82    2
    76    81    80    1
    77    22    25    1
    78    61    60    1
    79    61    64    1
    80    65    66   ar
    81    65    64    1
    82    80    83    1
    83    80    79    1
    84   135   136    1
    85   135   137    1
    86    83    84    1
    87    85    84   ar
    88    85    87   ar
    89    84    86   ar
    90    94    93    2
    91    93    92    1
    92    87    89   ar
    93    45    44    1
    94    54    52   ar
    95    54    55   ar
    96    52    51   ar
    97    55    57   ar
    98    55    53   ar
    99    57    59   ar
   100    51    50    1
   101    51    53   ar
   102    44    43   ar
   103    44    42   ar
   104    43    41   ar
   105    86    88   ar
   106    50    47    1
   107    53    56   ar
   108    59    58   ar
   109    96    95    1
   110    96    97    1
   111    92    95    1
   112    92    91    1
   113    89    88   ar
   114    89    90    1
   115    56    58   ar
   116    42    40   ar
   117    41    39   ar
   118    98    97    1
   119    98    99    1
   120   141   140    2
   121   143   142    1
   122   140   139    1
   123    47    46    1
   124    47    48    1
   125    40    39   ar
   126    39    38    1
   127   142   139    1
   128   142   144    1
   129    32    31    1
   130   138   139    1
   131    48    49    2
   132    38    35    1
   133    31    33    1
   134    31    28    1
   135    30    29    2
   136    35    36    1
   137    35    34    1
   138    36    37    2
   139    28    29    1
   140    28    27    1
