@<TRIPOS>MOLECULE
tmp/3mskA00.pdb
 139 132 0 0 0
SMALL
GASTEIGER

@<TRIPOS>ATOM
      1  N         22.4430  -33.1660    1.9570 N.3    32  LEU32      -0.1245
      2  CA        21.7820  -34.3870    1.7310 C.3    32  LEU32       0.1561
      3  C         20.2440  -34.1090    1.4170 C.2    32  LEU32       0.2260
      4  O         19.5200  -33.3730    2.1410 O.2    32  LEU32      -0.2867
      5  CB        22.0520  -35.3190    2.9620 C.3    32  LEU32       0.0270
      6  CG        21.4820  -36.7250    2.8260 C.3    32  LEU32       0.0019
      7  CD1       21.5810  -37.5470    4.0760 C.3    32  LEU32       0.0001
      8  CD2       20.0740  -36.5200    2.7000 C.3    32  LEU32       0.0001
      9  N         16.5860  -35.2800    1.4660 N.3    34  ASP34      -0.1295
     10  CA        15.9490  -36.2010    2.3530 C.3    34  ASP34       0.1359
     11  C         14.4220  -35.9970    2.3480 C.3    34  ASP34       0.2015
     12  O         13.8750  -35.0760    3.0780 O.3    34  ASP34      -0.2188
     13  CB        16.4860  -36.0320    3.8060 C.3    34  ASP34       0.1357
     14  CG        15.8920  -37.0370    4.7890 C.2    34  ASP34       0.3664
     15  OD1       15.2770  -38.0680    4.3990 O.co2  34  ASP34      -0.2456
     16  OD2       16.0210  -36.7860    6.0010 O.co2  34  ASP34      -0.2456
     17  N         12.4630  -37.8980    3.8400 N.3    36  GLY36      -0.1210
     18  CA        11.9530  -38.4370    5.1060 C.3    36  GLY36       0.1956
     19  C         12.0740  -37.5740    6.3420 C.2    36  GLY36       0.2612
     20  O         11.9600  -38.0930    7.4630 O.2    36  GLY36      -0.2717
     21  N         12.3140  -36.2700    6.1730 N.am   37  SER37      -0.1952
     22  CA        12.3910  -35.3840    7.2950 C.3    37  SER37       0.1924
     23  C         12.0060  -33.9850    6.7340 C.2    37  SER37       0.2314
     24  O         11.8790  -33.8210    5.4900 O.2    37  SER37      -0.2863
     25  CB        13.8190  -35.3900    7.9610 C.3    37  SER37       0.2116
     26  OG        14.7500  -34.7310    7.1440 O.3    37  SER37      -0.2180
     27  N         17.2590  -33.0940   18.2850 N.3    71  VAL71      -0.1245
     28  CA        16.6810  -34.1590   17.4760 C.3    71  VAL71       0.1561
     29  C         17.2880  -35.5340   17.7970 C.2    71  VAL71       0.2260
     30  O         18.2960  -35.8920   17.2200 O.2    71  VAL71      -0.2867
     31  CB        16.6900  -33.8120   15.8950 C.3    71  VAL71       0.0252
     32  CG1       16.1090  -34.9510   15.0600 C.3    71  VAL71       0.0019
     33  CG2       15.9320  -32.5250   15.5680 C.3    71  VAL71       0.0019
     34  N         17.3900  -39.7590   17.7630 N.3    73  TYR73      -0.1241
     35  CA        16.8610  -40.8680   16.9210 C.3    73  TYR73       0.1605
     36  C         17.5810  -42.1050   17.3940 C.2    73  TYR73       0.2264
     37  O         18.3600  -42.0170   18.3190 O.2    73  TYR73      -0.2867
     38  CB        17.0760  -40.6560   15.3980 C.3    73  TYR73       0.0534
     39  CG        18.4790  -40.2280   15.0120 C.ar   73  TYR73      -0.0201
     40  CD1       19.4960  -41.1870   14.7400 C.ar   73  TYR73      -0.0009
     41  CD2       18.7950  -38.8620   14.8930 C.ar   73  TYR73      -0.0009
     42  CE1       20.8000  -40.7890   14.3760 C.ar   73  TYR73       0.0417
     43  CE2       20.1080  -38.4420   14.5320 C.ar   73  TYR73       0.0417
     44  CZ        21.0970  -39.4180   14.2980 C.ar   73  TYR73       0.1957
     45  OH        22.3540  -39.0310   13.9060 O.3    73  TYR73      -0.2866
     46  N         21.1990  -35.0410   16.5810 N.3    78  TRP78      -0.1241
     47  CA        21.8590  -33.7810   16.3000 C.3    78  TRP78       0.1605
     48  C         21.1060  -32.7020   17.0730 C.2    78  TRP78       0.2264
     49  O         19.8750  -32.8540   17.3770 O.2    78  TRP78      -0.2867
     50  CB        21.9360  -33.4660   14.7640 C.3    78  TRP78       0.0550
     51  CG        20.5750  -33.2230   14.0250 C.ar   78  TRP78       0.0003
     52  CD1       19.8230  -34.1660   13.3190 C.ar   78  TRP78       0.0946
     53  CD2       19.8130  -31.9960   13.9690 C.ar   78  TRP78       0.0152
     54  NE1       18.6680  -33.5850   12.8290 N.ar   78  TRP78      -0.2442
     55  CE2       18.6410  -32.2620   13.1980 C.ar   78  TRP78       0.0810
     56  CE3       20.0270  -30.6890   14.4490 C.ar   78  TRP78       0.0012
     57  CZ2       17.6740  -31.2790   12.9430 C.ar   78  TRP78       0.0191
     58  CZ3       19.0890  -29.7290   14.2000 C.ar   78  TRP78       0.0001
     59  CH2       17.8970  -30.0250   13.4640 C.ar   78  TRP78       0.0015
     60  N         26.9590  -39.5550   15.9440 N.3   109  LYS109     -0.1231
     61  CA        26.7110  -40.5220   14.8780 C.3   109  LYS109      0.1693
     62  C         25.7030  -39.9910   13.8590 C.2   109  LYS109      0.2592
     63  O         24.7770  -40.6960   13.4590 O.2   109  LYS109     -0.2718
     64  CB        26.2120  -41.8460   15.4610 C.3   109  LYS109      0.0285
     65  CG        27.2260  -42.5640   16.3360 C.3   109  LYS109      0.0035
     66  CD        26.7650  -43.9740   16.6670 C.3   109  LYS109      0.0206
     67  CE        27.1570  -44.3670   18.0820 C.3   109  LYS109      0.1093
     68  NZ        28.2770  -45.3470   18.0930 N.3   109  LYS109     -0.1314
     69  N         25.8950  -38.7430   13.4460 N.am  110  PHE110     -0.1976
     70  CA        25.0280  -38.0950   12.4690 C.3   110  PHE110      0.1639
     71  C         25.8450  -37.9390   11.1870 C.2   110  PHE110      0.2290
     72  O         25.4770  -38.4950   10.1600 O.2   110  PHE110     -0.2864
     73  CB        24.5630  -36.7310   12.9800 C.3   110  PHE110      0.0560
     74  CG        23.7030  -35.9580   12.0120 C.ar  110  PHE110     -0.0200
     75  CD1       22.3730  -36.3220   11.7990 C.ar  110  PHE110     -0.0042
     76  CD2       24.2330  -34.8830   11.3250 C.ar  110  PHE110     -0.0042
     77  CE1       21.5600  -35.6200   10.8840 C.ar  110  PHE110     -0.0003
     78  CE2       23.4330  -34.0900   10.4700 C.ar  110  PHE110     -0.0003
     79  CZ        22.0670  -34.4750   10.2560 C.ar  110  PHE110     -0.0000
     80  N         28.8920  -38.6340    8.4910 N.3   112  ILE112     -0.1245
     81  CA        29.5920  -39.8170    8.0630 C.3   112  ILE112      0.1561
     82  C         31.0850  -39.5290    7.8010 C.2   112  ILE112      0.2260
     83  O         31.4940  -38.6430    7.0430 O.2   112  ILE112     -0.2867
     84  CB        28.9280  -40.5620    6.8650 C.3   112  ILE112      0.0252
     85  CG1       27.5440  -41.1390    7.2220 C.3   112  ILE112      0.0019
     86  CG2       29.8420  -41.8330    6.4310 C.3   112  ILE112      0.0019
     87  CD1       26.6710  -41.4050    5.9100 C.3   112  ILE112      0.0001
     88  N         29.1640  -34.4850    2.4630 N.3   117  TRP117     -0.1241
     89  CA        28.0040  -33.6490    2.7300 C.3   117  TRP117      0.1605
     90  C         28.0670  -33.0810    4.1740 C.2   117  TRP117      0.2264
     91  O         28.7120  -33.6930    5.0520 O.2   117  TRP117     -0.2867
     92  CB        26.6750  -34.3620    2.3520 C.3   117  TRP117      0.0550
     93  CG        26.3430  -35.6310    3.0600 C.ar  117  TRP117      0.0003
     94  CD1       26.4460  -36.9220    2.5680 C.ar  117  TRP117      0.0946
     95  CD2       25.8460  -35.7510    4.3910 C.ar  117  TRP117      0.0152
     96  NE1       26.0500  -37.8210    3.5400 N.ar  117  TRP117     -0.2442
     97  CE2       25.6840  -37.1350    4.6630 C.ar  117  TRP117      0.0810
     98  CE3       25.5150  -34.8180    5.3930 C.ar  117  TRP117      0.0012
     99  CZ2       25.2140  -37.5960    5.9060 C.ar  117  TRP117      0.0191
    100  CZ3       25.0660  -35.2540    6.5880 C.ar  117  TRP117      0.0001
    101  CH2       24.9320  -36.6450    6.8540 C.ar  117  TRP117      0.0015
    102  N         21.5590  -31.4170    5.9160 N.3   120  ILE120     -0.1245
    103  CA        20.4170  -32.2630    5.4360 C.3   120  ILE120      0.1561
    104  C         19.2680  -31.2940    5.0710 C.2   120  ILE120      0.2260
    105  O         19.0340  -30.2810    5.7690 O.2   120  ILE120     -0.2867
    106  CB        20.0330  -33.3280    6.5470 C.3   120  ILE120      0.0252
    107  CG1       18.8470  -34.1610    6.1510 C.3   120  ILE120      0.0019
    108  CG2       19.6930  -32.6770    7.9160 C.3   120  ILE120      0.0019
    109  CD1       18.6270  -35.4090    7.1590 C.3   120  ILE120      0.0001
    110  N         11.1630  -42.4040    0.8510 N.3   220  ASP220     -0.1239
    111  CA        12.2540  -41.7650    1.6230 C.3   220  ASP220      0.1674
    112  C         13.6330  -41.8010    0.9550 C.2   220  ASP220      0.2266
    113  O         14.3400  -42.8000    1.0310 O.2   220  ASP220     -0.2867
    114  CB        12.2620  -42.3270    3.0690 C.3   220  ASP220      0.1410
    115  CG        13.3420  -41.6930    3.9690 C.2   220  ASP220      0.3668
    116  OD1       13.8490  -40.6170    3.6230 O.co2 220  ASP220     -0.2456
    117  OD2       13.6590  -42.2810    5.0070 O.co2 220  ASP220     -0.2456
    118  N         16.2660  -40.6460    2.0130 N.3   222  GLY222     -0.1210
    119  CA        17.2680  -40.6990    3.0810 C.3   222  GLY222      0.1956
    120  C         17.5910  -42.1120    3.5540 C.2   222  GLY222      0.2612
    121  O         18.5310  -42.2930    4.3050 O.2   222  GLY222     -0.2717
    122  N         16.8480  -43.1300    3.0890 N.am  223  THR223     -0.1952
    123  CA        17.0320  -44.5190    3.5230 C.3   223  THR223      0.1897
    124  C         17.5710  -45.2660    2.3420 C.2   223  THR223      0.2313
    125  O         17.1180  -45.0770    1.1880 O.2   223  THR223     -0.2863
    126  CB        15.6990  -45.1510    3.9620 C.3   223  THR223      0.1794
    127  OG1       15.2430  -44.4490    5.0870 O.3   223  THR223     -0.2208
    128  CG2       15.8220  -46.6460    4.3620 C.3   223  THR223      0.0378
    129  N         12.5450  -51.0720    3.3480 N.3   227  ARG227     -0.1245
    130  CA        12.3650  -51.5560    4.7020 C.3   227  ARG227      0.1563
    131  C         10.9060  -51.9940    4.8410 C.2   227  ARG227      0.2260
    132  O         10.0170  -51.2550    4.3920 O.2   227  ARG227     -0.2867
    133  CB        12.7200  -50.4500    5.7230 C.3   227  ARG227      0.0307
    134  CG        14.2560  -49.9640    5.7790 C.3   227  ARG227      0.0489
    135  CD        14.4490  -48.9560    7.0020 C.3   227  ARG227      0.2205
    136  NE        14.0790  -49.5310    8.3210 N.pl3 227  ARG227     -0.0865
    137  CZ        13.7110  -48.8580    9.4360 C.cat 227  ARG227      0.5346
    138  NH1       13.6910  -47.5280    9.4410 N.pl3 227  ARG227      0.1354
    139  NH2       13.3790  -49.5150   10.5980 N.pl3 227  ARG227      0.1354
@<TRIPOS>BOND
     1   110   111    1
     2   112   113    2
     3   112   111    1
     4   125   124    2
     5     3     2    1
     6     3     4    2
     7     9    10    1
     8   111   114    1
     9     2     1    1
    10     2     5    1
    11   118   119    1
    12   124   123    1
    13    11    10    1
    14    11    12    1
    15    92    89    1
    16    92    93    1
    17    10    13    1
    18    88    89    1
    19    94    93   ar
    20    94    96   ar
    21     8     6    1
    22    89    90    1
    23     6     5    1
    24     6     7    1
    25    93    95   ar
    26   114   115    1
    27   119   120    1
    28   122   123    1
    29   122   120   am
    30   129   130    1
    31   123   126    1
    32    96    97   ar
    33   120   121    2
    34   116   115   ar
    35    13    14    1
    36    17    18    1
    37   126   128    1
    38   126   127    1
    39   115   117   ar
    40    90    91    2
    41    95    97   ar
    42    95    98   ar
    43   132   131    2
    44    15    14   ar
    45    97    99   ar
    46   130   131    1
    47   130   133    1
    48    14    16   ar
    49   104   103    1
    50   104   105    2
    51    18    19    1
    52    98   100   ar
    53   103   102    1
    54   103   106    1
    55    24    23    2
    56   133   134    1
    57   134   135    1
    58    99   101   ar
    59    87    85    1
    60   107   106    1
    61   107   109    1
    62    21    19   am
    63    21    22    1
    64    19    20    2
    65    86    84    1
    66   106   108    1
    67   100   101   ar
    68    23    22    1
    69    84    85    1
    70    84    81    1
    71   135   136    1
    72    83    82    2
    73    26    25    1
    74    22    25    1
    75    82    81    1
    76    81    80    1
    77   136   137    2
    78   137   138    1
    79   137   139    1
    80    72    71    2
    81    79    78   ar
    82    79    77   ar
    83    78    76   ar
    84    77    75   ar
    85    71    70    1
    86    76    74   ar
    87    75    74   ar
    88    74    73    1
    89    70    73    1
    90    70    69    1
    91    54    55   ar
    92    54    52   ar
    93    57    55   ar
    94    57    59   ar
    95    55    53   ar
    96    52    51   ar
    97    69    62   am
    98    63    62    2
    99    59    58   ar
   100    62    61    1
   101    45    44    1
   102    53    51   ar
   103    53    56   ar
   104    51    50    1
   105    58    56   ar
   106    44    42   ar
   107    44    43   ar
   108    42    40   ar
   109    43    41   ar
   110    40    39   ar
   111    50    47    1
   112    61    64    1
   113    61    60    1
   114    41    39   ar
   115    39    38    1
   116    32    31    1
   117    38    35    1
   118    64    65    1
   119    33    31    1
   120    31    28    1
   121    47    46    1
   122    47    48    1
   123    65    66    1
   124    66    67    1
   125    35    36    1
   126    35    34    1
   127    48    49    2
   128    30    29    2
   129    36    37    2
   130    28    29    1
   131    28    27    1
   132    67    68    1
