@<TRIPOS>MOLECULE
tmp/3mslA00.pdb
 164 155 0 0 0
SMALL
GASTEIGER

@<TRIPOS>ATOM
      1  N         22.1400  -31.7560    2.4650 N.3    32  LEU32      -0.1245
      2  CA        21.5270  -33.0360    2.1060 C.3    32  LEU32       0.1561
      3  C         20.0400  -32.8980    1.7780 C.2    32  LEU32       0.2260
      4  O         19.2640  -32.3620    2.5720 O.2    32  LEU32      -0.2867
      5  CB        21.7320  -34.0660    3.2270 C.3    32  LEU32       0.0270
      6  CG        21.2560  -35.5070    2.9960 C.3    32  LEU32       0.0019
      7  CD1       22.1480  -36.2210    1.9960 C.3    32  LEU32       0.0001
      8  CD2       21.2090  -36.2810    4.3040 C.3    32  LEU32       0.0001
      9  N         16.6010  -34.2860    1.7140 N.3    34  ASP34      -0.1239
     10  CA        16.0030  -35.2770    2.6030 C.3    34  ASP34       0.1674
     11  C         14.4810  -35.1580    2.6720 C.2    34  ASP34       0.2266
     12  O         13.9450  -34.2510    3.3140 O.2    34  ASP34      -0.2867
     13  CB        16.6270  -35.1580    4.0000 C.3    34  ASP34       0.1410
     14  CG        16.2060  -36.2770    4.9380 C.2    34  ASP34       0.3668
     15  OD1       15.8140  -37.3670    4.4660 O.co2  34  ASP34      -0.2456
     16  OD2       16.2850  -36.0620    6.1630 O.co2  34  ASP34      -0.2456
     17  N         12.7160  -37.3390    4.1150 N.3    36  GLY36      -0.1210
     18  CA        12.3610  -38.0990    5.3140 C.3    36  GLY36       0.1956
     19  C         12.3480  -37.3110    6.6140 C.2    36  GLY36       0.2612
     20  O         12.1380  -37.8850    7.6850 O.2    36  GLY36      -0.2717
     21  N         12.5790  -36.0020    6.5230 N.am   37  SER37      -0.1952
     22  CA        12.5210  -35.1060    7.6830 C.3    37  SER37       0.1924
     23  C         11.9410  -33.7470    7.2850 C.2    37  SER37       0.2314
     24  O         11.6200  -33.5310    6.1160 O.2    37  SER37      -0.2863
     25  CB        13.9050  -34.9470    8.3220 C.3    37  SER37       0.2116
     26  OG        14.8150  -34.3270    7.4310 O.3    37  SER37      -0.2180
     27  N         16.5810  -33.0920   19.0310 N.3    71  VAL71      -0.1245
     28  CA        16.0340  -34.1450   18.1690 C.3    71  VAL71       0.1561
     29  C         16.7790  -35.4740   18.3450 C.2    71  VAL71       0.2260
     30  O         17.8290  -35.6870   17.7310 O.2    71  VAL71      -0.2867
     31  CB        16.0250  -33.7240   16.6710 C.3    71  VAL71       0.0252
     32  CG1       15.2870  -34.7560   15.8220 C.3    71  VAL71       0.0019
     33  CG2       15.3870  -32.3550   16.5010 C.3    71  VAL71       0.0019
     34  N         17.0150  -39.6730   17.9820 N.3    73  TYR73      -0.1241
     35  CA        16.5050  -40.6930   17.1610 C.3    73  TYR73       0.1605
     36  C         17.2130  -41.7790   17.8260 C.2    73  TYR73       0.2264
     37  O         17.3620  -41.7530   18.9910 O.2    73  TYR73      -0.2867
     38  CB        16.9860  -40.5330   15.7450 C.3    73  TYR73       0.0534
     39  CG        18.2780  -39.8490   15.5430 C.ar   73  TYR73      -0.0201
     40  CD1       19.4150  -40.5560   15.3570 C.ar   73  TYR73      -0.0009
     41  CD2       18.3560  -38.4940   15.4700 C.ar   73  TYR73      -0.0009
     42  CE1       20.5850  -39.9390   15.1440 C.ar   73  TYR73       0.0417
     43  CE2       19.5200  -37.8750   15.2470 C.ar   73  TYR73       0.0417
     44  CZ        20.6270  -38.6050   15.0890 C.ar   73  TYR73       0.1957
     45  OH        21.7890  -38.0180   14.8820 O.3    73  TYR73      -0.2866
     46  N         20.6510  -34.7360   17.4180 N.3    78  TRP78      -0.1241
     47  CA        21.2590  -33.5180   16.9570 C.3    78  TRP78       0.1605
     48  C         20.5100  -32.4400   17.7460 C.2    78  TRP78       0.2264
     49  O         19.3500  -32.5760   18.0380 O.2    78  TRP78      -0.2867
     50  CB        21.1940  -33.2310   15.4430 C.3    78  TRP78       0.0550
     51  CG        19.8660  -32.9700   14.7330 C.ar   78  TRP78       0.0003
     52  CD1       19.1800  -33.8440   14.0160 C.ar   78  TRP78       0.0946
     53  CD2       19.1310  -31.7510   14.6600 C.ar   78  TRP78       0.0152
     54  NE1       18.0870  -33.2890   13.5120 N.ar   78  TRP78      -0.2442
     55  CE2       18.0160  -31.9980   13.9010 C.ar   78  TRP78       0.0810
     56  CE3       19.3010  -30.4920   15.1920 C.ar   78  TRP78       0.0012
     57  CZ2       17.0860  -31.0440   13.6270 C.ar   78  TRP78       0.0191
     58  CZ3       18.3870  -29.5680   14.9370 C.ar   78  TRP78       0.0001
     59  CH2       17.2870  -29.8370   14.1530 C.ar   78  TRP78       0.0015
     60  N         26.4850  -39.0770   16.1940 N.3   109  LYS109     -0.1231
     61  CA        26.1850  -40.0030   15.0970 C.3   109  LYS109      0.1693
     62  C         25.1680  -39.4160   14.1110 C.2   109  LYS109      0.2592
     63  O         24.1760  -40.0600   13.7570 O.2   109  LYS109     -0.2718
     64  CB        25.7190  -41.3610   15.6440 C.3   109  LYS109      0.0285
     65  CG        26.7550  -42.0780   16.5020 C.3   109  LYS109      0.0035
     66  CD        26.2110  -43.3860   17.0530 C.3   109  LYS109      0.0206
     67  CE        27.1030  -44.1820   17.3050 C.3   109  LYS109      0.1093
     68  NZ        27.3690  -44.8180   18.6040 N.3   109  LYS109     -0.1314
     69  N         25.4260  -38.1820   13.6830 N.am  110  PHE110     -0.1976
     70  CA        24.5610  -37.4810   12.7380 C.3   110  PHE110      0.1639
     71  C         25.2770  -37.2640   11.4090 C.2   110  PHE110      0.2290
     72  O         24.8280  -37.7490   10.3680 O.2   110  PHE110     -0.2864
     73  CB        24.0890  -36.1460   13.3270 C.3   110  PHE110      0.0560
     74  CG        23.1540  -35.3800   12.4300 C.ar  110  PHE110     -0.0200
     75  CD1       21.8390  -35.8000   12.2480 C.ar  110  PHE110     -0.0042
     76  CD2       23.5870  -34.2320   11.7730 C.ar  110  PHE110     -0.0042
     77  CE1       20.9720  -35.0930   11.4170 C.ar  110  PHE110     -0.0003
     78  CE2       22.7270  -33.5170   10.9410 C.ar  110  PHE110     -0.0003
     79  CZ        21.4170  -33.9490   10.7650 C.ar  110  PHE110     -0.0000
     80  N         28.2460  -37.7070    8.6110 N.3   112  ILE112     -0.1245
     81  CA        28.9980  -38.8550    8.1110 C.3   112  ILE112      0.1561
     82  C         30.4460  -38.4570    7.8380 C.2   112  ILE112      0.2260
     83  O         30.7070  -37.4940    7.1100 O.2   112  ILE112     -0.2867
     84  CB        28.3450  -39.4620    6.8390 C.3   112  ILE112      0.0252
     85  CG1       26.8970  -39.8770    7.1290 C.3   112  ILE112      0.0019
     86  CG2       29.1570  -40.6580    6.3250 C.3   112  ILE112      0.0019
     87  CD1       26.0310  -40.0560    5.8920 C.3   112  ILE112      0.0001
     88  N         28.6340  -32.8610    2.7660 N.3   117  TRP117     -0.1241
     89  CA        27.5050  -32.0290    3.1980 C.3   117  TRP117      0.1605
     90  C         27.5760  -31.6400    4.6760 C.2   117  TRP117      0.2264
     91  O         28.1460  -32.3650    5.4950 O.2   117  TRP117     -0.2867
     92  CB        26.1490  -32.6650    2.8460 C.3   117  TRP117      0.0550
     93  CG        25.9070  -34.0380    3.4100 C.ar  117  TRP117      0.0003
     94  CD1       26.1140  -35.2280    2.7750 C.ar  117  TRP117      0.0946
     95  CD2       25.3870  -34.3600    4.7080 C.ar  117  TRP117      0.0152
     96  NE1       25.7660  -36.2720    3.5980 N.ar  117  TRP117     -0.2442
     97  CE2       25.3170  -35.7690    4.7900 C.ar  117  TRP117      0.0810
     98  CE3       24.9790  -33.5960    5.8110 C.ar  117  TRP117      0.0012
     99  CZ2       24.8570  -36.4330    5.9340 C.ar  117  TRP117      0.0191
    100  CZ3       24.5210  -34.2570    6.9490 C.ar  117  TRP117      0.0001
    101  CH2       24.4640  -35.6620    6.9990 C.ar  117  TRP117      0.0015
    102  N         21.0550  -30.5710    6.4500 N.3   120  ILE120     -0.1245
    103  CA        19.9680  -31.2820    5.7730 C.3   120  ILE120      0.1561
    104  C         18.7840  -30.3730    5.4430 C.2   120  ILE120      0.2260
    105  O         18.4390  -29.4720    6.2130 O.2   120  ILE120     -0.2867
    106  CB        19.4730  -32.5220    6.5780 C.3   120  ILE120      0.0252
    107  CG1       18.9290  -32.1160    7.9540 C.3   120  ILE120      0.0019
    108  CG2       20.5880  -33.5600    6.7170 C.3   120  ILE120      0.0019
    109  CD1       18.0740  -33.1800    8.6270 C.3   120  ILE120      0.0001
    110  N          5.3830  -37.6280    6.8850 N.3   190  TYR190     -0.1241
    111  CA         6.3430  -38.1770    5.9400 C.3   190  TYR190      0.1605
    112  C          5.6410  -38.2010    4.5880 C.2   190  TYR190      0.2264
    113  O          4.4400  -37.9260    4.5070 O.2   190  TYR190     -0.2867
    114  CB         6.7170  -39.6110    6.3170 C.3   190  TYR190      0.0534
    115  CG         7.4850  -39.7740    7.6070 C.ar  190  TYR190     -0.0201
    116  CD1        8.8610  -39.5490    7.6560 C.ar  190  TYR190     -0.0009
    117  CD2        6.8410  -40.1810    8.7740 C.ar  190  TYR190     -0.0009
    118  CE1        9.5730  -39.7070    8.8400 C.ar  190  TYR190      0.0417
    119  CE2        7.5430  -40.3430    9.9630 C.ar  190  TYR190      0.0417
    120  CZ         8.9080  -40.1050    9.9890 C.ar  190  TYR190      0.1957
    121  OH         9.6060  -40.2640   11.1620 O.3   190  TYR190     -0.2866
    122  N          3.6620  -48.4500    7.9450 N.3   216  LYS216     -0.1245
    123  CA         3.9470  -47.2210    7.2150 C.3   216  LYS216      0.1561
    124  C          4.7040  -47.5650    5.9320 C.2   216  LYS216      0.2260
    125  O          5.4660  -48.5310    5.8980 O.2   216  LYS216     -0.2867
    126  CB         4.8230  -46.3330    8.1050 C.3   216  LYS216      0.0271
    127  CG         5.1490  -44.9460    7.5900 C.3   216  LYS216      0.0035
    128  CD         6.4760  -44.4590    8.1790 C.3   216  LYS216      0.0206
    129  CE         6.4390  -44.3410    9.6990 C.3   216  LYS216      0.1093
    130  NZ         7.8110  -44.3510   10.2800 N.3   216  LYS216     -0.1314
    131  N          6.9630  -45.1440    3.2240 N.3   218  ILE218     -0.1245
    132  CA         7.4240  -43.7910    2.8890 C.3   218  ILE218      0.1561
    133  C          8.4000  -43.7240    1.7160 C.2   218  ILE218      0.2260
    134  O          9.0830  -44.7010    1.3980 O.2   218  ILE218     -0.2867
    135  CB         8.0460  -43.0490    4.1110 C.3   218  ILE218      0.0252
    136  CG1        9.2750  -43.7920    4.6570 C.3   218  ILE218      0.0019
    137  CG2        6.9930  -42.8120    5.1820 C.3   218  ILE218      0.0019
    138  CD1       10.2130  -42.9250    5.4880 C.3   218  ILE218      0.0001
    139  N         11.7320  -41.8710    0.7030 N.3   220  ASP220     -0.1239
    140  CA        12.8150  -41.2100    1.4260 C.3   220  ASP220      0.1674
    141  C         14.1180  -41.1460    0.6300 C.2   220  ASP220      0.2266
    142  O         14.7470  -42.1710    0.3580 O.2   220  ASP220     -0.2867
    143  CB        13.0380  -41.8990    2.7790 C.3   220  ASP220      0.1410
    144  CG        14.0910  -41.2080    3.6310 C.2   220  ASP220      0.3668
    145  OD1       14.3260  -39.9930    3.4540 O.co2 220  ASP220     -0.2456
    146  OD2       14.6830  -41.8870    4.4940 O.co2 220  ASP220     -0.2456
    147  N         16.6990  -39.8370    1.8300 N.3   222  GLY222     -0.1210
    148  CA        17.7270  -39.9870    2.8600 C.3   222  GLY222      0.1956
    149  C         18.0200  -41.4280    3.2460 C.2   222  GLY222      0.2612
    150  O         18.7460  -41.6810    4.2100 O.2   222  GLY222     -0.2717
    151  N         17.4520  -42.3690    2.4950 N.am  223  THR223     -0.1952
    152  CA        17.7070  -43.7960    2.6850 C.3   223  THR223      0.1897
    153  C         18.2560  -44.3970    1.3920 C.2   223  THR223      0.2313
    154  O         17.8240  -44.0310    0.2970 O.2   223  THR223     -0.2863
    155  CB        16.4280  -44.5470    3.1280 C.3   223  THR223      0.1794
    156  OG1       15.9720  -44.0200    4.3800 O.3   223  THR223     -0.2208
    157  CG2       16.6870  -46.0430    3.2890 C.3   223  THR223      0.0378
    158  N         10.4390  -48.5060    3.3150 N.3   324  VAL324     -0.1245
    159  CA        11.1480  -47.2940    2.9200 C.3   324  VAL324      0.1561
    160  C         11.6250  -47.4140    1.4730 C.2   324  VAL324      0.2260
    161  O         12.4820  -48.2430    1.1530 O.2   324  VAL324     -0.2867
    162  CB        12.3440  -46.9660    3.8570 C.3   324  VAL324      0.0252
    163  CG1       12.9120  -45.5960    3.5270 C.3   324  VAL324      0.0019
    164  CG2       11.9260  -47.0150    5.3230 C.3   324  VAL324      0.0019
@<TRIPOS>BOND
     1   154   153    2
     2   142   141    2
     3   141   140    1
     4   139   140    1
     5   161   160    2
     6   153   152    1
     7   134   133    2
     8   140   143    1
     9   160   159    1
    10     9    10    1
    11   133   132    1
    12     3     2    1
    13     3     4    2
    14   147   148    1
    15     7     6    1
    16     2     1    1
    17     2     5    1
    18   151   152    1
    19   151   149   am
    20    10    11    1
    21    10    13    1
    22    11    12    2
    23   152   155    1
    24    88    89    1
    25    94    93   ar
    26    94    96   ar
    27   143   144    1
    28    92    89    1
    29    92    93    1
    30   148   149    1
    31   132   131    1
    32   132   135    1
    33   159   158    1
    34   159   162    1
    35     6     5    1
    36     6     8    1
    37   155   157    1
    38   155   156    1
    39    89    90    1
    40   149   150    2
    41    93    95   ar
    42   145   144   ar
    43   163   162    1
    44    96    97   ar
    45   144   146   ar
    46   162   164    1
    47    13    14    1
    48   135   136    1
    49   135   137    1
    50    17    18    1
    51    15    14   ar
    52   113   112    2
    53   112   111    1
    54   136   138    1
    55    90    91    2
    56    95    97   ar
    57    95    98   ar
    58    97    99   ar
    59    14    16   ar
    60    18    19    1
    61   104   103    1
    62   104   105    2
    63   103   102    1
    64   103   106    1
    65    98   100   ar
    66    87    85    1
    67   125   124    2
    68   124   123    1
    69    99   101   ar
    70   111   114    1
    71   111   110    1
    72    24    23    2
    73   114   115    1
    74    86    84    1
    75    21    19   am
    76    21    22    1
    77   106   108    1
    78   106   107    1
    79    19    20    2
    80    84    85    1
    81    84    81    1
    82   100   101   ar
    83    83    82    2
    84   123   122    1
    85   123   126    1
    86    23    22    1
    87    26    25    1
    88   127   126    1
    89   127   128    1
    90   115   116   ar
    91   115   117   ar
    92   116   118   ar
    93    22    25    1
    94    82    81    1
    95   107   109    1
    96    81    80    1
    97   128   129    1
    98   117   119   ar
    99   118   120   ar
   100   129   130    1
   101   119   120   ar
   102   120   121    1
   103    72    71    2
   104    79    78   ar
   105    79    77   ar
   106    78    76   ar
   107    71    70    1
   108    77    75   ar
   109    76    74   ar
   110    75    74   ar
   111    74    73    1
   112    70    73    1
   113    70    69    1
   114    54    55   ar
   115    54    52   ar
   116    57    55   ar
   117    57    59   ar
   118    69    62   am
   119    63    62    2
   120    55    53   ar
   121    52    51   ar
   122    62    61    1
   123    59    58   ar
   124    53    51   ar
   125    53    56   ar
   126    51    50    1
   127    45    44    1
   128    58    56   ar
   129    44    42   ar
   130    44    43   ar
   131    61    64    1
   132    61    60    1
   133    42    40   ar
   134    43    41   ar
   135    40    39   ar
   136    50    47    1
   137    41    39   ar
   138    39    38    1
   139    64    65    1
   140    38    35    1
   141    32    31    1
   142    33    31    1
   143    65    66    1
   144    31    28    1
   145    47    46    1
   146    47    48    1
   147    66    67    1
   148    35    36    1
   149    35    34    1
   150    67    68    1
   151    30    29    2
   152    48    49    2
   153    36    37    2
   154    28    29    1
   155    28    27    1
