@<TRIPOS>MOLECULE
tmp/3mssD01.pdb
 97 90 0 0 0
SMALL
GASTEIGER

@<TRIPOS>ATOM
      1  N         35.3320  -79.4480  -29.1810 N.3   104  ALA104     -0.1231
      2  CA        35.0500  -80.4540  -28.1730 C.3   104  ALA104      0.1694
      3  C         35.2140  -79.8270  -26.7830 C.2   104  ALA104      0.2591
      4  O         34.3870  -80.0480  -25.8790 O.2   104  ALA104     -0.2718
      5  CB        36.0070  -81.6590  -28.3630 C.3   104  ALA104      0.0304
      6  N         36.2780  -79.0700  -26.5610 N.am  105  VAL105     -0.1980
      7  CA        36.4190  -78.4580  -25.2020 C.3   105  VAL105      0.1595
      8  C         35.3260  -77.4480  -24.8520 C.2   105  VAL105      0.2287
      9  O         34.8900  -77.3540  -23.6970 O.2   105  VAL105     -0.2864
     10  CB        37.8370  -77.9060  -24.8960 C.3   105  VAL105      0.0276
     11  CG1       38.1390  -76.6260  -25.7020 C.3   105  VAL105      0.0022
     12  CG2       37.8760  -77.5390  -23.3740 C.3   105  VAL105      0.0022
     13  N         32.1220  -77.7620  -25.9530 N.3   107  LEU107     -0.1231
     14  CA        31.0480  -78.6700  -25.5610 C.3   107  LEU107      0.1693
     15  C         31.1720  -79.2090  -24.1250 C.2   107  LEU107      0.2591
     16  O         30.1390  -79.2610  -23.4000 O.2   107  LEU107     -0.2718
     17  CB        30.9880  -79.8830  -26.5070 C.3   107  LEU107      0.0284
     18  CG        30.8150  -79.5520  -28.0180 C.3   107  LEU107      0.0019
     19  CD1       30.6790  -80.8750  -28.8660 C.3   107  LEU107      0.0001
     20  CD2       29.6110  -78.6160  -28.2420 C.3   107  LEU107      0.0001
     21  N         32.3830  -79.6530  -23.7730 N.am  108  LEU108     -0.1980
     22  CA        32.7000  -80.0380  -22.3810 C.3   108  LEU108      0.1596
     23  C         32.3240  -78.9020  -21.4020 C.2   108  LEU108      0.2287
     24  O         31.6320  -79.1310  -20.4090 O.2   108  LEU108     -0.2864
     25  CB        34.1920  -80.3890  -22.2340 C.3   108  LEU108      0.0297
     26  CG        34.7100  -80.7040  -20.7840 C.3   108  LEU108      0.0022
     27  CD1       33.7810  -81.8050  -20.2820 C.3   108  LEU108      0.0001
     28  CD2       36.1220  -81.2670  -20.9140 C.3   108  LEU108      0.0001
     29  N         28.5230  -78.5190  -20.9760 N.3   111  ALA111     -0.1245
     30  CA        27.9760  -79.6090  -20.2020 C.3   111  ALA111      0.1562
     31  C         28.2920  -79.4370  -18.7250 C.2   111  ALA111      0.2260
     32  O         27.4570  -79.7690  -17.8590 O.2   111  ALA111     -0.2867
     33  CB        28.5420  -80.9990  -20.7030 C.3   111  ALA111      0.0290
     34  N         23.0310  -84.0980  -22.9710 N.3   195  LEU195     -0.1245
     35  CA        24.4450  -84.4010  -23.3060 C.3   195  LEU195      0.1561
     36  C         24.5860  -84.9430  -24.7060 C.2   195  LEU195      0.2260
     37  O         25.5680  -84.5920  -25.4350 O.2   195  LEU195     -0.2867
     38  CB        24.9870  -85.4510  -22.3280 C.3   195  LEU195      0.0270
     39  CG        26.4310  -85.6750  -21.9430 C.3   195  LEU195      0.0019
     40  CD1       27.2210  -84.2720  -21.7220 C.3   195  LEU195      0.0001
     41  CD2       26.5280  -86.5650  -20.6590 C.3   195  LEU195      0.0001
     42  N         24.1160  -82.0340  -27.0520 N.3   198  ILE198     -0.1231
     43  CA        25.3710  -81.2450  -27.1400 C.3   198  ILE198      0.1692
     44  C         26.4220  -81.9460  -28.0510 C.2   198  ILE198      0.2591
     45  O         27.0600  -81.3180  -28.8850 O.2   198  ILE198     -0.2718
     46  CB        25.9550  -81.0520  -25.7340 C.3   198  ILE198      0.0266
     47  CG1       25.0140  -80.1180  -24.9350 C.3   198  ILE198      0.0019
     48  CG2       27.4110  -80.4350  -25.8250 C.3   198  ILE198      0.0020
     49  CD1       25.3020  -79.9100  -23.4430 C.3   198  ILE198      0.0001
     50  N         26.6240  -83.2430  -27.7840 N.am  199  ALA199     -0.1980
     51  CA        27.6120  -84.0480  -28.5210 C.3   199  ALA199      0.1597
     52  C         27.3420  -84.1010  -30.0290 C.2   199  ALA199      0.2287
     53  O         28.3320  -84.2530  -30.8200 O.2   199  ALA199     -0.2864
     54  CB        27.6400  -85.4280  -27.9690 C.3   199  ALA199      0.0319
     55  N         32.7770  -88.7000  -32.7590 N.3   229  GLY229     -0.1210
     56  CA        33.6820  -87.8790  -31.9890 C.3   229  GLY229      0.1956
     57  C         33.3830  -87.6780  -30.4970 C.2   229  GLY229      0.2612
     58  O         34.0490  -86.8860  -29.8620 O.2   229  GLY229     -0.2717
     59  N         32.3450  -88.3080  -29.9330 N.am  230  CYS230     -0.1956
     60  CA        32.0340  -88.0840  -28.5030 C.3   230  CYS230      0.1828
     61  C         33.0040  -88.9610  -27.7500 C.2   230  CYS230      0.2467
     62  O         33.1100  -90.1410  -28.0590 O.2   230  CYS230     -0.2730
     63  CB        30.6320  -88.5720  -28.1720 C.3   230  CYS230      0.0996
     64  SG        30.1700  -88.4940  -26.4590 S.3   230  CYS230     -0.0797
     65  N         33.6940  -88.4020  -26.7550 N.am  231  PRO231     -0.2726
     66  CA        34.6780  -89.1610  -25.9790 C.3   231  PRO231      0.1402
     67  C         33.9950  -90.3320  -25.2630 C.2   231  PRO231      0.2269
     68  O         32.8340  -90.2230  -24.8540 O.2   231  PRO231     -0.2865
     69  CB        35.1600  -88.1350  -24.9540 C.3   231  PRO231      0.0296
     70  CG        35.0110  -86.8560  -25.6310 C.3   231  PRO231      0.0237
     71  CD        33.6430  -87.0090  -26.3050 C.3   231  PRO231      0.0939
     72  N         32.5730  -89.5850  -21.7380 N.3   234  VAL234     -0.1245
     73  CA        31.3170  -88.7650  -21.8580 C.3   234  VAL234      0.1561
     74  C         30.1450  -89.6630  -22.2080 C.2   234  VAL234      0.2260
     75  O         29.0760  -89.5650  -21.5940 O.2   234  VAL234     -0.2867
     76  CB        31.4360  -87.6610  -22.8900 C.3   234  VAL234      0.0252
     77  CG1       30.0350  -86.8680  -23.0120 C.3   234  VAL234      0.0019
     78  CG2       32.5980  -86.6800  -22.4440 C.3   234  VAL234      0.0019
     79  N         32.5940  -84.3000  -14.7860 N.3   259  PHE259     -0.1241
     80  CA        32.9260  -83.2910  -15.7960 C.3   259  PHE259      0.1605
     81  C         34.0270  -82.3200  -15.3260 C.2   259  PHE259      0.2264
     82  O         34.9260  -81.9640  -16.1090 O.2   259  PHE259     -0.2867
     83  CB        31.7160  -82.4610  -16.1680 C.3   259  PHE259      0.0534
     84  CG        30.7670  -83.1500  -17.1420 C.ar  259  PHE259     -0.0203
     85  CD1       31.1930  -83.5520  -18.3880 C.ar  259  PHE259     -0.0042
     86  CD2       29.4600  -83.3730  -16.7820 C.ar  259  PHE259     -0.0042
     87  CE1       30.3390  -84.2250  -19.2830 C.ar  259  PHE259     -0.0003
     88  CE2       28.5770  -84.0230  -17.6850 C.ar  259  PHE259     -0.0003
     89  CZ        29.0580  -84.4530  -18.9370 C.ar  259  PHE259     -0.0000
     90  N         37.3060  -84.0310  -15.8340 N.3   262  MET262     -0.1245
     91  CA        37.6430  -83.9220  -17.2430 C.3   262  MET262      0.1570
     92  C         37.9940  -82.4560  -17.6110 C.2   262  MET262      0.2261
     93  O         38.9450  -82.2460  -18.2760 O.2   262  MET262     -0.2867
     94  CB        36.4640  -84.3830  -18.1170 C.3   262  MET262      0.0387
     95  CG        35.9430  -85.8350  -17.9580 C.3   262  MET262      0.0595
     96  SD        34.6620  -86.1060  -19.2330 S.3   262  MET262     -0.1393
     97  CE        33.5660  -87.3190  -18.4920 C.3   262  MET262      0.0692
@<TRIPOS>BOND
     1    55    56    1
     2    56    57    1
     3    53    52    2
     4    57    59   am
     5    57    58    2
     6    52    51    1
     7    59    60    1
     8     1     2    1
     9    45    44    2
    10    19    18    1
    11    51    54    1
    12    51    50    1
    13    60    63    1
    14    60    61    1
    15     5     2    1
    16    20    18    1
    17     2     3    1
    18    63    64    1
    19    62    61    2
    20    44    50   am
    21    44    43    1
    22    18    17    1
    23    61    65   am
    24    43    42    1
    25    43    46    1
    26     3     6   am
    27     3     4    2
    28    65    71    1
    29    65    66    1
    30     6     7    1
    31    17    14    1
    32    71    70    1
    33    66    67    1
    34    66    69    1
    35    13    14    1
    36    48    46    1
    37    46    47    1
    38    11    10    1
    39    70    69    1
    40    14    15    1
    41    37    36    2
    42    67    68    2
    43     7    10    1
    44     7     8    1
    45    47    49    1
    46    10    12    1
    47     8     9    2
    48    36    35    1
    49    15    21   am
    50    15    16    2
    51    21    22    1
    52    35    34    1
    53    35    38    1
    54    77    76    1
    55    76    78    1
    56    76    73    1
    57    22    25    1
    58    22    23    1
    59    38    39    1
    60    25    26    1
    61    74    73    1
    62    74    75    2
    63    39    40    1
    64    39    41    1
    65    73    72    1
    66    23    24    2
    67    29    30    1
    68    28    26    1
    69    26    27    1
    70    33    30    1
    71    30    31    1
    72    87    89   ar
    73    87    85   ar
    74    96    97    1
    75    96    95    1
    76    89    88   ar
    77    31    32    2
    78    85    84   ar
    79    93    92    2
    80    94    95    1
    81    94    91    1
    82    88    86   ar
    83    92    91    1
    84    91    90    1
    85    84    86   ar
    86    84    83    1
    87    83    80    1
    88    82    81    2
    89    80    81    1
    90    80    79    1
