@<TRIPOS>MOLECULE
tmp/3mssD00.pdb
 233 223 0 0 0
SMALL
GASTEIGER

@<TRIPOS>ATOM
      1  N         10.0170  -61.7860  -28.1900 N.3    21  LEU21      -0.1231
      2  CA        11.3350  -62.3530  -28.3020 C.3    21  LEU21       0.1693
      3  C         11.3180  -63.6090  -29.1630 C.2    21  LEU21       0.2592
      4  O         10.3810  -64.4250  -29.0490 O.2    21  LEU21      -0.2718
      5  CB        11.8110  -62.7420  -26.8870 C.3    21  LEU21       0.0284
      6  CG        13.2640  -62.5100  -26.5970 C.3    21  LEU21       0.0019
      7  CD1       13.7030  -61.2420  -27.2700 C.3    21  LEU21       0.0001
      8  CD2       13.5140  -62.4820  -25.0840 C.3    21  LEU21       0.0001
      9  N         12.3640  -63.7480  -29.9870 N.am   22  GLY22      -0.1957
     10  CA        12.7320  -64.9960  -30.6920 C.3    22  GLY22       0.1869
     11  C         11.6610  -65.3810  -31.7150 C.2    22  GLY22       0.2309
     12  O         11.3860  -66.5740  -31.9240 O.2    22  GLY22      -0.2863
     13  N          8.7310  -68.3210  -27.6490 N.3    26  TYR26      -0.1241
     14  CA         8.6590  -68.4350  -26.1880 C.3    26  TYR26       0.1605
     15  C          7.2950  -68.0490  -25.6240 C.2    26  TYR26       0.2264
     16  O          7.0790  -68.0220  -24.3820 O.2    26  TYR26      -0.2867
     17  CB         9.7230  -67.5410  -25.5730 C.3    26  TYR26       0.0534
     18  CG        11.0900  -67.9440  -25.9820 C.ar   26  TYR26      -0.0201
     19  CD1       11.8100  -67.1670  -26.8850 C.ar   26  TYR26      -0.0009
     20  CD2       11.6550  -69.1220  -25.5110 C.ar   26  TYR26      -0.0009
     21  CE1       13.0430  -67.5250  -27.3070 C.ar   26  TYR26       0.0417
     22  CE2       12.9270  -69.5110  -25.9360 C.ar   26  TYR26       0.0417
     23  CZ        13.6120  -68.7220  -26.8190 C.ar   26  TYR26       0.1957
     24  OH        14.8900  -69.0170  -27.2330 O.3    26  TYR26      -0.2866
     25  N          6.8870  -63.5080  -24.1980 N.3    29  VAL29      -0.1245
     26  CA         8.1040  -62.9920  -23.6100 C.3    29  VAL29       0.1561
     27  C          8.6170  -62.0050  -24.6010 C.2    29  VAL29       0.2260
     28  O          8.6380  -62.3050  -25.8030 O.2    29  VAL29      -0.2867
     29  CB         9.1700  -64.1080  -23.4130 C.3    29  VAL29       0.0252
     30  CG1       10.4700  -63.5080  -22.9260 C.3    29  VAL29       0.0019
     31  CG2        8.6310  -65.1770  -22.4750 C.3    29  VAL29       0.0019
     32  N         14.6810  -59.6900  -20.8140 N.3    42  ALA42      -0.1231
     33  CA        13.5830  -60.5200  -21.3080 C.3    42  ALA42       0.1694
     34  C         12.4920  -60.3790  -20.2530 C.2    42  ALA42       0.2592
     35  O         12.7720  -60.3860  -19.0210 O.2    42  ALA42      -0.2718
     36  CB        14.0230  -62.0210  -21.4590 C.3    42  ALA42       0.0304
     37  N         11.2670  -60.2120  -20.7390 N.am   43  VAL43      -0.1966
     38  CA        10.1190  -59.8950  -19.9000 C.3    43  VAL43       0.1727
     39  C          9.0060  -60.8630  -20.2240 C.2    43  VAL43       0.2616
     40  O          8.4690  -60.8490  -21.3450 O.2    43  VAL43      -0.2715
     41  CB         9.6160  -58.4500  -20.1340 C.3    43  VAL43       0.0290
     42  CG1        8.5460  -58.1360  -19.1480 C.3    43  VAL43       0.0023
     43  CG2       10.7950  -57.3990  -20.0840 C.3    43  VAL43       0.0023
     44  N          8.6780  -61.7420  -19.3030 N.am   44  LYS44      -0.1977
     45  CA         7.5480  -62.6590  -19.5400 C.3    44  LYS44       0.1596
     46  C          6.2900  -61.9910  -19.0050 C.2    44  LYS44       0.2287
     47  O          6.3150  -61.4390  -17.9180 O.2    44  LYS44      -0.2864
     48  CB         7.7710  -63.9810  -18.8180 C.3    44  LYS44       0.0298
     49  CG         6.6620  -65.0720  -19.1110 C.3    44  LYS44       0.0038
     50  CD         6.9770  -66.3650  -18.3570 C.3    44  LYS44       0.0206
     51  CE         5.8210  -67.3710  -18.5530 C.3    44  LYS44       0.1093
     52  NZ         6.2610  -68.6880  -18.0270 N.3    44  LYS44      -0.1314
     53  N          5.6100  -69.3910  -10.3390 N.3    53  GLU53      -0.1245
     54  CA         6.9130  -69.3390  -11.0590 C.3    53  GLU53       0.1567
     55  C          7.7400  -68.1420  -10.5110 C.2    53  GLU53       0.2260
     56  O          8.9170  -68.2760  -10.2010 O.2    53  GLU53      -0.2867
     57  CB         6.7270  -69.1550  -12.5530 C.3    53  GLU53       0.0388
     58  CG         8.0720  -69.0670  -13.2580 C.3    53  GLU53       0.1160
     59  CD         7.9370  -68.9820  -14.7670 C.2    53  GLU53       0.3649
     60  OE1        6.8190  -68.8560  -15.2990 O.co2  53  GLU53      -0.2457
     61  OE2        8.9650  -69.0080  -15.4210 O.co2  53  GLU53      -0.2457
     62  N          9.1800  -69.0650   -6.9230 N.3    56  VAL56      -0.1231
     63  CA        10.2740  -70.0190   -7.0410 C.3    56  VAL56       0.1692
     64  C         11.5710  -69.3340   -7.5540 C.2    56  VAL56       0.2591
     65  O         12.6710  -69.6340   -7.0570 O.2    56  VAL56      -0.2718
     66  CB         9.9020  -71.1090   -8.0950 C.3    56  VAL56       0.0266
     67  CG1       11.1440  -71.7980   -8.6330 C.3    56  VAL56       0.0020
     68  CG2        8.8500  -72.0440   -7.5660 C.3    56  VAL56       0.0020
     69  N         11.4690  -68.4490   -8.5720 N.am   57  MET57      -0.1979
     70  CA        12.6840  -67.7950   -9.0970 C.3    57  MET57       0.1605
     71  C         13.3730  -66.8920   -8.0710 C.2    57  MET57       0.2287
     72  O         14.6090  -66.6650   -8.1280 O.2    57  MET57      -0.2864
     73  CB        12.3510  -66.9760  -10.3430 C.3    57  MET57       0.0413
     74  CG        12.0140  -67.9080  -11.5270 C.3    57  MET57       0.0598
     75  SD        11.4660  -67.0210  -12.9850 S.3    57  MET57      -0.1393
     76  CE        13.0620  -66.5150  -13.5920 C.3    57  MET57       0.0692
     77  N         16.0030  -69.0530   -6.1580 N.3    60  ILE60      -0.1245
     78  CA        17.1510  -69.6890   -6.7780 C.3    60  ILE60       0.1561
     79  C         18.1310  -68.6430   -7.3010 C.2    60  ILE60       0.2260
     80  O         17.7500  -67.6060   -7.8490 O.2    60  ILE60      -0.2867
     81  CB        16.6960  -70.7810   -7.8230 C.3    60  ILE60       0.0252
     82  CG1       15.8060  -70.1880   -8.8770 C.3    60  ILE60       0.0019
     83  CG2       15.8270  -71.8290   -7.0890 C.3    60  ILE60       0.0019
     84  CD1       15.0450  -71.2170   -9.6860 C.3    60  ILE60       0.0001
     85  N         22.0330  -70.5650  -13.7500 N.3    65  LEU65      -0.1231
     86  CA        20.6080  -70.5370  -13.8650 C.3    65  LEU65       0.1693
     87  C         20.2250  -69.1160  -14.2940 C.2    65  LEU65       0.2591
     88  O         20.7170  -68.1100  -13.7330 O.2    65  LEU65      -0.2718
     89  CB        19.9430  -70.8770  -12.5130 C.3    65  LEU65       0.0284
     90  CG        19.9910  -72.3480  -12.0930 C.3    65  LEU65       0.0019
     91  CD1       19.4860  -72.4440  -10.6310 C.3    65  LEU65       0.0001
     92  CD2       19.0350  -73.0590  -13.0090 C.3    65  LEU65       0.0001
     93  N         19.2700  -69.0150  -15.2160 N.am   66  VAL66      -0.1980
     94  CA        18.8700  -67.6960  -15.7180 C.3    66  VAL66       0.1595
     95  C         18.5410  -66.7090  -14.5360 C.2    66  VAL66       0.2287
     96  O         17.8960  -67.1070  -13.5640 O.2    66  VAL66      -0.2864
     97  CB        17.7570  -67.8390  -16.7870 C.3    66  VAL66       0.0276
     98  CG1       16.4920  -68.3820  -16.1740 C.3    66  VAL66       0.0022
     99  CG2       17.5400  -66.5030  -17.4970 C.3    66  VAL66       0.0022
    100  N          7.5200  -60.9340  -15.3160 N.3    80  ILE80      -0.1245
    101  CA         8.7210  -61.5310  -14.6860 C.3    80  ILE80       0.1561
    102  C          9.9080  -61.1440  -15.5910 C.2    80  ILE80       0.2260
    103  O          9.9020  -61.4280  -16.7910 O.2    80  ILE80      -0.2867
    104  CB         8.6400  -63.0270  -14.5690 C.3    80  ILE80       0.0252
    105  CG1        7.5130  -63.4280  -13.6000 C.3    80  ILE80       0.0019
    106  CG2        9.9680  -63.5770  -14.0220 C.3    80  ILE80       0.0019
    107  CD1        7.1500  -64.8990  -13.6420 C.3    80  ILE80       0.0001
    108  N         14.0410  -61.1660  -16.5260 N.3    82  THR82      -0.1203
    109  CA        15.3510  -61.8080  -16.2970 C.3    82  THR82       0.1994
    110  C         16.3780  -61.1180  -17.2170 C.2    82  THR82       0.2618
    111  O         15.9900  -60.3610  -18.0940 O.2    82  THR82      -0.2717
    112  CB        15.3240  -63.3380  -16.7300 C.3    82  THR82       0.1784
    113  OG1       15.1500  -63.3870  -18.1440 O.3    82  THR82      -0.2211
    114  CG2       14.1470  -64.0850  -15.9960 C.3    82  THR82       0.0376
    115  N         17.6660  -61.4520  -17.0740 N.am   83  GLU83      -0.1965
    116  CA        18.6730  -61.0490  -18.0460 C.3    83  GLU83       0.1733
    117  C         18.2970  -61.6100  -19.4550 C.2    83  GLU83       0.2616
    118  O         17.5000  -62.5690  -19.5990 O.2    83  GLU83      -0.2715
    119  CB        20.0370  -61.5860  -17.5870 C.3    83  GLU83       0.0429
    120  CG        19.9650  -63.1460  -17.5570 C.3    83  GLU83       0.1163
    121  CD        21.2510  -63.7450  -17.0360 C.2    83  GLU83       0.3649
    122  OE1       21.1690  -64.7610  -16.3640 O.co2  83  GLU83      -0.2457
    123  OE2       22.3470  -63.1630  -17.2490 O.co2  83  GLU83      -0.2457
    124  N         18.8240  -60.9510  -20.4660 N.am   84  PHE84      -0.1960
    125  CA        18.7100  -61.3460  -21.8320 C.3    84  PHE84       0.1771
    126  C         20.0710  -61.9800  -22.1910 C.2    84  PHE84       0.2619
    127  O         21.1390  -61.4060  -21.8770 O.2    84  PHE84      -0.2715
    128  CB        18.4730  -60.1140  -22.6840 C.3    84  PHE84       0.0574
    129  CG        18.3720  -60.4080  -24.1390 C.ar   84  PHE84      -0.0200
    130  CD1       17.1370  -60.7240  -24.7120 C.ar   84  PHE84      -0.0042
    131  CD2       19.5120  -60.3220  -24.9590 C.ar   84  PHE84      -0.0042
    132  CE1       17.0460  -61.0260  -26.1100 C.ar   84  PHE84      -0.0003
    133  CE2       19.4330  -60.5950  -26.3180 C.ar   84  PHE84      -0.0003
    134  CZ        18.2010  -60.9660  -26.8990 C.ar   84  PHE84      -0.0000
    135  N         20.0250  -63.1640  -22.8070 N.am   85  MET85      -0.1977
    136  CA        21.2940  -63.8860  -23.1190 C.3    85  MET85       0.1605
    137  C         21.5960  -63.7580  -24.6070 C.2    85  MET85       0.2287
    138  O         20.8080  -64.1910  -25.4390 O.2    85  MET85      -0.2864
    139  CB        21.1910  -65.3400  -22.6890 C.3    85  MET85       0.0413
    140  CG        21.0500  -65.5660  -21.1620 C.3    85  MET85       0.0598
    141  SD        22.5720  -65.3410  -20.3280 S.3    85  MET85      -0.1393
    142  CE        23.3790  -66.9090  -20.6100 C.3    85  MET85       0.0692
    143  N         20.9650  -66.5290  -27.4110 N.3    88  GLY88      -0.1225
    144  CA        19.6830  -67.2400  -27.5890 C.3    88  GLY88       0.1811
    145  C         19.7580  -68.6740  -27.0810 C.2    88  GLY88       0.2280
    146  O         20.6640  -69.0030  -26.2690 O.2    88  GLY88      -0.2866
    147  N         20.1280  -77.2120   -8.1340 N.3   121  LEU121     -0.1245
    148  CA        18.7130  -77.5740   -7.9550 C.3   121  LEU121      0.1561
    149  C         18.5650  -78.8150   -7.0940 C.2   121  LEU121      0.2260
    150  O         17.7170  -78.8440   -6.2140 O.2   121  LEU121     -0.2867
    151  CB        17.9160  -77.7870   -9.2920 C.3   121  LEU121      0.0270
    152  CG        17.9080  -76.4750  -10.1120 C.3   121  LEU121      0.0019
    153  CD1       17.2430  -76.6790  -11.5230 C.3   121  LEU121      0.0001
    154  CD2       17.2420  -75.3230   -9.3250 C.3   121  LEU121      0.0001
    155  N         14.8260  -78.9570   -5.5670 N.3   126  PHE126     -0.1227
    156  CA        13.9540  -78.6150   -6.6570 C.3   126  PHE126      0.1736
    157  C         14.1440  -79.6820   -7.7720 C.2   126  PHE126      0.2595
    158  O         15.1750  -80.3770   -7.8180 O.2   126  PHE126     -0.2718
    159  CB        14.3450  -77.2500   -7.2850 C.3   126  PHE126      0.0547
    160  CG        13.9260  -76.0830   -6.4680 C.ar  126  PHE126     -0.0202
    161  CD1       14.8770  -75.3460   -5.7470 C.ar  126  PHE126     -0.0042
    162  CD2       12.5750  -75.6910   -6.4080 C.ar  126  PHE126     -0.0042
    163  CE1       14.4840  -74.2430   -4.9340 C.ar  126  PHE126     -0.0003
    164  CE2       12.1710  -74.5910   -5.5740 C.ar  126  PHE126     -0.0003
    165  CZ        13.1420  -73.8720   -4.8610 C.ar  126  PHE126     -0.0000
    166  N         13.1770  -79.7360   -8.6710 N.am  127  ILE127     -0.1966
    167  CA        13.2220  -80.6120   -9.8880 C.3   127  ILE127      0.1727
    168  C         12.9810  -79.6740  -11.0250 C.2   127  ILE127      0.2616
    169  O         12.1710  -78.7200  -10.8910 O.2   127  ILE127     -0.2715
    170  CB        12.0800  -81.6560   -9.8180 C.3   127  ILE127      0.0290
    171  CG1       12.3500  -82.5770   -8.6310 C.3   127  ILE127      0.0022
    172  CG2       12.0180  -82.5130  -11.0180 C.3   127  ILE127      0.0023
    173  CD1       11.9670  -81.9820   -7.4200 C.3   127  ILE127      0.0001
    174  N         13.6270  -79.9340  -12.1520 N.am  128  HIS128     -0.1959
    175  CA        13.4480  -79.0250  -13.2510 C.3   128  HIS128      0.1787
    176  C         12.1690  -79.4450  -13.9710 C.2   128  HIS128      0.2620
    177  O         11.2780  -78.6220  -14.1810 O.2   128  HIS128     -0.2715
    178  CB        14.6370  -79.1090  -14.1770 C.3   128  HIS128      0.0785
    179  CG        14.5820  -78.1230  -15.3010 C.ar  128  HIS128      0.0821
    180  ND1       13.7520  -78.2710  -16.3850 N.ar  128  HIS128     -0.2267
    181  CD2       15.1970  -76.9290  -15.4600 C.ar  128  HIS128      0.1154
    182  CE1       13.9130  -77.2400  -17.2050 C.ar  128  HIS128      0.1986
    183  NE2       14.7940  -76.4220  -16.6690 N.ar  128  HIS128     -0.2212
    184  N         12.1250  -80.7110  -14.3720 N.am  129  ARG129     -0.1977
    185  CA        10.9920  -81.3740  -15.0990 C.3   129  ARG129      0.1597
    186  C         11.0220  -81.2970  -16.6030 C.2   129  ARG129      0.2287
    187  O         10.3160  -82.0640  -17.2760 O.2   129  ARG129     -0.2864
    188  CB         9.5860  -80.9480  -14.6100 C.3   129  ARG129      0.0334
    189  CG         9.1850  -81.5260  -13.2640 C.3   129  ARG129      0.0492
    190  CD         7.6460  -81.4300  -13.1090 C.3   129  ARG129      0.2205
    191  NE         7.3820  -81.5300  -11.6750 N.pl3 129  ARG129     -0.0865
    192  CZ         6.5880  -82.4380  -11.1150 C.cat 129  ARG129      0.5346
    193  NH1        5.9020  -83.2840  -11.8850 N.pl3 129  ARG129      0.1354
    194  NH2        6.4570  -82.4620   -9.7850 N.pl3 129  ARG129      0.1354
    195  N         20.2420  -71.3310  -22.4240 N.3   137  LEU137     -0.1245
    196  CA        20.5950  -70.1050  -23.0860 C.3   137  LEU137      0.1561
    197  C         22.0930  -69.9120  -23.1120 C.2   137  LEU137      0.2260
    198  O         22.8340  -70.4670  -22.2750 O.2   137  LEU137     -0.2867
    199  CB        19.9910  -68.9120  -22.2870 C.3   137  LEU137      0.0270
    200  CG        18.4700  -68.8020  -22.3510 C.3   137  LEU137      0.0019
    201  CD1       17.9150  -67.7690  -21.3360 C.3   137  LEU137      0.0001
    202  CD2       17.9810  -68.3840  -23.7860 C.3   137  LEU137      0.0001
    203  N         20.8100  -72.5470  -17.5360 N.3   146  VAL146     -0.1231
    204  CA        19.6010  -73.4310  -17.5850 C.3   146  VAL146      0.1692
    205  C         18.4010  -72.5210  -17.2920 C.2   146  VAL146      0.2592
    206  O         18.4770  -71.6600  -16.4140 O.2   146  VAL146     -0.2718
    207  CB        19.7280  -74.5190  -16.4430 C.3   146  VAL146      0.0266
    208  CG1       18.3840  -75.2930  -16.3010 C.3   146  VAL146      0.0020
    209  CG2       20.7670  -75.5110  -16.8200 C.3   146  VAL146      0.0020
    210  N         17.3280  -72.6850  -18.0440 N.am  147  ALA147     -0.1966
    211  CA        16.1320  -71.9270  -17.8670 C.3   147  ALA147      0.1728
    212  C         14.9310  -72.9220  -17.9130 C.2   147  ALA147      0.2616
    213  O         15.1210  -74.1470  -18.0130 O.2   147  ALA147     -0.2715
    214  CB        16.0180  -70.9090  -18.9690 C.3   147  ALA147      0.0334
    215  N         13.7000  -72.3890  -17.8470 N.am  148  ASP148     -0.1957
    216  CA        12.4680  -73.2060  -18.0500 C.3   148  ASP148      0.1840
    217  C         11.4560  -72.2920  -18.6740 C.2   148  ASP148      0.2622
    218  O         10.8850  -71.4240  -17.9740 O.2   148  ASP148     -0.2715
    219  CB        11.8820  -73.6960  -16.7650 C.3   148  ASP148      0.1450
    220  CG        10.6670  -74.6610  -16.9920 C.2   148  ASP148      0.3671
    221  OD1       10.2010  -74.8710  -18.1230 O.co2 148  ASP148     -0.2456
    222  OD2       10.1690  -75.1340  -15.9770 O.co2 148  ASP148     -0.2456
    223  N         11.2860  -72.4170  -19.9830 N.am  149  PHE149     -0.1974
    224  CA        10.4280  -71.4890  -20.7170 C.3   149  PHE149      0.1639
    225  C          8.9440  -71.9320  -20.7880 C.2   149  PHE149      0.2290
    226  O          8.0930  -71.2570  -21.4320 O.2   149  PHE149     -0.2864
    227  CB        10.9750  -71.3520  -22.1080 C.3   149  PHE149      0.0560
    228  CG        12.3940  -70.8790  -22.1500 C.ar  149  PHE149     -0.0200
    229  CD1       13.3220  -71.4550  -23.0410 C.ar  149  PHE149     -0.0042
    230  CD2       12.7930  -69.8630  -21.3200 C.ar  149  PHE149     -0.0042
    231  CE1       14.6570  -70.9740  -23.1210 C.ar  149  PHE149     -0.0003
    232  CE2       14.1380  -69.3920  -21.3430 C.ar  149  PHE149     -0.0003
    233  CZ        15.0470  -69.9190  -22.2660 C.ar  149  PHE149     -0.0000
@<TRIPOS>BOND
     1    12    11    2
     2    11    10    1
     3    10     9    1
     4     9     3   am
     5     3     4    2
     6     3     2    1
     7     2     1    1
     8     2     5    1
     9    13    14    1
    10   144   143    1
    11   144   145    1
    12    21    19   ar
    13    21    23   ar
    14     7     6    1
    15    24    23    1
    16   145   146    2
    17   134   133   ar
    18   134   132   ar
    19     5     6    1
    20    19    18   ar
    21    23    22   ar
    22     6     8    1
    23   133   131   ar
    24    14    15    1
    25    14    17    1
    26   132   130   ar
    27    18    17    1
    28    18    20   ar
    29    22    20   ar
    30    28    27    2
    31    15    16    2
    32   138   137    2
    33   131   129   ar
    34   130   129   ar
    35   137   136    1
    36    27    26    1
    37    25    26    1
    38   129   128    1
    39   202   200    1
    40    26    29    1
    41    29    30    1
    42    29    31    1
    43   231   229   ar
    44   231   233   ar
    45   136   135    1
    46   136   139    1
    47   197   196    1
    48   197   198    2
    49   196   195    1
    50   196   199    1
    51   229   228   ar
    52   135   126   am
    53   139   140    1
    54   128   125    1
    55   200   199    1
    56   200   201    1
    57   233   232   ar
    58   126   127    2
    59   126   125    1
    60   228   227    1
    61   228   230   ar
    62   227   224    1
    63   125   124    1
    64    36    33    1
    65   226   225    2
    66    40    39    2
    67   232   230   ar
    68    33    32    1
    69    33    34    1
    70   140   141    1
    71   225   224    1
    72    37    34   am
    73    37    38    1
    74   224   223    1
    75   142   141    1
    76   124   117   am
    77    34    35    2
    78    39    38    1
    79    39    44   am
    80    41    43    1
    81    41    38    1
    82    41    42    1
    83   223   217   am
    84   118   117    2
    85    45    44    1
    86    45    46    1
    87    45    48    1
    88   117   116    1
    89    49    48    1
    90    49    50    1
    91    46    47    2
    92   214   211    1
    93   217   216    1
    94   217   218    2
    95    51    50    1
    96    51    52    1
    97   113   112    1
    98   221   220   ar
    99   111   110    2
   100   216   215    1
   101   216   219    1
   102   116   119    1
   103   116   115    1
   104   210   211    1
   105   210   205   am
   106   213   212    2
   107   212   211    1
   108   212   215   am
   109   119   120    1
   110   204   203    1
   111   204   205    1
   112   204   207    1
   113   120   121    1
   114    99    97    1
   115   205   206    2
   116   187   186    2
   117   123   121   ar
   118   110   115   am
   119   110   109    1
   120   182   183   ar
   121   182   180   ar
   122   121   122   ar
   123   220   219    1
   124   220   222   ar
   125   209   207    1
   126   103   102    2
   127    97    98    1
   128    97    94    1
   129   112   109    1
   130   112   114    1
   131   183   181   ar
   132   186   185    1
   133   108   109    1
   134   207   208    1
   135   180   179   ar
   136    94    93    1
   137    94    95    1
   138   102   101    1
   139   181   179   ar
   140    61    59   ar
   141   100   101    1
   142   179   178    1
   143    60    59   ar
   144    93    87   am
   145   185   188    1
   146   185   184    1
   147    59    58    1
   148   101   104    1
   149   188   189    1
   150   104   106    1
   151   104   105    1
   152    95    96    2
   153   184   176   am
   154    87    86    1
   155    87    88    2
   156   177   176    2
   157   178   175    1
   158   176   175    1
   159    86    85    1
   160    86    89    1
   161   107   105    1
   162    76    75    1
   163   189   190    1
   164    58    57    1
   165   175   174    1
   166   190   191    1
   167    92    90    1
   168    75    74    1
   169    57    54    1
   170    89    90    1
   171   174   168   am
   172    90    91    1
   173   193   192    1
   174   191   192    2
   175    74    73    1
   176   153   152    1
   177   192   194    1
   178    54    55    1
   179    54    53    1
   180   168   169    2
   181   168   167    1
   182   172   170    1
   183    55    56    2
   184    73    70    1
   185   152   154    1
   186   152   151    1
   187   167   170    1
   188   167   166    1
   189   170   171    1
   190    84    82    1
   191   151   148    1
   192    70    69    1
   193    70    71    1
   194    82    81    1
   195   166   157   am
   196    67    66    1
   197   171   173    1
   198    69    64   am
   199   147   148    1
   200    72    71    2
   201    66    68    1
   202    66    63    1
   203   148   149    1
   204    80    79    2
   205    81    83    1
   206    81    78    1
   207   158   157    2
   208   157   156    1
   209    64    65    2
   210    64    63    1
   211    79    78    1
   212   159   156    1
   213   159   160    1
   214   149   150    2
   215    63    62    1
   216    78    77    1
   217   156   155    1
   218   160   162   ar
   219   160   161   ar
   220   162   164   ar
   221   161   163   ar
   222   164   165   ar
   223   163   165   ar
