@<TRIPOS>MOLECULE
tmp/3mt9A00.pdb
 144 144 0 0 0
SMALL
GASTEIGER

@<TRIPOS>ATOM
      1  N         10.0370   14.1060   49.5910 N.3    46  HIS46      -0.1241
      2  CA        10.2420   13.0590   50.5750 C.3    46  HIS46       0.1621
      3  C          9.5080   11.7810   50.2060 C.2    46  HIS46       0.2264
      4  O         10.0300   10.7010   50.4160 O.2    46  HIS46      -0.2867
      5  CB         9.8280   13.5310   51.9780 C.3    46  HIS46       0.0745
      6  CG        10.8730   14.3680   52.6420 C.ar   46  HIS46       0.0817
      7  ND1       11.0290   15.7090   52.3720 N.ar   46  HIS46      -0.2268
      8  CD2       11.8320   14.0490   53.5420 C.ar   46  HIS46       0.1154
      9  CE1       12.0400   16.1840   53.0790 C.ar   46  HIS46       0.1986
     10  NE2       12.5430   15.1970   53.7970 N.ar   46  HIS46      -0.2212
     11  N         11.5400   10.3370   47.2730 N.3    49  ARG49      -0.1231
     12  CA        12.8420    9.8640   47.7120 C.3    49  ARG49       0.1694
     13  C         12.7510    8.5550   48.4950 C.2    49  ARG49       0.2592
     14  O         13.6830    7.7670   48.4650 O.2    49  ARG49      -0.2718
     15  CB        13.5790   10.9300   48.5210 C.3    49  ARG49       0.0321
     16  CG        13.4830   10.7470   50.0170 C.3    49  ARG49       0.0489
     17  CD        14.1960   11.8680   50.7510 C.3    49  ARG49       0.2205
     18  NE        14.1780   11.6340   52.1880 N.pl3  49  ARG49      -0.0865
     19  CZ        14.7950   12.4090   53.0750 C.cat  49  ARG49       0.5346
     20  NH1       15.4950   13.4710   52.6690 N.pl3  49  ARG49       0.1354
     21  NH2       14.7260   12.1130   54.3660 N.pl3  49  ARG49       0.1354
     22  N         11.6390    8.3300   49.2000 N.am   50  ASP50      -0.1974
     23  CA        11.4420    7.0680   49.9240 C.3    50  ASP50       0.1709
     24  C         11.5880    5.8480   49.0030 C.2    50  ASP50       0.2293
     25  O         12.1050    4.8110   49.4220 O.2    50  ASP50      -0.2864
     26  CB        10.0720    7.0300   50.6210 C.3    50  ASP50       0.1436
     27  CG        10.0590    7.7870   51.9380 C.2    50  ASP50       0.3671
     28  OD1        8.9540    8.0690   52.4220 O.co2  50  ASP50      -0.2456
     29  OD2       11.1400    8.1020   52.4860 O.co2  50  ASP50      -0.2456
     30  N         13.6040    5.5040   46.5140 N.3    52  LEU52      -0.1231
     31  CA        14.9970    5.2970   46.1280 C.3    52  LEU52       0.1693
     32  C         15.7590    4.4650   47.1300 C.2    52  LEU52       0.2591
     33  O         16.7250    3.7760   46.7790 O.2    52  LEU52      -0.2718
     34  CB        15.7080    6.6440   45.9750 C.3    52  LEU52       0.0284
     35  CG        15.4590    7.4410   44.7060 C.3    52  LEU52       0.0019
     36  CD1       16.0780    8.8400   44.8280 C.3    52  LEU52       0.0001
     37  CD2       16.0010    6.7060   43.4930 C.3    52  LEU52       0.0001
     38  N         15.3380    4.5400   48.3900 N.am   53  VAL53      -0.1980
     39  CA        16.1580    4.0700   49.5060 C.3    53  VAL53       0.1595
     40  C         16.5200    2.5880   49.4350 C.2    53  VAL53       0.2287
     41  O         17.6940    2.2270   49.5420 O.2    53  VAL53      -0.2864
     42  CB        15.5050    4.4200   50.8780 C.3    53  VAL53       0.0276
     43  CG1       16.2120    3.7030   51.9980 C.3    53  VAL53       0.0022
     44  CG2       15.5430    5.9260   51.0980 C.3    53  VAL53       0.0022
     45  N         18.8670    1.9510   46.5620 N.3    56  TRP56      -0.1241
     46  CA        20.1620    2.5430   46.8650 C.3    56  TRP56       0.1605
     47  C         20.9930    1.6410   47.7760 C.2    56  TRP56       0.2264
     48  O         22.1580    1.3680   47.4890 O.2    56  TRP56      -0.2867
     49  CB        19.9500    3.9260   47.4930 C.3    56  TRP56       0.0550
     50  CG        21.1240    4.8610   47.4260 C.ar   56  TRP56       0.0003
     51  CD1       22.3000    4.6830   46.7350 C.ar   56  TRP56       0.0946
     52  CD2       21.2180    6.1430   48.0520 C.ar   56  TRP56       0.0152
     53  NE1       23.1170    5.7750   46.9080 N.ar   56  TRP56      -0.2442
     54  CE2       22.4780    6.6860   47.7110 C.ar   56  TRP56       0.0810
     55  CE3       20.3640    6.8810   48.8840 C.ar   56  TRP56       0.0012
     56  CZ2       22.9100    7.9310   48.1770 C.ar   56  TRP56       0.0191
     57  CZ3       20.7960    8.1340   49.3430 C.ar   56  TRP56       0.0001
     58  CH2       22.0630    8.6360   48.9890 C.ar   56  TRP56       0.0015
     59  N         30.6700   19.8880   47.6070 N.3   149  ARG149     -0.1245
     60  CA        29.3490   20.4110   47.9060 C.3   149  ARG149      0.1563
     61  C         29.4870   21.9030   48.1600 C.2   149  ARG149      0.2260
     62  O         29.6970   22.3270   49.3020 O.2   149  ARG149     -0.2867
     63  CB        28.7750   19.7200   49.1390 C.3   149  ARG149      0.0307
     64  CG        27.3610   20.1280   49.5070 C.3   149  ARG149      0.0489
     65  CD        27.0190   19.3740   50.7710 C.3   149  ARG149      0.2205
     66  NE        25.7060   19.6480   51.3410 N.pl3 149  ARG149     -0.0865
     67  CZ        25.4830   20.5370   52.3040 C.cat 149  ARG149      0.5346
     68  NH1       24.2640   20.6800   52.7970 N.pl3 149  ARG149      0.1354
     69  NH2       26.4840   21.2890   52.7670 N.pl3 149  ARG149      0.1354
     70  N         17.0800   23.5970   52.7520 N.3   175  GLY175     -0.1210
     71  CA        17.4630   22.2090   52.9720 C.3   175  GLY175      0.1956
     72  C         17.4010   21.4430   51.6610 C.2   175  GLY175      0.2612
     73  O         16.6700   21.8060   50.7500 O.2   175  GLY175     -0.2717
     74  N         18.1810   20.3810   51.5620 N.am  176  ASN176     -0.1960
     75  CA        18.2480   19.6060   50.3380 C.3   176  ASN176      0.1804
     76  C         17.7260   18.2000   50.6420 C.2   176  ASN176      0.2463
     77  O         18.3870   17.4420   51.3340 O.2   176  ASN176     -0.2730
     78  CB        19.7020   19.5940   49.8310 C.3   176  ASN176      0.1195
     79  CG        19.9030   18.7220   48.6000 C.2   176  ASN176      0.2630
     80  OD1       18.9430   18.2850   47.9620 O.2   176  ASN176     -0.2716
     81  ND2       21.1640   18.4740   48.2600 N.am  176  ASN176     -0.0877
     82  N         16.5270   17.8530   50.1350 N.am  177  PRO177     -0.2716
     83  CA        15.9890   16.5290   50.4430 C.3   177  PRO177      0.1536
     84  C         16.7350   15.3920   49.7420 C.2   177  PRO177      0.2599
     85  O         16.5420   14.2430   50.0960 O.2   177  PRO177     -0.2715
     86  CB        14.5300   16.6160   49.9530 C.3   177  PRO177      0.0310
     87  CG        14.5570   17.6270   48.8750 C.3   177  PRO177      0.0237
     88  CD        15.6270   18.6280   49.2600 C.3   177  PRO177      0.0939
     89  N         17.5900   15.7130   48.7740 N.am  178  TRP178     -0.1960
     90  CA        18.2680   14.6910   47.9710 C.3   178  TRP178      0.1771
     91  C         19.6670   14.3340   48.4480 C.2   178  TRP178      0.2620
     92  O         20.4130   13.6690   47.7280 O.2   178  TRP178     -0.2715
     93  CB        18.3290   15.1270   46.5050 C.3   178  TRP178      0.0590
     94  CG        17.0150   15.5740   46.0020 C.ar  178  TRP178      0.0006
     95  CD1       16.6370   16.8480   45.7140 C.ar  178  TRP178      0.0946
     96  CD2       15.8800   14.7470   45.7590 C.ar  178  TRP178      0.0152
     97  NE1       15.3310   16.8720   45.3010 N.ar  178  TRP178     -0.2442
     98  CE2       14.8430   15.5880   45.3120 C.ar  178  TRP178      0.0810
     99  CE3       15.6420   13.3690   45.8680 C.ar  178  TRP178      0.0012
    100  CZ2       13.5730   15.1020   44.9730 C.ar  178  TRP178      0.0191
    101  CZ3       14.3730   12.8790   45.5190 C.ar  178  TRP178      0.0001
    102  CH2       13.3660   13.7450   45.0790 C.ar  178  TRP178      0.0015
    103  N         20.0520   14.7820   49.6350 N.am  179  GLU179     -0.1963
    104  CA        21.3690   14.4200   50.1420 C.3   179  GLU179      0.1733
    105  C         21.2640   13.7330   51.4980 C.2   179  GLU179      0.2616
    106  O         20.3300   13.9830   52.2620 O.2   179  GLU179     -0.2715
    107  CB        22.2790   15.6550   50.2460 C.3   179  GLU179      0.0429
    108  CG        21.8050   16.6690   51.2740 C.3   179  GLU179      0.1163
    109  CD        22.6570   17.9230   51.3410 C.2   179  GLU179      0.3649
    110  OE1       22.5110   18.6410   52.3390 O.co2 179  GLU179     -0.2457
    111  OE2       23.4520   18.2030   50.4140 O.co2 179  GLU179     -0.2457
    112  N         22.2220   12.8600   51.7820 N.am  180  LYS180     -0.1963
    113  CA        22.3870   12.3320   53.1260 C.3   180  LYS180      0.1728
    114  C         23.8060   12.6180   53.6100 C.2   180  LYS180      0.2616
    115  O         24.7720   12.1040   53.0390 O.2   180  LYS180     -0.2715
    116  CB        22.1150   10.8170   53.1650 C.3   180  LYS180      0.0311
    117  CG        22.3320   10.1800   54.5430 C.3   180  LYS180      0.0038
    118  CD        21.2970   10.6880   55.5400 C.3   180  LYS180      0.0206
    119  CE        21.5160   10.1190   56.9470 C.3   180  LYS180      0.1093
    120  NZ        22.7150   10.6990   57.6010 N.3   180  LYS180     -0.1314
    121  N         23.9240   13.4240   54.6640 N.am  181  ALA181     -0.1977
    122  CA        25.2150   13.6510   55.3230 C.3   181  ALA181      0.1597
    123  C         25.7680   12.3240   55.8080 C.2   181  ALA181      0.2287
    124  O         25.0160   11.4910   56.3290 O.2   181  ALA181     -0.2864
    125  CB        25.0590   14.6200   56.4940 C.3   181  ALA181      0.0319
    126  N         28.6840   14.1220   51.6500 N.3   215  TYR215     -0.1241
    127  CA        27.2260   14.0950   51.5120 C.3   215  TYR215      0.1605
    128  C         26.8890   13.2540   50.2920 C.2   215  TYR215      0.2264
    129  O         27.3900   13.5290   49.1930 O.2   215  TYR215     -0.2867
    130  CB        26.6820   15.5060   51.2780 C.3   215  TYR215      0.0534
    131  CG        26.6670   16.3940   52.5040 C.ar  215  TYR215     -0.0201
    132  CD1       27.8480   16.9510   53.0040 C.ar  215  TYR215     -0.0009
    133  CD2       25.4660   16.6830   53.1580 C.ar  215  TYR215     -0.0009
    134  CE1       27.8340   17.7680   54.1350 C.ar  215  TYR215      0.0417
    135  CE2       25.4400   17.4950   54.2710 C.ar  215  TYR215      0.0417
    136  CZ        26.6330   18.0340   54.7570 C.ar  215  TYR215      0.1957
    137  OH        26.6130   18.8470   55.8550 O.3   215  TYR215     -0.2866
    138  N         21.7520   10.1890   45.6290 N.3   218  PRO218     -0.2116
    139  CA        21.5140    9.0200   44.7930 C.3   218  PRO218      0.1372
    140  C         21.4650    9.3950   43.3180 C.2   218  PRO218      0.2244
    141  O         21.0030   10.4800   42.9700 O.2   218  PRO218     -0.2868
    142  CB        20.1260    8.5450   45.2500 C.3   218  PRO218      0.0268
    143  CG        19.4480    9.7800   45.6470 C.3   218  PRO218      0.0207
    144  CD        20.5140   10.6280   46.3010 C.3   218  PRO218      0.0892
@<TRIPOS>BOND
     1   141   140    2
     2   140   139    1
     3    37    35    1
     4    35    36    1
     5    35    34    1
     6   139   142    1
     7   139   138    1
     8   100   102   ar
     9   100    98   ar
    10   102   101   ar
    11   142   143    1
    12    97    98   ar
    13    97    95   ar
    14    98    96   ar
    15   101    99   ar
    16   138   144    1
    17   143   144    1
    18    95    94   ar
    19    96    99   ar
    20    96    94   ar
    21    34    31    1
    22    94    93    1
    23    31    30    1
    24    31    32    1
    25    93    90    1
    26    45    46    1
    27    51    53   ar
    28    51    50   ar
    29    33    32    2
    30    46    49    1
    31    46    47    1
    32    53    54   ar
    33    32    38   am
    34    11    12    1
    35    50    49    1
    36    50    52   ar
    37    48    47    2
    38    59    60    1
    39    54    52   ar
    40    54    56   ar
    41    12    13    1
    42    12    15    1
    43    92    91    2
    44    60    61    1
    45    60    63    1
    46    80    79    2
    47    90    91    1
    48    90    89    1
    49    52    55   ar
    50    61    62    2
    51    56    58   ar
    52    81    79   am
    53    38    39    1
    54    91   103   am
    55    14    13    2
    56    13    22   am
    57    15    16    1
    58    79    78    1
    59    89    84   am
    60    87    88    1
    61    87    86    1
    62    55    57   ar
    63    58    57   ar
    64    24    25    2
    65    24    23    1
    66    63    64    1
    67   129   128    2
    68    22    23    1
    69    88    82    1
    70    40    39    1
    71    40    41    2
    72    39    42    1
    73    64    65    1
    74     1     2    1
    75   103   104    1
    76    84    85    2
    77    84    83    1
    78    78    75    1
    79    23    26    1
    80    86    83    1
    81    16    17    1
    82    82    83    1
    83    82    76   am
    84   104   107    1
    85   104   105    1
    86     3     4    2
    87     3     2    1
    88   107   108    1
    89   128   127    1
    90    75    76    1
    91    75    74    1
    92   111   109   ar
    93     2     5    1
    94    26    27    1
    95    76    77    2
    96    73    72    2
    97    17    18    1
    98    65    66    1
    99    42    44    1
   100    42    43    1
   101   108   109    1
   102   130   127    1
   103   130   131    1
   104   109   110   ar
   105    66    67    2
   106   105   112   am
   107   105   106    2
   108   127   126    1
   109    74    72   am
   110    72    71    1
   111   112   113    1
   112    27    28   ar
   113    27    29   ar
   114     5     6    1
   115    18    19    2
   116    67    69    1
   117    67    68    1
   118     7     6   ar
   119     7     9   ar
   120   131   132   ar
   121   131   133   ar
   122     6     8   ar
   123    20    19    1
   124    70    71    1
   125   132   134   ar
   126   115   114    2
   127    19    21    1
   128     9    10   ar
   129   113   116    1
   130   113   114    1
   131   133   135   ar
   132   116   117    1
   133     8    10   ar
   134   114   121   am
   135   134   136   ar
   136   135   136   ar
   137   117   118    1
   138   121   122    1
   139   136   137    1
   140   122   123    1
   141   122   125    1
   142   118   119    1
   143   123   124    2
   144   119   120    1
