@<TRIPOS>MOLECULE
tmp/3mt9A01.pdb
 235 226 0 0 0
SMALL
GASTEIGER

@<TRIPOS>ATOM
      1  N         32.8820   20.0680   39.1350 N.3    77  GLU77      -0.1245
      2  CA        31.5740   20.5390   38.7230 C.3    77  GLU77       0.1567
      3  C         30.6220   19.3870   38.4290 C.2    77  GLU77       0.2260
      4  O         30.9650   18.4550   37.6900 O.2    77  GLU77      -0.2867
      5  CB        31.6740   21.4730   37.5050 C.3    77  GLU77       0.0388
      6  CG        32.4480   22.7690   37.7850 C.3    77  GLU77       0.1160
      7  CD        32.4140   23.7300   36.6200 C.2    77  GLU77       0.3649
      8  OE1       33.3280   24.5690   36.5340 O.co2  77  GLU77      -0.2457
      9  OE2       31.4840   23.6460   35.7800 O.co2  77  GLU77      -0.2457
     10  N         29.3400   25.3860   35.8450 N.3   122  ASN122     -0.1225
     11  CA        29.2930   26.5900   35.0350 C.3   122  ASN122      0.1785
     12  C         28.5080   26.4420   33.7410 C.2   122  ASN122      0.2598
     13  O         27.7900   27.3550   33.3330 O.2   122  ASN122     -0.2718
     14  CB        30.7170   27.0280   34.7080 C.3   122  ASN122      0.1169
     15  CG        31.3190   27.8280   35.8160 C.2   122  ASN122      0.2627
     16  OD1       30.9360   28.9840   36.0200 O.2   122  ASN122     -0.2716
     17  ND2       32.2340   27.2140   36.5800 N.am  122  ASN122     -0.0877
     18  N         28.6680   25.2970   33.0900 N.am  123  GLY123     -0.1942
     19  CA        28.1210   25.1060   31.7480 C.3   123  GLY123      0.2014
     20  C         28.3550   23.6940   31.2930 C.2   123  GLY123      0.2639
     21  O         28.0110   22.7540   32.0070 O.2   123  GLY123     -0.2714
     22  N         28.9730   23.5550   30.1230 N.am  124  GLY124     -0.1939
     23  CA        29.0480   22.2730   29.4310 C.3   124  GLY124      0.2014
     24  C         29.7970   21.1810   30.1690 C.2   124  GLY124      0.2638
     25  O         29.3650   20.0300   30.1960 O.2   124  GLY124     -0.2714
     26  N         30.9360   21.5380   30.7580 N.am  125  LEU125     -0.1977
     27  CA        31.7470   20.5670   31.4810 C.3   125  LEU125      0.1596
     28  C         30.9940   20.0220   32.7090 C.2   125  LEU125      0.2287
     29  O         30.9900   18.8060   32.9590 O.2   125  LEU125     -0.2864
     30  CB        33.1040   21.1900   31.8710 C.3   125  LEU125      0.0297
     31  CG        34.0530   20.4770   32.8370 C.3   125  LEU125      0.0022
     32  CD1       35.5080   20.9110   32.6150 C.3   125  LEU125      0.0001
     33  CD2       33.6400   20.7580   34.2790 C.3   125  LEU125      0.0001
     34  N         28.0180   17.9100   31.4880 N.3   128  LEU128     -0.1245
     35  CA        28.5520   16.6390   30.9790 C.3   128  LEU128      0.1561
     36  C         28.7140   15.6170   32.0900 C.2   128  LEU128      0.2260
     37  O         28.3080   14.4700   31.9380 O.2   128  LEU128     -0.2867
     38  CB        29.8860   16.8260   30.2470 C.3   128  LEU128      0.0270
     39  CG        30.3180   15.5600   29.4920 C.3   128  LEU128      0.0019
     40  CD1       29.4620   15.3450   28.2180 C.3   128  LEU128      0.0001
     41  CD2       31.7940   15.5800   29.1480 C.3   128  LEU128      0.0001
     42  N         33.7400   28.6550   41.7590 N.3   263  TYR263     -0.1241
     43  CA        34.3600   29.6240   40.8540 C.3   263  TYR263      0.1605
     44  C         33.5840   29.6720   39.5380 C.2   263  TYR263      0.2264
     45  O         33.4000   28.6320   38.8960 O.2   263  TYR263     -0.2867
     46  CB        35.8240   29.2780   40.6040 C.3   263  TYR263      0.0534
     47  CG        36.7200   29.8610   41.6580 C.ar  263  TYR263     -0.0201
     48  CD1       36.9460   29.1870   42.8560 C.ar  263  TYR263     -0.0009
     49  CD2       37.3060   31.1100   41.4740 C.ar  263  TYR263     -0.0009
     50  CE1       37.7670   29.7310   43.8420 C.ar  263  TYR263      0.0417
     51  CE2       38.1220   31.6640   42.4510 C.ar  263  TYR263      0.0417
     52  CZ        38.3440   30.9720   43.6310 C.ar  263  TYR263      0.1957
     53  OH        39.1420   31.5300   44.5990 O.3   263  TYR263     -0.2866
     54  N         34.0640   30.8310   36.4630 N.3   265  ASN265     -0.1225
     55  CA        34.7460   30.9420   35.1610 C.3   265  ASN265      0.1785
     56  C         34.4710   29.7690   34.2290 C.2   265  ASN265      0.2597
     57  O         34.6800   28.6130   34.5920 O.2   265  ASN265     -0.2718
     58  CB        36.2490   31.1000   35.3700 C.3   265  ASN265      0.1169
     59  CG        36.5670   32.2600   36.2760 C.2   265  ASN265      0.2627
     60  OD1       36.1280   33.3820   36.0260 O.2   265  ASN265     -0.2716
     61  ND2       37.3000   31.9960   37.3560 N.am  265  ASN265     -0.0877
     62  N         33.9730   30.0730   33.0410 N.am  266  ASP266     -0.1960
     63  CA        33.7850   29.0720   32.0150 C.3   266  ASP266      0.1840
     64  C         34.9660   29.2400   31.0600 C.2   266  ASP266      0.2622
     65  O         35.2520   30.3510   30.6120 O.2   266  ASP266     -0.2715
     66  CB        32.4560   29.3110   31.2910 C.3   266  ASP266      0.1450
     67  CG        32.0050   28.1050   30.4750 C.2   266  ASP266      0.3671
     68  OD1       31.3770   27.1800   31.0480 O.co2 266  ASP266     -0.2456
     69  OD2       32.2710   28.0890   29.2500 O.co2 266  ASP266     -0.2456
     70  N         35.6670   28.1460   30.7700 N.am  267  ASN267     -0.1958
     71  CA        36.8400   28.1900   29.8780 C.3   267  ASN267      0.1819
     72  C         37.7960   29.3590   30.1600 C.2   267  ASN267      0.2621
     73  O         38.1530   30.1050   29.2430 O.2   267  ASN267     -0.2715
     74  CB        36.4130   28.2360   28.4030 C.3   267  ASN267      0.1195
     75  CG        35.7590   26.9660   27.9470 C.2   267  ASN267      0.2630
     76  OD1       36.3600   26.1740   27.2300 O.2   267  ASN267     -0.2716
     77  ND2       34.5160   26.7590   28.3560 N.am  267  ASN267     -0.0877
     78  N         38.1900   29.5230   31.4240 N.am  268  PHE268     -0.1960
     79  CA        39.1860   30.5340   31.8030 C.3   268  PHE268      0.1771
     80  C         39.8900   30.1700   33.1190 C.2   268  PHE268      0.2620
     81  O         39.2410   29.7420   34.0790 O.2   268  PHE268     -0.2715
     82  CB        38.5610   31.9400   31.8630 C.3   268  PHE268      0.0574
     83  CG        39.5450   33.0310   32.1730 C.ar  268  PHE268     -0.0200
     84  CD1       40.4890   33.4280   31.2290 C.ar  268  PHE268     -0.0042
     85  CD2       39.5290   33.6680   33.4150 C.ar  268  PHE268     -0.0042
     86  CE1       41.4140   34.4380   31.5190 C.ar  268  PHE268     -0.0003
     87  CE2       40.4470   34.6860   33.7170 C.ar  268  PHE268     -0.0003
     88  CZ        41.3930   35.0680   32.7680 C.ar  268  PHE268     -0.0000
     89  N         41.2140   30.3440   33.1500 N.am  269  PHE269     -0.1960
     90  CA        42.0140   30.0090   34.3340 C.3   269  PHE269      0.1771
     91  C         42.3870   31.2410   35.1510 C.2   269  PHE269      0.2619
     92  O         42.9430   32.2000   34.6250 O.2   269  PHE269     -0.2715
     93  CB        43.2810   29.2190   33.9510 C.3   269  PHE269      0.0574
     94  CG        44.2420   29.0000   35.1020 C.ar  269  PHE269     -0.0200
     95  CD1       45.5020   29.5990   35.0980 C.ar  269  PHE269     -0.0042
     96  CD2       43.8860   28.2030   36.1870 C.ar  269  PHE269     -0.0042
     97  CE1       46.3960   29.4050   36.1550 C.ar  269  PHE269     -0.0003
     98  CE2       44.7780   27.9960   37.2520 C.ar  269  PHE269     -0.0003
     99  CZ        46.0310   28.5940   37.2290 C.ar  269  PHE269     -0.0000
    100  N         42.0800   31.1840   36.4440 N.am  270  GLU270     -0.1977
    101  CA        42.4560   32.2150   37.4070 C.3   270  GLU270      0.1602
    102  C         43.2680   31.5210   38.5060 C.2   270  GLU270      0.2287
    103  O         42.7490   30.6450   39.2200 O.2   270  GLU270     -0.2864
    104  CB        41.1820   32.8490   37.9820 C.3   270  GLU270      0.0415
    105  CG        41.3420   34.2310   38.6240 C.3   270  GLU270      0.1163
    106  CD        40.0640   34.6840   39.3500 C.2   270  GLU270      0.3649
    107  OE1       40.1570   35.5210   40.2790 O.co2 270  GLU270     -0.2457
    108  OE2       38.9650   34.1920   39.0000 O.co2 270  GLU270     -0.2457
    109  N         41.1370   28.4550   44.9080 N.3   275  ARG275     -0.1245
    110  CA        40.8120   27.4640   43.8830 C.3   275  ARG275      0.1563
    111  C         41.7260   26.2470   43.9780 C.2   275  ARG275      0.2260
    112  O         41.2820   25.0910   43.8530 O.2   275  ARG275     -0.2867
    113  CB        40.8950   28.0810   42.4880 C.3   275  ARG275      0.0307
    114  CG        40.8030   27.0770   41.3360 C.3   275  ARG275      0.0489
    115  CD        39.4090   26.4200   41.2470 C.3   275  ARG275      0.2205
    116  NE        39.3090   25.6850   39.9880 N.pl3 275  ARG275     -0.0865
    117  CZ        38.1850   25.2310   39.4400 C.cat 275  ARG275      0.5346
    118  NH1       37.0030   25.4230   40.0260 N.pl3 275  ARG275      0.1354
    119  NH2       38.2550   24.5890   38.2800 N.pl3 275  ARG275      0.1354
    120  N         38.8990   17.1640   33.0110 N.3   313  ASP313     -0.1239
    121  CA        39.8800   18.2250   32.7780 C.3   313  ASP313      0.1674
    122  C         41.0380   18.1210   33.7760 C.2   313  ASP313      0.2266
    123  O         41.1980   17.0980   34.4260 O.2   313  ASP313     -0.2867
    124  CB        39.2460   19.6240   32.7860 C.3   313  ASP313      0.1410
    125  CG        39.9330   20.5560   31.8060 C.2   313  ASP313      0.3668
    126  OD1       39.7030   20.4330   30.5830 O.co2 313  ASP313     -0.2456
    127  OD2       40.7630   21.3650   32.2490 O.co2 313  ASP313     -0.2456
    128  N         41.3940   19.9320   36.4400 N.3   315  HIS315     -0.1241
    129  CA        41.0280   20.4520   37.7570 C.3   315  HIS315      0.1621
    130  C         41.3760   19.4850   38.8930 C.2   315  HIS315      0.2264
    131  O         41.8310   19.9320   39.9330 O.2   315  HIS315     -0.2867
    132  CB        39.5660   20.9410   37.8190 C.3   315  HIS315      0.0745
    133  CG        39.1670   21.7680   36.6330 C.ar  315  HIS315      0.0817
    134  ND1       37.8940   21.7510   36.1050 N.ar  315  HIS315     -0.2268
    135  CD2       39.8890   22.6040   35.8480 C.ar  315  HIS315      0.1154
    136  CE1       37.8440   22.5600   35.0610 C.ar  315  HIS315      0.1986
    137  NE2       39.0420   23.0880   34.8830 N.ar  315  HIS315     -0.2212
    138  N         39.0160   19.2580   27.8070 N.3   351  HIS351     -0.1226
    139  CA        37.7770   19.9270   27.4030 C.3   351  HIS351      0.1752
    140  C         37.9560   21.2500   26.6440 C.2   351  HIS351      0.2596
    141  O         36.9620   21.8800   26.2820 O.2   351  HIS351     -0.2718
    142  CB        36.8780   20.1780   28.6150 C.3   351  HIS351      0.0759
    143  CG        36.3680   18.9320   29.2560 C.ar  351  HIS351      0.0818
    144  ND1       35.1670   18.3540   28.9060 N.ar  351  HIS351     -0.2268
    145  CD2       36.8920   18.1550   30.2290 C.ar  351  HIS351      0.1154
    146  CE1       34.9790   17.2650   29.6280 C.ar  351  HIS351      0.1986
    147  NE2       36.0090   17.1270   30.4450 N.ar  351  HIS351     -0.2212
    148  N         39.1970   21.6780   26.4060 N.am  352  THR352     -0.1953
    149  CA        39.4320   22.9330   25.6820 C.3   352  THR352      0.1897
    150  C         40.8450   23.0800   25.1350 C.2   352  THR352      0.2313
    151  O         41.7880   22.5240   25.6950 O.2   352  THR352     -0.2863
    152  CB        39.0990   24.1790   26.5480 C.3   352  THR352      0.1794
    153  OG1       39.2680   25.3690   25.7620 O.3   352  THR352     -0.2208
    154  CG2       39.9730   24.2360   27.7970 C.3   352  THR352      0.0378
    155  N         42.5360   29.1350   29.1570 N.3   357  ALA357     -0.1245
    156  CA        41.7740   28.2000   29.9870 C.3   357  ALA357      0.1562
    157  C         42.6530   27.1180   30.6280 C.2   357  ALA357      0.2260
    158  O         42.2030   26.3920   31.5200 O.2   357  ALA357     -0.2867
    159  CB        40.6480   27.5610   29.1710 C.3   357  ALA357      0.0290
    160  N         45.3410   25.3190   32.9270 N.3   359  GLU359     -0.1245
    161  CA        45.8090   25.5280   34.2840 C.3   359  GLU359      0.1567
    162  C         47.3270   25.4620   34.3190 C.2   359  GLU359      0.2260
    163  O         47.9170   24.4350   34.0040 O.2   359  GLU359     -0.2867
    164  CB        45.2270   24.4850   35.2380 C.3   359  GLU359      0.0388
    165  CG        43.7150   24.5830   35.4400 C.3   359  GLU359      0.1160
    166  CD        43.2720   23.7830   36.6360 C.2   359  GLU359      0.3649
    167  OE1       43.3320   22.5370   36.5800 O.co2 359  GLU359     -0.2457
    168  OE2       42.9020   24.4020   37.6460 O.co2 359  GLU359     -0.2457
    169  N         36.9030   15.4360   23.1780 N.3   429  VAL429     -0.1245
    170  CA        35.4570   15.2560   23.4080 C.3   429  VAL429      0.1561
    171  C         34.6050   15.3490   22.1340 C.2   429  VAL429      0.2260
    172  O         33.3740   15.3790   22.1940 O.2   429  VAL429     -0.2867
    173  CB        34.9630   16.2210   24.5070 C.3   429  VAL429      0.0252
    174  CG1       35.5630   15.8160   25.8590 C.3   429  VAL429      0.0019
    175  CG2       35.3210   17.6750   24.1780 C.3   429  VAL429      0.0019
    176  N         31.3150   13.6180   22.9820 N.3   458  ASN458     -0.1240
    177  CA        30.3310   13.9150   24.0280 C.3   458  ASN458      0.1653
    178  C         28.9250   13.4510   23.6620 C.2   458  ASN458      0.2266
    179  O         28.6360   13.1360   22.5040 O.2   458  ASN458     -0.2867
    180  CB        30.3140   15.4220   24.3440 C.3   458  ASN458      0.1155
    181  CG        31.4580   15.8450   25.2690 C.2   458  ASN458      0.2627
    182  OD1       31.7180   17.0450   25.4530 O.2   458  ASN458     -0.2716
    183  ND2       32.1450   14.8720   25.8450 N.am  458  ASN458     -0.0877
    184  N         34.5180   33.5180   21.9740 N.3   547  TYR547     -0.1227
    185  CA        34.6520   32.4270   21.0040 C.3   547  TYR547      0.1736
    186  C         33.3110   31.8750   20.5170 C.2   547  TYR547      0.2595
    187  O         33.2300   31.3690   19.3960 O.2   547  TYR547     -0.2718
    188  CB        35.5980   31.3190   21.4870 C.3   547  TYR547      0.0548
    189  CG        35.0000   30.2220   22.3310 C.ar  547  TYR547     -0.0200
    190  CD1       34.4420   29.0900   21.7440 C.ar  547  TYR547     -0.0009
    191  CD2       35.0520   30.2820   23.7250 C.ar  547  TYR547     -0.0009
    192  CE1       33.9220   28.0680   22.5160 C.ar  547  TYR547      0.0417
    193  CE2       34.5270   29.2640   24.5070 C.ar  547  TYR547      0.0417
    194  CZ        33.9720   28.1630   23.9000 C.ar  547  TYR547      0.1957
    195  OH        33.4420   27.1490   24.6710 O.3   547  TYR547     -0.2866
    196  N         32.2770   31.9830   21.3510 N.am  548  LYS548     -0.1980
    197  CA        30.9500   31.4610   21.0180 C.3   548  LYS548      0.1596
    198  C         30.1870   32.4120   20.0780 C.2   548  LYS548      0.2287
    199  O         29.1430   32.0580   19.5390 O.2   548  LYS548     -0.2864
    200  CB        30.1470   31.1680   22.2900 C.3   548  LYS548      0.0298
    201  CG        30.6510   29.9560   23.0740 C.3   548  LYS548      0.0038
    202  CD        30.0720   29.9090   24.4940 C.3   548  LYS548      0.0206
    203  CE        30.5730   28.7170   25.3170 C.3   548  LYS548      0.1093
    204  NZ        30.1200   27.3760   24.7650 N.3   548  LYS548     -0.1314
    205  N         35.2520   25.5860   19.8540 N.3   646  GLU646     -0.1231
    206  CA        34.3290   24.8220   20.7010 C.3   646  GLU646      0.1699
    207  C         34.7280   23.3490   20.6480 C.2   646  GLU646      0.2592
    208  O         34.5070   22.7010   19.6410 O.2   646  GLU646     -0.2718
    209  CB        32.8750   25.0020   20.2390 C.3   646  GLU646      0.0402
    210  CG        31.8360   24.4640   21.2260 C.3   646  GLU646      0.1161
    211  CD        31.6700   25.3720   22.4190 C.2   646  GLU646      0.3649
    212  OE1       32.3160   25.1150   23.4460 O.co2 646  GLU646     -0.2457
    213  OE2       30.9300   26.3720   22.3220 O.co2 646  GLU646     -0.2457
    214  N         35.3290   22.8240   21.7200 N.am  647  ALA647     -0.1966
    215  CA        35.8380   21.4410   21.7050 C.3   647  ALA647      0.1728
    216  C         34.7770   20.4420   21.2300 C.2   647  ALA647      0.2617
    217  O         35.0330   19.6220   20.3440 O.2   647  ALA647     -0.2715
    218  CB        36.3970   21.0390   23.0740 C.3   647  ALA647      0.0334
    219  N         33.5780   20.5390   21.7930 N.am  648  SER648     -0.1936
    220  CA        32.4940   19.6770   21.3730 C.3   648  SER648      0.2055
    221  C         31.2040   20.4630   21.2820 C.2   648  SER648      0.2644
    222  O         30.6060   20.5490   20.2050 O.2   648  SER648     -0.2714
    223  CB        32.3350   18.4880   22.3280 C.3   648  SER648      0.2130
    224  OG        31.1180   17.8050   22.1000 O.3   648  SER648     -0.2179
    225  N         30.8050   21.0660   22.4040 N.am  649  GLY649     -0.1939
    226  CA        29.4500   21.5810   22.5740 C.3   649  GLY649      0.2014
    227  C         28.5470   20.4250   22.9840 C.2   649  GLY649      0.2639
    228  O         28.8120   19.2740   22.6370 O.2   649  GLY649     -0.2714
    229  N         27.5070   20.7150   23.7580 N.am  650  THR650     -0.1950
    230  CA        26.5050   19.7040   24.0910 C.3   650  THR650      0.1897
    231  C         25.1160   20.2870   23.9380 C.2   650  THR650      0.2313
    232  O         24.1540   19.5540   23.7070 O.2   650  THR650     -0.2863
    233  CB        26.6590   19.1500   25.5190 C.3   650  THR650      0.1794
    234  OG1       26.7220   20.2440   26.4310 O.3   650  THR650     -0.2208
    235  CG2       27.9210   18.2950   25.6430 C.3   650  THR650      0.0378
@<TRIPOS>BOND
     1   187   186    2
     2   199   198    2
     3   208   207    2
     4   205   206    1
     5   198   197    1
     6   222   221    2
     7   209   206    1
     8   209   210    1
     9   217   216    2
    10   186   185    1
    11   186   196   am
    12   207   206    1
    13   207   214   am
    14   185   188    1
    15   185   184    1
    16   197   196    1
    17   197   200    1
    18   210   211    1
    19   216   215    1
    20   216   219   am
    21   221   220    1
    22   221   225   am
    23   220   219    1
    24   220   223    1
    25   188   189    1
    26   215   214    1
    27   215   218    1
    28   190   189   ar
    29   190   192   ar
    30   224   223    1
    31   171   172    2
    32   171   170    1
    33   200   201    1
    34   213   211   ar
    35   189   191   ar
    36   225   226    1
    37   211   212   ar
    38   179   178    2
    39   192   194   ar
    40   226   227    1
    41   228   227    2
    42   176   177    1
    43   227   229   am
    44   201   202    1
    45   169   170    1
    46   170   173    1
    47   178   177    1
    48   232   231    2
    49   191   193   ar
    50   229   230    1
    51   194   193   ar
    52   194   195    1
    53   231   230    1
    54   177   180    1
    55   230   233    1
    56   175   173    1
    57   180   181    1
    58   202   203    1
    59   173   174    1
    60   204   203    1
    61   150   149    1
    62   150   151    2
    63   181   182    2
    64   181   183   am
    65   233   235    1
    66   233   234    1
    67   149   148    1
    68   149   152    1
    69   153   152    1
    70   141   140    2
    71   148   140   am
    72   152   154    1
    73   140   139    1
    74    76    75    2
    75   139   138    1
    76   139   142    1
    77    75    77   am
    78    75    74    1
    79    40    39    1
    80    74    71    1
    81   142   143    1
    82   144   143   ar
    83   144   146   ar
    84    41    39    1
    85   155   156    1
    86   159   156    1
    87    73    72    2
    88    69    67   ar
    89   143   145   ar
    90    23    22    1
    91    23    24    1
    92    39    38    1
    93   146   147   ar
    94    71    72    1
    95    71    70    1
    96   156   157    1
    97    22    20   am
    98    72    78   am
    99    24    25    2
   100    24    26   am
   101   145   147   ar
   102    38    35    1
   103    67    68   ar
   104    67    66    1
   105   126   125   ar
   106    65    64    2
   107   157   158    2
   108    26    27    1
   109    70    64   am
   110    35    34    1
   111    35    36    1
   112    64    63    1
   113    84    86   ar
   114    84    83   ar
   115    66    63    1
   116    20    19    1
   117    20    21    2
   118    78    79    1
   119    27    30    1
   120    27    28    1
   121    86    88   ar
   122    19    18    1
   123    79    82    1
   124    79    80    1
   125   125   127   ar
   126   125   124    1
   127    82    83    1
   128    30    31    1
   129    37    36    2
   130    63    62    1
   131    83    85   ar
   132    32    31    1
   133    28    29    2
   134    88    87   ar
   135   121   124    1
   136   121   120    1
   137   121   122    1
   138    31    33    1
   139   160   161    1
   140    62    56   am
   141    18    12   am
   142    80    89   am
   143    80    81    2
   144    89    90    1
   145    13    12    2
   146    85    87   ar
   147    12    11    1
   148   122   123    2
   149    93    90    1
   150    93    94    1
   151   163   162    2
   152    56    57    2
   153    56    55    1
   154   161   162    1
   155   161   164    1
   156    90    91    1
   157    92    91    2
   158    14    11    1
   159    14    15    1
   160   137   136   ar
   161   137   135   ar
   162    11    10    1
   163   136   134   ar
   164    95    94   ar
   165    95    97   ar
   166    94    96   ar
   167    91   100   am
   168    55    58    1
   169    55    54    1
   170   164   165    1
   171    58    59    1
   172   165   166    1
   173     9     7   ar
   174    15    16    2
   175    15    17   am
   176   135   133   ar
   177    60    59    2
   178   134   133   ar
   179    97    99   ar
   180    96    98   ar
   181    59    61   am
   182   128   129    1
   183   100   101    1
   184     8     7   ar
   185   167   166   ar
   186     7     6    1
   187   133   132    1
   188   166   168   ar
   189    99    98   ar
   190   101   104    1
   191   101   102    1
   192     5     6    1
   193     5     2    1
   194     4     3    2
   195   129   132    1
   196   129   130    1
   197   104   105    1
   198   119   117    1
   199     3     2    1
   200   102   103    2
   201   105   106    1
   202     2     1    1
   203   130   131    2
   204    45    44    2
   205   108   106   ar
   206   106   107   ar
   207   117   116    2
   208   117   118    1
   209    44    43    1
   210   116   115    1
   211    46    43    1
   212    46    47    1
   213    43    42    1
   214   115   114    1
   215   114   113    1
   216    49    47   ar
   217    49    51   ar
   218    47    48   ar
   219    51    52   ar
   220   113   110    1
   221    48    50   ar
   222    52    50   ar
   223    52    53    1
   224   112   111    2
   225   110   111    1
   226   110   109    1
