@<TRIPOS>MOLECULE
tmp/3mtcA00.pdb
 214 204 0 0 0
SMALL
GASTEIGER

@<TRIPOS>ATOM
      1  N         54.7750   19.5940   50.1010 N.3    16  ASN16      -0.1240
      2  CA        55.2580   18.2350   50.3620 C.3    16  ASN16       0.1653
      3  C         55.4350   17.5620   49.0020 C.2    16  ASN16       0.2266
      4  O         54.4600   17.3630   48.2840 O.2    16  ASN16      -0.2867
      5  CB        54.2750   17.4500   51.2550 C.3    16  ASN16       0.1155
      6  CG        54.7640   16.0220   51.5710 C.2    16  ASN16       0.2627
      7  OD1       55.4260   15.3930   50.7510 O.2    16  ASN16      -0.2716
      8  ND2       54.4410   15.5220   52.7690 N.am   16  ASN16      -0.0877
      9  N         56.7670   14.5450   48.1910 N.3    18  ASN18      -0.1240
     10  CA        56.7420   13.0840   48.1700 C.3    18  ASN18       0.1653
     11  C         58.0030   12.4220   47.6080 C.2    18  ASN18       0.2266
     12  O         57.9100   11.4470   46.8670 O.2    18  ASN18      -0.2867
     13  CB        55.5370   12.6060   47.3660 C.3    18  ASN18       0.1155
     14  CG        55.2680   11.1300   47.5490 C.2    18  ASN18       0.2627
     15  OD1       55.2540   10.6090   48.6870 O.2    18  ASN18      -0.2716
     16  ND2       55.0460   10.4420   46.4400 N.am   18  ASN18      -0.0877
     17  N         59.5410   16.2590   52.6880 N.3    46  GLU46      -0.1245
     18  CA        59.8390   15.0420   51.9650 C.3    46  GLU46       0.1567
     19  C         60.6370   15.2830   50.7070 C.2    46  GLU46       0.2260
     20  O         60.3890   14.6660   49.6700 O.2    46  GLU46      -0.2867
     21  CB        58.5580   14.2550   51.6710 C.3    46  GLU46       0.0388
     22  CG        57.7900   13.9070   52.9410 C.3    46  GLU46       0.1160
     23  CD        56.7050   12.9010   52.7150 C.2    46  GLU46       0.3649
     24  OE1       56.7830   12.2140   51.6930 O.co2  46  GLU46      -0.2457
     25  OE2       55.7840   12.7760   53.5590 O.co2  46  GLU46      -0.2457
     26  N         63.3020   10.8560   50.4010 N.3    49  LEU49      -0.1231
     27  CA        62.7970    9.8150   51.3080 C.3    49  LEU49       0.1693
     28  C         63.7760    8.6580   51.4790 C.2    49  LEU49       0.2593
     29  O         63.4140    7.6570   52.0850 O.2    49  LEU49      -0.2718
     30  CB        61.4330    9.2900   50.8310 C.3    49  LEU49       0.0284
     31  CG        60.2650   10.2870   50.9600 C.3    49  LEU49       0.0019
     32  CD1       59.0430    9.7840   50.1970 C.3    49  LEU49       0.0001
     33  CD2       59.9190   10.5910   52.4380 C.3    49  LEU49       0.0001
     34  N         65.0100    8.8020   50.9670 N.am   50  SER50      -0.1938
     35  CA        66.0020    7.7170   51.0310 C.3    50  SER50       0.2055
     36  C         66.5680    7.4860   52.4440 C.2    50  SER50       0.2642
     37  O         66.5690    8.3810   53.2980 O.2    50  SER50      -0.2714
     38  CB        67.1510    7.9800   50.0590 C.3    50  SER50       0.2130
     39  OG        68.0440    8.9830   50.5310 O.3    50  SER50      -0.2179
     40  N         67.0360    6.2670   52.6850 N.am   51  LYS51      -0.1977
     41  CA        67.7400    5.9380   53.9190 C.3    51  LYS51       0.1596
     42  C         69.0170    6.7810   54.0960 C.2    51  LYS51       0.2287
     43  O         69.3630    7.1620   55.2130 O.2    51  LYS51      -0.2864
     44  CB        68.0650    4.4420   53.9640 C.3    51  LYS51       0.0298
     45  CG        69.0470    3.9260   52.8870 C.3    51  LYS51       0.0038
     46  CD        68.8650    2.4100   52.6690 C.3    51  LYS51       0.0206
     47  CE        69.6410    1.8650   51.4400 C.3    51  LYS51       0.1093
     48  NZ        69.4110    2.6010   50.1310 N.3    51  LYS51      -0.1314
     49  N         68.0160   10.1500   55.4380 N.3    54  PHE54      -0.1227
     50  CA        67.6080    9.9100   56.8150 C.3    54  PHE54       0.1736
     51  C         68.8090    9.8860   57.7780 C.2    54  PHE54       0.2595
     52  O         68.7180   10.4130   58.8870 O.2    54  PHE54      -0.2718
     53  CB        66.8120    8.6050   56.8620 C.3    54  PHE54       0.0547
     54  CG        66.3030    8.2280   58.2270 C.ar   54  PHE54      -0.0202
     55  CD1       65.1240    8.7740   58.7230 C.ar   54  PHE54      -0.0042
     56  CD2       66.9880    7.2880   59.0040 C.ar   54  PHE54      -0.0042
     57  CE1       64.6510    8.4100   59.9790 C.ar   54  PHE54      -0.0003
     58  CE2       66.5150    6.9140   60.2640 C.ar   54  PHE54      -0.0003
     59  CZ        65.3510    7.4670   60.7490 C.ar   54  PHE54      -0.0000
     60  N         69.9350    9.3120   57.3550 N.am   55  PHE55      -0.1976
     61  CA        71.1530    9.3260   58.1860 C.3    55  PHE55       0.1639
     62  C         72.0480   10.5370   57.8740 C.2    55  PHE55       0.2290
     63  O         73.2650   10.5020   58.1190 O.2    55  PHE55      -0.2864
     64  CB        71.9220    7.9930   58.1080 C.3    55  PHE55       0.0560
     65  CG        71.1520    6.8350   58.6640 C.ar   55  PHE55      -0.0200
     66  CD1       70.9520    6.7190   60.0260 C.ar   55  PHE55      -0.0042
     67  CD2       70.5860    5.8980   57.8300 C.ar   55  PHE55      -0.0042
     68  CE1       70.1970    5.6700   60.5530 C.ar   55  PHE55      -0.0003
     69  CE2       69.8410    4.8390   58.3310 C.ar   55  PHE55      -0.0003
     70  CZ        69.6440    4.7200   59.6960 C.ar   55  PHE55      -0.0000
     71  N         61.7590    9.7610   64.6120 N.3   116  ILE116     -0.1231
     72  CA        62.1090    8.5000   65.2550 C.3   116  ILE116      0.1692
     73  C         62.8830    8.7270   66.5520 C.2   116  ILE116      0.2591
     74  O         63.8360    9.5000   66.5910 O.2   116  ILE116     -0.2718
     75  CB        62.8850    7.5530   64.3260 C.3   116  ILE116      0.0266
     76  CG1       62.0200    7.1210   63.1310 C.3   116  ILE116      0.0019
     77  CG2       63.3450    6.2970   65.1010 C.3   116  ILE116      0.0020
     78  CD1       60.7970    6.2910   63.4870 C.3   116  ILE116      0.0001
     79  N         62.4150    8.0640   67.6120 N.am  117  MET117     -0.1979
     80  CA        62.9060    8.2300   68.9830 C.3   117  MET117      0.1605
     81  C         62.8340    9.6660   69.4920 C.2   117  MET117      0.2287
     82  O         63.5900   10.0740   70.3710 O.2   117  MET117     -0.2864
     83  CB        64.3010    7.6380   69.1120 C.3   117  MET117      0.0413
     84  CG        64.2750    6.1400   68.8200 C.3   117  MET117      0.0598
     85  SD        65.8830    5.3500   68.9430 S.3   117  MET117     -0.1393
     86  CE        65.5220    3.7770   68.1150 C.3   117  MET117      0.0692
     87  N         65.0460   11.9920   65.5080 N.3   120  MET120     -0.1245
     88  CA        65.4520   11.9200   64.1020 C.3   120  MET120      0.1570
     89  C         64.6530   12.9030   63.1920 C.2   120  MET120      0.2261
     90  O         63.6390   13.4780   63.5930 O.2   120  MET120     -0.2867
     91  CB        65.3780   10.4830   63.5850 C.3   120  MET120      0.0387
     92  CG        66.3020    9.5010   64.3370 C.3   120  MET120      0.0595
     93  SD        68.0710    9.8000   64.0650 S.3   120  MET120     -0.1393
     94  CE        68.2810    8.9250   62.5160 C.3   120  MET120      0.0692
     95  N         63.0780   12.5740   60.1750 N.3   122  ASN122     -0.1225
     96  CA        61.9390   12.1880   59.3340 C.3   122  ASN122      0.1785
     97  C         60.6980   13.0640   59.5310 C.2   122  ASN122      0.2597
     98  O         59.8520   13.1590   58.6400 O.2   122  ASN122     -0.2718
     99  CB        61.5820   10.7160   59.5370 C.3   122  ASN122      0.1169
    100  CG        61.2530   10.3600   60.9820 C.2   122  ASN122      0.2627
    101  OD1       62.0960   10.4960   61.8710 O.2   122  ASN122     -0.2716
    102  ND2       60.0380    9.8380   61.2070 N.am  122  ASN122     -0.0877
    103  N         60.5940   13.6730   60.7130 N.am  123  LYS123     -0.1980
    104  CA        59.6050   14.7050   61.0300 C.3   123  LYS123      0.1596
    105  C         60.3360   15.7320   61.8970 C.2   123  LYS123      0.2287
    106  O         61.4080   15.4460   62.4190 O.2   123  LYS123     -0.2864
    107  CB        58.4230   14.1210   61.8210 C.3   123  LYS123      0.0298
    108  CG        57.5890   13.0750   61.0790 C.3   123  LYS123      0.0038
    109  CD        56.6640   13.7400   60.0720 C.3   123  LYS123      0.0206
    110  CE        56.0880   12.7650   59.0390 C.3   123  LYS123      0.1093
    111  NZ        57.1430   12.2740   58.1120 N.3   123  LYS123     -0.1314
    112  N         57.2540   19.6050   59.5150 N.3   143  HIS143     -0.1241
    113  CA        56.5620   18.4040   59.1070 C.3   143  HIS143      0.1621
    114  C         56.2320   17.6030   60.3600 C.2   143  HIS143      0.2264
    115  O         57.1170   17.0210   60.9750 O.2   143  HIS143     -0.2867
    116  CB        57.4300   17.6000   58.1570 C.3   143  HIS143      0.0745
    117  CG        56.6900   16.5300   57.4190 C.ar  143  HIS143      0.0817
    118  ND1       57.3330   15.5440   56.7020 N.ar  143  HIS143     -0.2268
    119  CD2       55.3640   16.2870   57.2930 C.ar  143  HIS143      0.1154
    120  CE1       56.4320   14.7470   56.1610 C.ar  143  HIS143      0.1986
    121  NE2       55.2310   15.1680   56.5160 N.ar  143  HIS143     -0.2212
    122  N         52.2790   11.9730   61.0510 N.3   146  ALA146     -0.1231
    123  CA        51.1980   11.5450   60.1640 C.3   146  ALA146      0.1694
    124  C         50.0680   10.8000   60.8940 C.2   146  ALA146      0.2592
    125  O         50.2290   10.3930   62.0370 O.2   146  ALA146     -0.2718
    126  CB        51.7590   10.6600   59.0490 C.3   146  ALA146      0.0304
    127  N         48.9390   10.6510   60.1850 N.am  147  HIS147     -0.1976
    128  CA        47.8140    9.7380   60.5000 C.3   147  HIS147      0.1656
    129  C         46.7490   10.3740   61.3890 C.2   147  HIS147      0.2291
    130  O         47.0890   11.0300   62.3530 O.2   147  HIS147     -0.2864
    131  CB        48.2840    8.4210   61.1240 C.3   147  HIS147      0.0771
    132  CG        49.3150    7.6980   60.3180 C.ar  147  HIS147      0.0820
    133  ND1       49.2140    7.5380   58.9520 N.ar  147  HIS147     -0.2267
    134  CD2       50.4620    7.0800   60.6880 C.ar  147  HIS147      0.1154
    135  CE1       50.2560    6.8540   58.5140 C.ar  147  HIS147      0.1986
    136  NE2       51.0280    6.5650   59.5480 N.ar  147  HIS147     -0.2212
    137  N         49.8310   18.1200   58.8980 N.3   192  ASN192     -0.1240
    138  CA        49.3070   16.7480   58.9250 C.3   192  ASN192      0.1653
    139  C         48.0300   16.5290   59.7300 C.2   192  ASN192      0.2266
    140  O         47.6370   15.3840   59.9880 O.2   192  ASN192     -0.2867
    141  CB        50.3990   15.7610   59.3860 C.3   192  ASN192      0.1155
    142  CG        50.8330   14.8090   58.2890 C.2   192  ASN192      0.2627
    143  OD1       50.0370   14.4310   57.4280 O.2   192  ASN192     -0.2716
    144  ND2       52.0900   14.3900   58.3340 N.am  192  ASN192     -0.0877
    145  N         44.0790   16.2550   60.2390 N.3   194  ARG194     -0.1245
    146  CA        43.0990   15.6060   59.3760 C.3   194  ARG194      0.1563
    147  C         41.6700   15.9940   59.7730 C.2   194  ARG194      0.2260
    148  O         41.4680   16.8030   60.6810 O.2   194  ARG194     -0.2867
    149  CB        43.2650   14.0840   59.4940 C.3   194  ARG194      0.0307
    150  CG        44.6980   13.5680   59.3510 C.3   194  ARG194      0.0489
    151  CD        45.3720   14.0490   58.0660 C.3   194  ARG194      0.2205
    152  NE        46.7420   13.5890   57.9740 N.pl3 194  ARG194     -0.0865
    153  CZ        47.1310   12.4250   57.4450 C.cat 194  ARG194      0.5346
    154  NH1       46.2590   11.5640   56.9230 N.pl3 194  ARG194      0.1354
    155  NH2       48.4200   12.1240   57.4250 N.pl3 194  ARG194      0.1354
    156  N         45.7260   17.0340   50.1050 N.3   245  TYR245     -0.1227
    157  CA        46.1550   15.6510   50.1840 C.3   245  TYR245      0.1736
    158  C         44.8850   14.7770   50.2040 C.2   245  TYR245      0.2595
    159  O         43.8610   15.2340   50.7240 O.2   245  TYR245     -0.2718
    160  CB        46.9770   15.5130   51.4630 C.3   245  TYR245      0.0548
    161  CG        47.0480   14.1620   52.1360 C.ar  245  TYR245     -0.0200
    162  CD1       48.1960   13.3580   52.0330 C.ar  245  TYR245     -0.0009
    163  CD2       46.0170   13.7280   52.9530 C.ar  245  TYR245     -0.0009
    164  CE1       48.2780   12.1320   52.7070 C.ar  245  TYR245      0.0417
    165  CE2       46.0900   12.5110   53.6230 C.ar  245  TYR245      0.0417
    166  CZ        47.2150   11.7160   53.4940 C.ar  245  TYR245      0.1957
    167  OH        47.2470   10.5090   54.1740 O.3   245  TYR245     -0.2866
    168  N         44.8930   13.5540   49.6690 N.am  246  LYS246     -0.1980
    169  CA        46.0120   12.8540   49.0610 C.3   246  LYS246      0.1596
    170  C         45.6120   12.4690   47.6540 C.2   246  LYS246      0.2287
    171  O         44.5480   11.8790   47.4650 O.2   246  LYS246     -0.2864
    172  CB        46.2750   11.5670   49.8320 C.3   246  LYS246      0.0298
    173  CG        47.4610   10.7600   49.3290 C.3   246  LYS246      0.0038
    174  CD        47.6390    9.4780   50.1200 C.3   246  LYS246      0.0206
    175  CE        48.6960    8.5480   49.4920 C.3   246  LYS246      0.1093
    176  NZ        50.0780    8.9530   49.8050 N.3   246  LYS246     -0.1314
    177  N         45.3590    1.8630   50.4970 N.3   259  LYS259     -0.1245
    178  CA        45.1140    2.6500   51.7240 C.3   259  LYS259      0.1561
    179  C         43.9430    3.6430   51.5920 C.2   259  LYS259      0.2260
    180  O         43.3530    4.0280   52.5990 O.2   259  LYS259     -0.2867
    181  CB        46.3800    3.3400   52.2720 C.3   259  LYS259      0.0271
    182  CG        47.6170    3.4400   51.3600 C.3   259  LYS259      0.0035
    183  CD        48.7650    4.1440   52.1210 C.3   259  LYS259      0.0206
    184  CE        50.1120    4.0860   51.3900 C.3   259  LYS259      0.1093
    185  NZ        51.1870    4.8710   52.1100 N.3   259  LYS259     -0.1314
    186  N         43.2100    6.9370   51.1220 N.3   261  ARG261     -0.1245
    187  CA        43.2460    7.9180   52.2100 C.3   261  ARG261      0.1563
    188  C         42.1180    8.9500   52.1240 C.2   261  ARG261      0.2260
    189  O         41.7210    9.3590   51.0430 O.2   261  ARG261     -0.2867
    190  CB        44.5940    8.6500   52.2440 C.3   261  ARG261      0.0307
    191  CG        45.8160    7.7730   52.5340 C.3   261  ARG261      0.0489
    192  CD        45.7900    7.1260   53.9300 C.3   261  ARG261      0.2205
    193  NE        47.1330    6.6870   54.3360 N.pl3 261  ARG261     -0.0865
    194  CZ        47.4120    5.6600   55.1490 C.cat 261  ARG261      0.5346
    195  NH1       46.4490    4.9030   55.6710 N.pl3 261  ARG261      0.1354
    196  NH2       48.6820    5.3740   55.4340 N.pl3 261  ARG261      0.1354
    197  N         51.8500   13.7350   45.5610 N.3   291  ASP291     -0.1225
    198  CA        50.5520   13.3900   46.0920 C.3   291  ASP291      0.1805
    199  C         49.9430   14.5130   46.9570 C.2   291  ASP291      0.2597
    200  O         48.7850   14.4100   47.3680 O.2   291  ASP291     -0.2718
    201  CB        50.6050   12.0640   46.8740 C.3   291  ASP291      0.1424
    202  CG        51.4750   12.1330   48.1200 C.2   291  ASP291      0.3668
    203  OD1       52.3420   13.0350   48.2140 O.co2 291  ASP291     -0.2456
    204  OD2       51.2880   11.2580   49.0060 O.co2 291  ASP291     -0.2456
    205  N         50.7230   15.5600   47.2440 N.am  292  HIS292     -0.1975
    206  CA        50.1900   16.8040   47.8040 C.3   292  HIS292      0.1656
    207  C         50.1730   17.8850   46.7390 C.2   292  HIS292      0.2291
    208  O         50.9760   17.8400   45.7900 O.2   292  HIS292     -0.2864
    209  CB        51.0570   17.3330   48.9500 C.3   292  HIS292      0.0771
    210  CG        51.0130   16.5100   50.1980 C.ar  292  HIS292      0.0820
    211  ND1       50.4470   16.9730   51.3640 N.ar  292  HIS292     -0.2267
    212  CD2       51.5110   15.2840   50.4790 C.ar  292  HIS292      0.1154
    213  CE1       50.5740   16.0550   52.3060 C.ar  292  HIS292      0.1986
    214  NE2       51.2180   15.0180   51.7960 N.ar  292  HIS292     -0.2212
@<TRIPOS>BOND
     1   197   198    1
     2   208   207    2
     3   198   201    1
     4   198   199    1
     5    16    14   am
     6   207   206    1
     7    12    11    2
     8   201   202    1
     9   199   205   am
    10   199   200    2
    11   205   206    1
    12    13    14    1
    13    13    10    1
    14   171   170    2
    15    14    15    2
    16    11    10    1
    17   170   169    1
    18   206   209    1
    19   202   203   ar
    20   202   204   ar
    21    10     9    1
    22     4     3    2
    23   209   210    1
    24     3     2    1
    25   169   168    1
    26   169   172    1
    27   173   172    1
    28   173   174    1
    29   175   176    1
    30   175   174    1
    31   168   158   am
    32    20    19    2
    33    38    39    1
    34    38    35    1
    35     1     2    1
    36   156   157    1
    37    48    47    1
    38   157   158    1
    39   157   160    1
    40    32    31    1
    41   210   212   ar
    42   210   211   ar
    43   158   159    2
    44     2     5    1
    45    26    27    1
    46   212   214   ar
    47   177   178    1
    48    19    18    1
    49     7     6    2
    50    30    31    1
    51    30    27    1
    52    31    33    1
    53    34    35    1
    54    34    28   am
    55    35    36    1
    56   189   188    2
    57   186   187    1
    58     5     6    1
    59    27    28    1
    60   182   183    1
    61   182   181    1
    62   211   213   ar
    63   184   185    1
    64   184   183    1
    65    47    46    1
    66   160   161    1
    67    28    29    2
    68     6     8   am
    69   179   178    1
    70   179   180    2
    71    21    18    1
    72    21    22    1
    73    24    23   ar
    74   178   181    1
    75   214   213   ar
    76    18    17    1
    77   162   161   ar
    78   162   164   ar
    79   188   187    1
    80   161   163   ar
    81   187   190    1
    82   190   191    1
    83    36    40   am
    84    36    37    2
    85   191   192    1
    86    46    45    1
    87    40    41    1
    88   164   166   ar
    89    23    22    1
    90    23    25   ar
    91    45    44    1
    92   163   165   ar
    93   166   165   ar
    94   166   167    1
    95    41    44    1
    96    41    42    1
    97   192   193    1
    98    42    43    2
    99   193   194    2
   100   194   196    1
   101   194   195    1
   102    49    50    1
   103   120   121   ar
   104   120   118   ar
   105   121   119   ar
   106   118   117   ar
   107    50    53    1
   108    50    51    1
   109    53    54    1
   110   154   153    1
   111   119   117   ar
   112    60    51   am
   113    60    61    1
   114   117   116    1
   115   155   153    1
   116   143   142    2
   117   153   152    2
   118    51    52    2
   119    67    69   ar
   120    67    65   ar
   121    62    63    2
   122    62    61    1
   123   152   151    1
   124   151   150    1
   125    64    61    1
   126    64    65    1
   127   111   110    1
   128   116   113    1
   129    54    55   ar
   130    54    56   ar
   131   142   144   am
   132   142   141    1
   133    69    70   ar
   134   135   133   ar
   135   135   136   ar
   136    98    97    2
   137    65    66   ar
   138    55    57   ar
   139   137   138    1
   140   138   141    1
   141   138   139    1
   142   133   132   ar
   143    56    58   ar
   144   110   109    1
   145   126   123    1
   146   113   112    1
   147   113   114    1
   148    96    97    1
   149    96    99    1
   150    96    95    1
   151   150   149    1
   152   146   149    1
   153   146   147    1
   154   146   145    1
   155    97   103   am
   156    99   100    1
   157   136   134   ar
   158    70    68   ar
   159   139   140    2
   160   147   148    2
   161    57    59   ar
   162    66    68   ar
   163   109   108    1
   164   123   124    1
   165   123   122    1
   166   127   128    1
   167   127   124   am
   168    58    59   ar
   169   132   134   ar
   170   132   131    1
   171   114   115    2
   172   128   131    1
   173   128   129    1
   174   103   104    1
   175   124   125    2
   176   100   102   am
   177   100   101    2
   178   104   107    1
   179   104   105    1
   180   108   107    1
   181   129   130    2
   182   105   106    2
   183    94    93    1
   184    76    78    1
   185    76    75    1
   186    89    90    2
   187    89    88    1
   188    91    88    1
   189    91    92    1
   190    93    92    1
   191    88    87    1
   192    75    77    1
   193    75    72    1
   194    71    72    1
   195    72    73    1
   196    73    74    2
   197    73    79   am
   198    79    80    1
   199    86    85    1
   200    84    85    1
   201    84    83    1
   202    80    83    1
   203    80    81    1
   204    81    82    2
