@<TRIPOS>MOLECULE
tmp/3mteA00.pdb
 192 191 0 0 0
SMALL
GASTEIGER

@<TRIPOS>ATOM
      1  N         31.8970   20.9620   32.0910 N.3    30  ASP30      -0.1225
      2  CA        32.0150   20.5510   30.6780 C.3    30  ASP30       0.1805
      3  C         30.6120   20.1820   30.1850 C.2    30  ASP30       0.2598
      4  O         30.0160   19.2030   30.6460 O.2    30  ASP30      -0.2718
      5  CB        32.9730   19.3640   30.5640 C.3    30  ASP30       0.1424
      6  CG        33.2270   18.9320   29.1160 C.2    30  ASP30       0.3668
      7  OD1       33.3300   19.8130   28.2280 O.co2  30  ASP30      -0.2456
      8  OD2       33.3360   17.7070   28.8830 O.co2  30  ASP30      -0.2456
      9  N         30.0730   20.9740   29.2570 N.am   31  LEU31      -0.1966
     10  CA        28.6950   20.8000   28.7980 C.3    31  LEU31       0.1728
     11  C         28.6510   19.9250   27.5450 C.2    31  LEU31       0.2617
     12  O         29.3850   20.1690   26.5900 O.2    31  LEU31      -0.2715
     13  CB        28.0620   22.1670   28.5030 C.3    31  LEU31       0.0311
     14  CG        26.6310   22.1760   27.9440 C.3    31  LEU31       0.0022
     15  CD1       25.6240   21.4970   28.8920 C.3    31  LEU31       0.0001
     16  CD2       26.2090   23.6100   27.6360 C.3    31  LEU31       0.0001
     17  N         27.7820   18.9150   27.5390 N.am   32  GLY32      -0.1940
     18  CA        27.7570   17.9570   26.4420 C.3    32  GLY32       0.2014
     19  C         29.0230   17.1230   26.4990 C.2    32  GLY32       0.2640
     20  O         29.7590   16.9980   25.4980 O.2    32  GLY32      -0.2714
     21  N         29.2530   16.5290   27.6750 N.am   33  THR33      -0.1936
     22  CA        30.5330   15.9060   28.0260 C.3    33  THR33       0.2028
     23  C         30.7720   14.5580   27.3420 C.2    33  THR33       0.2643
     24  O         31.9250   14.1280   27.1840 O.2    33  THR33      -0.2714
     25  CB        30.7150   15.8040   29.5870 C.3    33  THR33       0.1808
     26  OG1       32.1090   15.6530   29.9050 O.3    33  THR33      -0.2208
     27  CG2       29.9290   14.6300   30.1480 C.3    33  THR33       0.0379
     28  N         29.7020   13.9120   26.8840 N.am   34  GLY34      -0.1939
     29  CA        29.8550   12.7120   26.0600 C.3    34  GLY34       0.2014
     30  C         30.1300   11.4740   26.9120 C.2    34  GLY34       0.2638
     31  O         29.3610   11.1780   27.8270 O.2    34  GLY34      -0.2714
     32  N         31.2280   10.7640   26.6420 N.am   35  ASP35      -0.1971
     33  CA        31.4910    9.4910   27.3320 C.3    35  ASP35       0.1709
     34  C         32.1930    9.6380   28.6890 C.2    35  ASP35       0.2293
     35  O         32.4180    8.6450   29.3860 O.2    35  ASP35      -0.2864
     36  CB        32.2100    8.4600   26.4160 C.3    35  ASP35       0.1436
     37  CG        33.6160    8.8890   26.0000 C.2    35  ASP35       0.3671
     38  OD1       34.1960    9.8070   26.6180 O.co2  35  ASP35      -0.2456
     39  OD2       34.1500    8.2890   25.0320 O.co2  35  ASP35      -0.2456
     40  N         37.0880   12.4920   28.6740 N.3    38  ASN38      -0.1240
     41  CA        37.8120   13.7570   28.7360 C.3    38  ASN38       0.1653
     42  C         37.8710   14.2700   30.1740 C.2    38  ASN38       0.2266
     43  O         38.9380   14.6140   30.6660 O.2    38  ASN38      -0.2867
     44  CB        37.1400   14.8140   27.8560 C.3    38  ASN38       0.1155
     45  CG        37.3500   14.5580   26.3750 C.2    38  ASN38       0.2627
     46  OD1       38.2930   13.8670   25.9800 O.2    38  ASN38      -0.2716
     47  ND2       36.4630   15.1090   25.5480 N.am   38  ASN38      -0.0877
     48  N         25.5750   15.8640   30.5670 N.3    55  ASP55      -0.1225
     49  CA        25.1000   15.2490   29.3210 C.3    55  ASP55       0.1790
     50  C         23.6670   14.7640   29.4840 C.2    55  ASP55       0.2440
     51  O         23.2810   14.2640   30.5550 O.2    55  ASP55      -0.2733
     52  CB        26.0110   14.0980   28.8670 C.3    55  ASP55       0.1423
     53  CG        25.9440   13.8570   27.3490 C.2    55  ASP55       0.3668
     54  OD1       26.8350   14.3460   26.6300 O.co2  55  ASP55      -0.2456
     55  OD2       24.9860   13.2080   26.8680 O.co2  55  ASP55      -0.2456
     56  N         22.8560   14.9230   28.4300 N.am   56  PRO56      -0.2718
     57  CA        21.4550   14.4920   28.4540 C.3    56  PRO56       0.1535
     58  C         21.2660   12.9870   28.2590 C.2    56  PRO56       0.2598
     59  O         20.1830   12.4810   28.5530 O.2    56  PRO56      -0.2715
     60  CB        20.8280   15.2590   27.2730 C.3    56  PRO56       0.0310
     61  CG        21.9580   15.5850   26.3720 C.3    56  PRO56       0.0237
     62  CD        23.1550   15.8010   27.2820 C.3    56  PRO56       0.0939
     63  N         22.2830   12.2870   27.7660 N.am   57  VAL57      -0.1978
     64  CA        22.1520   10.8460   27.5390 C.3    57  VAL57       0.1596
     65  C         22.9920   10.0760   28.5620 C.2    57  VAL57       0.2287
     66  O         24.2040    9.9340   28.4160 O.2    57  VAL57      -0.2864
     67  CB        22.5550   10.4530   26.1030 C.3    57  VAL57       0.0276
     68  CG1       22.2030    8.9890   25.8360 C.3    57  VAL57       0.0022
     69  CG2       21.8530   11.3770   25.0900 C.3    57  VAL57       0.0022
     70  N         25.5710    7.1550   27.8610 N.3    60  ASN60      -0.1240
     71  CA        26.8790    7.5170   27.3120 C.3    60  ASN60       0.1653
     72  C         27.9380    7.5070   28.4140 C.2    60  ASN60       0.2266
     73  O         29.1290    7.3150   28.1550 O.2    60  ASN60      -0.2867
     74  CB        26.8510    8.9320   26.7240 C.3    60  ASN60       0.1155
     75  CG        26.0800    9.0330   25.4160 C.2    60  ASN60       0.2627
     76  OD1       25.6990    8.0340   24.8170 O.2    60  ASN60      -0.2716
     77  ND2       25.8680   10.2650   24.9620 N.am   60  ASN60      -0.0877
     78  N         21.4190   16.3830   32.1890 N.3    85  ALA85      -0.1231
     79  CA        20.6020   17.5250   31.8060 C.3    85  ALA85       0.1694
     80  C         20.9660   17.9490   30.3950 C.2    85  ALA85       0.2592
     81  O         22.0100   17.5590   29.8740 O.2    85  ALA85      -0.2718
     82  CB        20.8160   18.6910   32.7770 C.3    85  ALA85       0.0304
     83  N         20.0950   18.7420   29.7830 N.am   86  ALA86      -0.1966
     84  CA        20.3730   19.3170   28.4750 C.3    86  ALA86       0.1728
     85  C         20.5840   20.8260   28.5830 C.2    86  ALA86       0.2616
     86  O         20.1030   21.4710   29.5230 O.2    86  ALA86      -0.2715
     87  CB        19.2250   19.0140   27.5100 C.3    86  ALA86       0.0334
     88  N         21.2750   21.3790   27.5870 N.am   87  ALA87      -0.1963
     89  CA        21.5190   22.8140   27.4910 C.3    87  ALA87       0.1728
     90  C         20.2440   23.6500   27.5610 C.2    87  ALA87       0.2616
     91  O         20.2670   24.7700   28.0710 O.2    87  ALA87      -0.2715
     92  CB        22.3060   23.1310   26.1910 C.3    87  ALA87       0.0334
     93  N         19.1330   23.1140   27.0540 N.am   88  GLU88      -0.1977
     94  CA        17.8740   23.8660   27.0040 C.3    88  GLU88       0.1602
     95  C         17.1750   23.9190   28.3470 C.2    88  GLU88       0.2287
     96  O         16.2240   24.6800   28.5260 O.2    88  GLU88      -0.2864
     97  CB        16.8740   23.2640   26.0020 C.3    88  GLU88       0.0415
     98  CG        17.4410   22.7520   24.7110 C.3    88  GLU88       0.1163
     99  CD        18.0000   21.3450   24.8490 C.2    88  GLU88       0.3649
    100  OE1       17.2440   20.3450   24.7550 O.co2  88  GLU88      -0.2457
    101  OE2       19.2020   21.2470   25.0510 O.co2  88  GLU88      -0.2457
    102  N         33.0020   20.9980   24.1170 N.3   104  LEU104     -0.1231
    103  CA        34.0010   20.3690   23.2460 C.3   104  LEU104      0.1693
    104  C         33.3600   19.4440   22.2220 C.2   104  LEU104      0.2592
    105  O         32.6920   18.4800   22.5820 O.2   104  LEU104     -0.2718
    106  CB        34.9910   19.5510   24.0740 C.3   104  LEU104      0.0284
    107  CG        35.6750   20.2820   25.2420 C.3   104  LEU104      0.0019
    108  CD1       36.4760   19.2870   26.0730 C.3   104  LEU104      0.0001
    109  CD2       36.5740   21.3980   24.7220 C.3   104  LEU104      0.0001
    110  N         33.5970   19.7390   20.9480 N.am  105  PHE105     -0.1963
    111  CA        33.0840   18.9400   19.8450 C.3   105  PHE105      0.1756
    112  C         31.5740   18.7140   19.9230 C.2   105  PHE105      0.2461
    113  O         31.1070   17.5950   19.7750 O.2   105  PHE105     -0.2730
    114  CB        33.8690   17.6250   19.7470 C.3   105  PHE105      0.0574
    115  CG        35.3550   17.8220   19.7990 C.ar  105  PHE105     -0.0200
    116  CD1       36.0490   18.2970   18.6880 C.ar  105  PHE105     -0.0042
    117  CD2       36.0640   17.5730   20.9720 C.ar  105  PHE105     -0.0042
    118  CE1       37.4260   18.5030   18.7540 C.ar  105  PHE105     -0.0003
    119  CE2       37.4290   17.7680   21.0300 C.ar  105  PHE105     -0.0003
    120  CZ        38.1090   18.2410   19.9180 C.ar  105  PHE105     -0.0000
    121  N         30.8000   19.7840   20.1640 N.am  106  PRO106     -0.2716
    122  CA        29.3520   19.5590   20.1850 C.3   106  PRO106      0.1536
    123  C         28.8520   19.1510   18.8070 C.2   106  PRO106      0.2599
    124  O         29.4930   19.4650   17.7920 O.2   106  PRO106     -0.2715
    125  CB        28.7860   20.9390   20.5460 C.3   106  PRO106      0.0310
    126  CG        29.8110   21.8970   20.0250 C.3   106  PRO106      0.0237
    127  CD        31.1410   21.2140   20.2490 C.3   106  PRO106      0.0939
    128  N         27.7210   18.4650   18.7590 N.am  107  TRP107     -0.1960
    129  CA        27.1100   18.1610   17.4690 C.3   107  TRP107      0.1771
    130  C         25.6200   18.4100   17.5140 C.2   107  TRP107      0.2620
    131  O         25.0930   18.7820   18.5570 O.2   107  TRP107     -0.2715
    132  CB        27.4100   16.7280   17.0250 C.3   107  TRP107      0.0590
    133  CG        26.8500   15.6160   17.8950 C.ar  107  TRP107      0.0006
    134  CD1       25.8150   15.6860   18.7910 C.ar  107  TRP107      0.0946
    135  CD2       27.3070   14.2620   17.9170 C.ar  107  TRP107      0.0152
    136  NE1       25.6070   14.4460   19.3710 N.ar  107  TRP107     -0.2442
    137  CE2       26.5170   13.5610   18.8550 C.ar  107  TRP107      0.0810
    138  CE3       28.3210   13.5730   17.2430 C.ar  107  TRP107      0.0012
    139  CZ2       26.7080   12.2090   19.1270 C.ar  107  TRP107      0.0191
    140  CZ3       28.5080   12.2290   17.5200 C.ar  107  TRP107      0.0001
    141  CH2       27.7010   11.5610   18.4450 C.ar  107  TRP107      0.0015
    142  N         24.9490   18.2230   16.3800 N.am  108  GLY108     -0.1940
    143  CA        23.5040   18.3670   16.3270 C.3   108  GLY108      0.2014
    144  C         23.0220   19.7000   16.8740 C.2   108  GLY108      0.2640
    145  O         23.6020   20.7530   16.5940 O.2   108  GLY108     -0.2714
    146  N         21.9670   19.6560   17.6810 N.am  109  THR109     -0.1936
    147  CA        21.3370   20.8860   18.1330 C.3   109  THR109      0.2028
    148  C         22.2620   21.7630   18.9690 C.2   109  THR109      0.2642
    149  O         22.2500   22.9860   18.8210 O.2   109  THR109     -0.2714
    150  CB        20.0270   20.6000   18.8820 C.3   109  THR109      0.1808
    151  OG1       20.2900   19.7430   20.0130 O.3   109  THR109     -0.2208
    152  CG2       19.0580   19.9260   17.9240 C.3   109  THR109      0.0379
    153  N         23.0810   21.1420   19.8070 N.am  110  LEU110     -0.1977
    154  CA        24.0360   21.8880   20.6340 C.3   110  LEU110      0.1596
    155  C         25.0360   22.6510   19.7700 C.2   110  LEU110      0.2287
    156  O         25.3920   23.8000   20.0570 O.2   110  LEU110     -0.2864
    157  CB        24.8070   20.9520   21.5600 C.3   110  LEU110      0.0297
    158  CG        25.7750   21.6280   22.5380 C.3   110  LEU110      0.0022
    159  CD1       25.0420   22.6430   23.4300 C.3   110  LEU110      0.0001
    160  CD2       26.5100   20.5890   23.3910 C.3   110  LEU110      0.0001
    161  N         23.4140   25.7050   18.4810 N.3   113  TYR113     -0.1241
    162  CA        23.2730   26.7470   19.5020 C.3   113  TYR113      0.1605
    163  C         24.5650   27.5470   19.6200 C.2   113  TYR113      0.2264
    164  O         24.5350   28.7550   19.8600 O.2   113  TYR113     -0.2867
    165  CB        22.9590   26.1570   20.8810 C.3   113  TYR113      0.0534
    166  CG        21.6870   25.3370   21.0170 C.ar  113  TYR113     -0.0201
    167  CD1       20.5750   25.5900   20.2280 C.ar  113  TYR113     -0.0009
    168  CD2       21.5900   24.3440   21.9960 C.ar  113  TYR113     -0.0009
    169  CE1       19.4150   24.8490   20.3720 C.ar  113  TYR113      0.0417
    170  CE2       20.4240   23.5960   22.1540 C.ar  113  TYR113      0.0417
    171  CZ        19.3470   23.8590   21.3350 C.ar  113  TYR113      0.1957
    172  OH        18.1980   23.1300   21.4770 O.3   113  TYR113     -0.2866
    173  N         38.3810   11.1120   24.7620 N.3   195  SER195     -0.1217
    174  CA        37.1090   10.4880   24.4080 C.3   195  SER195      0.1889
    175  C         37.2210    9.6570   23.1370 C.2   195  SER195      0.2288
    176  O         38.0720    9.9180   22.2870 O.2   195  SER195     -0.2866
    177  CB        36.0010   11.5360   24.2620 C.3   195  SER195      0.2089
    178  OG        36.1700   12.3170   23.0870 O.3   195  SER195     -0.2183
    179  N         35.0940    9.6200   20.7190 N.3   197  TRP197     -0.1241
    180  CA        34.7100   10.4960   19.6210 C.3   197  TRP197      0.1605
    181  C         35.8790   11.3820   19.1780 C.2   197  TRP197      0.2264
    182  O         36.1500   11.5150   17.9790 O.2   197  TRP197     -0.2867
    183  CB        33.5020   11.3560   20.0140 C.3   197  TRP197      0.0550
    184  CG        33.0600   12.2810   18.9170 C.ar  197  TRP197      0.0003
    185  CD1       33.0750   13.6440   18.9370 C.ar  197  TRP197      0.0946
    186  CD2       32.5540   11.9030   17.6300 C.ar  197  TRP197      0.0152
    187  NE1       32.5920   14.1420   17.7520 N.ar  197  TRP197     -0.2442
    188  CE2       32.2770   13.0940   16.9260 C.ar  197  TRP197      0.0810
    189  CE3       32.3160   10.6760   17.0030 C.ar  197  TRP197      0.0012
    190  CZ2       31.7640   13.0940   15.6350 C.ar  197  TRP197      0.0191
    191  CZ3       31.8060   10.6770   15.7170 C.ar  197  TRP197      0.0001
    192  CH2       31.5420   11.8800   15.0440 C.ar  197  TRP197      0.0015
@<TRIPOS>BOND
     1   192   190   ar
     2   192   191   ar
     3   190   188   ar
     4   191   189   ar
     5   143   142    1
     6   143   144    1
     7   142   130   am
     8   145   144    2
     9   144   146   am
    10   188   186   ar
    11   188   187   ar
    12   189   186   ar
    13   132   129    1
    14   132   133    1
    15   138   140   ar
    16   138   135   ar
    17   129   130    1
    18   129   128    1
    19   130   131    2
    20   140   141   ar
    21   186   184   ar
    22   146   147    1
    23   187   185   ar
    24   124   123    2
    25   133   135   ar
    26   133   134   ar
    27   135   137   ar
    28   152   150    1
    29   182   181    2
    30   147   150    1
    31   147   148    1
    32   141   139   ar
    33   161   162    1
    34   116   118   ar
    35   116   115   ar
    36   118   120   ar
    37   128   123   am
    38   134   136   ar
    39   123   122    1
    40   149   148    2
    41   137   139   ar
    42   137   136   ar
    43   150   151    1
    44   184   185   ar
    45   184   183    1
    46   148   153   am
    47   181   180    1
    48   162   163    1
    49   162   165    1
    50   163   164    2
    51   180   183    1
    52   180   179    1
    53   114   115    1
    54   114   111    1
    55   155   156    2
    56   155   154    1
    57   113   112    2
    58   115   117   ar
    59   153   154    1
    60   111   112    1
    61   111   110    1
    62   120   119   ar
    63   112   121   am
    64   126   127    1
    65   126   125    1
    66   121   122    1
    67   121   127    1
    68   122   125    1
    69   167   169   ar
    70   167   166   ar
    71   169   171   ar
    72   154   157    1
    73   165   166    1
    74   110   104   am
    75   117   119   ar
    76   166   168   ar
    77   171   172    1
    78   171   170   ar
    79   157   158    1
    80   168   170   ar
    81   104   105    2
    82   104   103    1
    83   176   175    2
    84   158   160    1
    85   158   159    1
    86   178   177    1
    87   175   174    1
    88   103   106    1
    89   103   102    1
    90   106   107    1
    91   177   174    1
    92   174   173    1
    93    98    99    1
    94    98    97    1
    95   109   107    1
    96   100    99   ar
    97    76    75    2
    98    99   101   ar
    99    77    75   am
   100    39    37   ar
   101    69    67    1
   102   107   108    1
   103    75    74    1
   104    20    19    2
   105    47    45   am
   106    68    67    1
   107    46    45    2
   108    37    36    1
   109    37    38   ar
   110    97    94    1
   111    29    28    1
   112    29    30    1
   113    67    64    1
   114    92    89    1
   115    61    60    1
   116    61    62    1
   117    45    44    1
   118    36    33    1
   119    18    19    1
   120    18    17    1
   121    19    21   am
   122    12    11    2
   123    54    53   ar
   124    32    30   am
   125    32    33    1
   126    74    71    1
   127    55    53   ar
   128    28    23   am
   129    30    31    2
   130    94    93    1
   131    94    95    1
   132    93    90   am
   133    24    23    2
   134    60    57    1
   135    62    56    1
   136    71    70    1
   137    71    72    1
   138    33    34    1
   139    23    22    1
   140    53    52    1
   141    89    90    1
   142    89    88    1
   143    87    84    1
   144    64    63    1
   145    64    65    1
   146    17    11   am
   147    11    10    1
   148    90    91    2
   149    88    85   am
   150    16    14    1
   151    21    22    1
   152    63    58   am
   153    44    41    1
   154    14    13    1
   155    14    15    1
   156    22    25    1
   157    73    72    2
   158     7     6   ar
   159    58    57    1
   160    58    59    2
   161    95    96    2
   162    66    65    2
   163    56    57    1
   164    56    50   am
   165    84    85    1
   166    84    83    1
   167    13    10    1
   168    85    86    2
   169    40    41    1
   170    34    35    2
   171    41    42    1
   172    10     9    1
   173    52    49    1
   174     8     6   ar
   175     6     5    1
   176     9     3   am
   177    49    50    1
   178    49    48    1
   179    50    51    2
   180    25    26    1
   181    25    27    1
   182    83    80   am
   183    81    80    2
   184    42    43    2
   185     3     4    2
   186     3     2    1
   187    80    79    1
   188     5     2    1
   189     2     1    1
   190    79    78    1
   191    79    82    1
