@<TRIPOS>MOLECULE
tmp/3mtfA00.pdb
 164 155 0 0 0
SMALL
GASTEIGER

@<TRIPOS>ATOM
      1  N        -18.5380   -9.3660   45.2550 N.3    12  VAL12      -0.1245
      2  CA       -18.5820   -8.6480   43.9680 C.3    12  VAL12       0.1561
      3  C        -19.9460   -8.8060   43.2600 C.2    12  VAL12       0.2260
      4  O        -20.2010   -8.1670   42.2550 O.2    12  VAL12      -0.2867
      5  CB       -17.3690   -8.9980   43.0300 C.3    12  VAL12       0.0252
      6  CG1      -16.0100   -8.5840   43.6820 C.3    12  VAL12       0.0019
      7  CG2      -17.3590  -10.4710   42.6290 C.3    12  VAL12       0.0019
      8  N        -21.0540  -14.0720   44.8000 N.3    20  VAL20      -0.1245
      9  CA       -19.6920  -14.2720   44.3170 C.3    20  VAL20       0.1561
     10  C        -18.7900  -13.2870   45.0100 C.2    20  VAL20       0.2260
     11  O        -19.1550  -12.1170   45.1090 O.2    20  VAL20      -0.2867
     12  CB       -19.5520  -14.0260   42.8120 C.3    20  VAL20       0.0252
     13  CG1      -18.0910  -14.2820   42.3520 C.3    20  VAL20       0.0019
     14  CG2      -20.5390  -14.8780   42.0020 C.3    20  VAL20       0.0019
     15  N        -12.1900  -16.0870   42.2080 N.3    31  ALA31      -0.1231
     16  CA       -13.6070  -15.8420   42.3630 C.3    31  ALA31       0.1694
     17  C        -14.2210  -17.0390   43.0470 C.2    31  ALA31       0.2592
     18  O        -13.9950  -18.1710   42.6330 O.2    31  ALA31      -0.2718
     19  CB       -14.2630  -15.5990   41.0290 C.3    31  ALA31       0.0304
     20  N        -15.0080  -16.7800   44.0890 N.am   32  VAL32      -0.1966
     21  CA       -15.6920  -17.8430   44.8100 C.3    32  VAL32       0.1727
     22  C        -17.2060  -17.6140   44.7460 C.2    32  VAL32       0.2616
     23  O        -17.7270  -16.6790   45.3300 O.2    32  VAL32      -0.2715
     24  CB       -15.2670  -17.9110   46.2990 C.3    32  VAL32       0.0290
     25  CG1      -15.9600  -19.0880   46.9710 C.3    32  VAL32       0.0023
     26  CG2      -13.7040  -18.0490   46.4500 C.3    32  VAL32       0.0023
     27  N        -17.9180  -18.5190   44.0940 N.am   33  LYS33      -0.1977
     28  CA       -19.3800  -18.5170   44.1490 C.3    33  LYS33       0.1596
     29  C        -19.8890  -19.3860   45.2960 C.2    33  LYS33       0.2287
     30  O        -19.5970  -20.5750   45.3680 O.2    33  LYS33      -0.2864
     31  CB       -19.9450  -18.9970   42.8160 C.3    33  LYS33       0.0298
     32  CG       -21.4360  -19.0600   42.7810 C.3    33  LYS33       0.0038
     33  CD       -21.9620  -19.1770   41.3750 C.3    33  LYS33       0.0206
     34  CE       -23.5460  -19.1750   41.3710 C.3    33  LYS33       0.1093
     35  NZ       -24.0170  -19.5010   39.9960 N.3    33  LYS33      -0.1314
     36  N        -22.4790  -27.5990   37.6960 N.3    46  GLU46      -0.1245
     37  CA       -21.2460  -26.9760   37.2290 C.3    46  GLU46       0.1567
     38  C        -20.1030  -27.8870   37.6000 C.2    46  GLU46       0.2260
     39  O        -19.2460  -28.1450   36.7970 O.2    46  GLU46      -0.2867
     40  CB       -21.0190  -25.5740   37.8160 C.3    46  GLU46       0.0388
     41  CG       -21.7910  -24.5100   37.1130 C.3    46  GLU46       0.1160
     42  CD       -21.1770  -23.1200   37.2330 C.2    46  GLU46       0.3649
     43  OE1      -21.5900  -22.3770   38.1410 O.co2  46  GLU46      -0.2457
     44  OE2      -20.3220  -22.7580   36.4000 O.co2  46  GLU46      -0.2457
     45  N        -14.8690  -19.7540   31.2860 N.3    61  LEU61      -0.1245
     46  CA       -14.4360  -19.4240   32.6440 C.3    61  LEU61       0.1561
     47  C        -13.6370  -20.6030   33.1780 C.2    61  LEU61       0.2260
     48  O        -14.1030  -21.7520   33.1430 O.2    61  LEU61      -0.2867
     49  CB       -15.6690  -19.1480   33.5630 C.3    61  LEU61       0.0270
     50  CG       -15.2330  -18.8280   35.0010 C.3    61  LEU61       0.0019
     51  CD1      -14.1090  -17.7060   35.0460 C.3    61  LEU61       0.0001
     52  CD2      -16.3700  -18.4450   35.9080 C.3    61  LEU61       0.0001
     53  N        -17.8850  -22.8700   44.4580 N.3    79  LEU79      -0.1245
     54  CA       -17.2750  -23.0890   43.1550 C.3    79  LEU79       0.1561
     55  C        -16.2000  -22.0360   43.0500 C.2    79  LEU79       0.2260
     56  O        -16.4680  -20.8560   43.2640 O.2    79  LEU79      -0.2867
     57  CB       -18.3030  -22.8890   42.0380 C.3    79  LEU79       0.0270
     58  CG       -17.8400  -23.2010   40.6370 C.3    79  LEU79       0.0019
     59  CD1      -18.0440  -24.6500   40.4260 C.3    79  LEU79       0.0001
     60  CD2      -18.5620  -22.4070   39.6290 C.3    79  LEU79       0.0001
     61  N        -13.1600  -20.3420   40.7480 N.3    81  THR81      -0.1203
     62  CA       -12.6870  -20.0830   39.3930 C.3    81  THR81       0.1994
     63  C        -11.6190  -19.0040   39.4100 C.2    81  THR81       0.2618
     64  O        -11.3430  -18.3490   40.4570 O.2    81  THR81      -0.2717
     65  CB       -13.8460  -19.6240   38.4650 C.3    81  THR81       0.1784
     66  OG1      -14.1960  -18.2640   38.7450 O.3    81  THR81      -0.2211
     67  CG2      -15.0710  -20.4900   38.6440 C.3    81  THR81       0.0376
     68  N        -10.9510  -18.8750   38.2630 N.am   82  HIS82      -0.1961
     69  CA       -10.1470  -17.6890   37.9690 C.3    82  HIS82       0.1787
     70  C        -10.9930  -16.4440   38.2090 C.2    82  HIS82       0.2620
     71  O        -12.2360  -16.4400   37.9750 O.2    82  HIS82      -0.2715
     72  CB        -9.6440  -17.6610   36.5130 C.3    82  HIS82       0.0785
     73  CG        -8.7610  -18.8130   36.1410 C.ar   82  HIS82       0.0821
     74  ND1       -8.5550  -19.1950   34.8310 N.ar   82  HIS82      -0.2267
     75  CD2       -8.0220  -19.6610   36.9020 C.ar   82  HIS82       0.1154
     76  CE1       -7.7390  -20.2380   34.8030 C.ar   82  HIS82       0.1986
     77  NE2       -7.3980  -20.5380   36.0450 N.ar   82  HIS82      -0.2212
     78  N        -10.3080  -15.3930   38.6600 N.am   83  TYR83      -0.1960
     79  CA       -10.9110  -14.1050   38.9440 C.3    83  TYR83       0.1771
     80  C        -10.6520  -13.1430   37.7750 C.2    83  TYR83       0.2620
     81  O         -9.5320  -12.9610   37.3780 O.2    83  TYR83      -0.2715
     82  CB       -10.3370  -13.5160   40.2480 C.3    83  TYR83       0.0574
     83  CG       -11.0010  -12.2090   40.6310 C.ar   83  TYR83      -0.0198
     84  CD1      -12.2710  -12.2000   41.1590 C.ar   83  TYR83      -0.0009
     85  CD2      -10.4010  -10.9900   40.3660 C.ar   83  TYR83      -0.0009
     86  CE1      -12.9030  -11.0360   41.4710 C.ar   83  TYR83       0.0417
     87  CE2      -11.0410   -9.7900   40.6810 C.ar   83  TYR83       0.0417
     88  CZ       -12.2920   -9.8340   41.2280 C.ar   83  TYR83       0.1957
     89  OH       -12.9760   -8.7000   41.5550 O.3    83  TYR83      -0.2866
     90  N        -11.6890  -12.5390   37.2230 N.am   84  HIS84      -0.1959
     91  CA       -11.4600  -11.5180   36.1710 C.3    84  HIS84       0.1787
     92  C        -11.7960  -10.1350   36.6810 C.2    84  HIS84       0.2620
     93  O        -12.9610   -9.7740   36.8410 O.2    84  HIS84      -0.2715
     94  CB       -12.1960  -11.8640   34.8600 C.3    84  HIS84       0.0785
     95  CG       -11.7580  -13.1690   34.2760 C.ar   84  HIS84       0.0821
     96  ND1      -10.5970  -13.3020   33.5510 N.ar   84  HIS84      -0.2267
     97  CD2      -12.2560  -14.4200   34.4200 C.ar   84  HIS84       0.1154
     98  CE1      -10.4130  -14.5730   33.2470 C.ar   84  HIS84       0.1986
     99  NE2      -11.4200  -15.2700   33.7450 N.ar   84  HIS84      -0.2212
    100  N        -10.7560   -9.3480   36.9180 N.am   85  GLU85      -0.1977
    101  CA       -10.9160   -8.0660   37.6000 C.3    85  GLU85       0.1602
    102  C        -11.6970   -7.0190   36.8070 C.2    85  GLU85       0.2287
    103  O        -12.2510   -6.1210   37.3950 O.2    85  GLU85      -0.2864
    104  CB        -9.5550   -7.5170   38.0270 C.3    85  GLU85       0.0415
    105  CG        -8.6330   -7.1160   36.9000 C.3    85  GLU85       0.1163
    106  CD        -7.2510   -6.6960   37.4130 C.2    85  GLU85       0.3649
    107  OE1       -6.8690   -5.5300   37.1990 O.co2  85  GLU85      -0.2457
    108  OE2       -6.5590   -7.5210   38.0580 O.co2  85  GLU85      -0.2457
    109  N        -14.3910   -7.5930   35.4660 N.3    87  GLY87      -0.1210
    110  CA       -15.7600   -7.8640   35.9130 C.3    87  GLY87       0.1956
    111  C        -16.5370   -8.4210   34.7510 C.2    87  GLY87       0.2612
    112  O        -15.9480   -8.8910   33.7720 O.2    87  GLY87      -0.2717
    113  N        -17.8520   -8.3300   34.8240 N.am   88  SER88      -0.1952
    114  CA       -18.6970   -8.8750   33.7850 C.3    88  SER88       0.1924
    115  C        -18.7980   -7.9470   32.5750 C.2    88  SER88       0.2314
    116  O        -18.5540   -6.7240   32.6850 O.2    88  SER88      -0.2863
    117  CB       -20.1090   -9.1240   34.3470 C.3    88  SER88       0.2116
    118  OG       -20.7400   -7.8780   34.6840 O.3    88  SER88      -0.2180
    119  N        -21.0900   -5.0780   33.3990 N.3    91  ASP91      -0.1239
    120  CA       -20.4990   -3.9480   34.1350 C.3    91  ASP91       0.1674
    121  C        -19.5910   -3.1270   33.2390 C.2    91  ASP91       0.2266
    122  O        -19.5250   -1.8990   33.3230 O.2    91  ASP91      -0.2867
    123  CB       -19.6830   -4.4340   35.3180 C.3    91  ASP91       0.1410
    124  CG       -20.5280   -4.9020   36.4740 C.2    91  ASP91       0.3668
    125  OD1      -21.7210   -4.6090   36.5390 O.co2  91  ASP91      -0.2456
    126  OD2      -19.9650   -5.5590   37.3510 O.co2  91  ASP91      -0.2456
    127  N        -24.3560  -10.5880   31.8550 N.3   138  LYS138     -0.1231
    128  CA       -23.9110  -10.8990   33.2370 C.3   138  LYS138      0.1693
    129  C        -23.1380  -12.2360   33.4060 C.2   138  LYS138      0.2592
    130  O        -22.4210  -12.4120   34.4060 O.2   138  LYS138     -0.2718
    131  CB       -25.1080  -10.8460   34.2120 C.3   138  LYS138      0.0285
    132  CG       -25.5380   -9.4150   34.5980 C.3   138  LYS138      0.0035
    133  CD       -26.6220   -9.4500   35.6560 C.3   138  LYS138      0.0206
    134  CE       -27.0830   -8.0130   36.0580 C.3   138  LYS138      0.1093
    135  NZ       -28.4840   -7.9470   36.7050 N.3   138  LYS138     -0.1314
    136  N        -23.2660  -13.1700   32.4370 N.am  139  ASN139     -0.1974
    137  CA       -22.5950  -14.4780   32.5180 C.3   139  ASN139      0.1688
    138  C        -21.4520  -14.5340   31.5370 C.2   139  ASN139      0.2292
    139  O        -21.1360  -15.5930   31.0180 O.2   139  ASN139     -0.2864
    140  CB       -23.5870  -15.6510   32.2560 C.3   139  ASN139      0.1181
    141  CG       -24.5350  -15.8990   33.4210 C.2   139  ASN139      0.2629
    142  OD1      -24.2140  -15.5720   34.5360 O.2   139  ASN139     -0.2716
    143  ND2      -25.7070  -16.4990   33.1550 N.am  139  ASN139     -0.0877
    144  N        -17.5480  -12.6920   31.2540 N.3   141  LEU141     -0.1245
    145  CA       -16.5340  -11.9020   31.9330 C.3   141  LEU141      0.1561
    146  C        -15.5210  -11.3000   30.9420 C.2   141  LEU141      0.2260
    147  O        -15.1860  -11.9220   29.9250 O.2   141  LEU141     -0.2867
    148  CB       -15.8070  -12.7830   32.9620 C.3   141  LEU141      0.0270
    149  CG       -16.7530  -13.3330   34.0550 C.3   141  LEU141      0.0019
    150  CD1      -16.1660  -14.5390   34.7080 C.3   141  LEU141      0.0001
    151  CD2      -17.1010  -12.2650   35.1040 C.3   141  LEU141      0.0001
    152  N        -19.2650  -17.9460   31.4400 N.3   151  ALA151     -0.1231
    153  CA       -19.3540  -18.3850   32.8490 C.3   151  ALA151      0.1694
    154  C        -20.7360  -18.9600   33.1250 C.2   151  ALA151      0.2592
    155  O        -21.6560  -18.7120   32.3530 O.2   151  ALA151     -0.2718
    156  CB       -19.0930  -17.2230   33.8000 C.3   151  ALA151      0.0304
    157  N        -20.8190  -19.8030   34.1770 N.am  152  ASP152     -0.1974
    158  CA       -22.0610  -20.3840   34.7320 C.3   152  ASP152      0.1709
    159  C        -22.6210  -21.5440   33.8850 C.2   152  ASP152      0.2293
    160  O        -23.5620  -21.3510   33.0930 O.2   152  ASP152     -0.2864
    161  CB       -23.1150  -19.3100   34.9840 C.3   152  ASP152      0.1436
    162  CG       -24.4030  -19.8510   35.6590 C.2   152  ASP152      0.3671
    163  OD1      -24.4820  -21.0820   35.9510 O.co2 152  ASP152     -0.2456
    164  OD2      -25.3190  -19.0070   35.9260 O.co2 152  ASP152     -0.2456
@<TRIPOS>BOND
     1   147   146    2
     2   146   145    1
     3   139   138    2
     4   144   145    1
     5    45    46    1
     6   152   153    1
     7   138   137    1
     8   127   128    1
     9   145   148    1
    10   140   137    1
    11   140   141    1
    12   155   154    2
    13   136   137    1
    14   136   129   am
    15   115   116    2
    16   115   114    1
    17    46    47    1
    18    46    49    1
    19   153   154    1
    20   153   156    1
    21   148   149    1
    22   160   159    2
    23   154   157   am
    24    48    47    2
    25   143   141   am
    26   128   129    1
    27   128   131    1
    28   121   122    2
    29   121   120    1
    30    98    96   ar
    31    98    99   ar
    32   119   120    1
    33   129   130    2
    34   141   142    2
    35    96    95   ar
    36    49    50    1
    37    99    97   ar
    38   112   111    2
    39   114   117    1
    40   114   113    1
    41   159   158    1
    42   149   150    1
    43   149   151    1
    44   120   123    1
    45   157   158    1
    46   131   132    1
    47    95    97   ar
    48    95    94    1
    49   117   118    1
    50   132   133    1
    51   158   161    1
    52   111   113   am
    53   111   110    1
    54    76    74   ar
    55    76    77   ar
    56    74    73   ar
    57    94    91    1
    58   161   162    1
    59    50    51    1
    60    50    52    1
    61   123   124    1
    62   109   110    1
    63   133   134    1
    64   162   164   ar
    65   162   163   ar
    66    77    75   ar
    67   134   135    1
    68    73    72    1
    69    73    75   ar
    70    91    92    1
    71    91    90    1
    72    44    42   ar
    73   124   125   ar
    74   124   126   ar
    75    72    69    1
    76    92    93    2
    77    92   100   am
    78    39    38    2
    79   102   103    2
    80   102   101    1
    81   105   106    1
    82   105   104    1
    83   100   101    1
    84    41    42    1
    85    41    40    1
    86   107   106   ar
    87    90    80   am
    88    37    38    1
    89    37    36    1
    90    37    40    1
    91    42    43   ar
    92    81    80    2
    93   106   108   ar
    94   101   104    1
    95    80    79    1
    96    69    70    1
    97    69    68    1
    98    71    70    2
    99    70    78   am
   100    68    63   am
   101    65    67    1
   102    65    66    1
   103    65    62    1
   104    78    79    1
   105    79    82    1
   106    62    63    1
   107    62    61    1
   108    63    64    2
   109    60    58    1
   110    35    34    1
   111    82    83    1
   112    85    83   ar
   113    85    87   ar
   114    59    58    1
   115    83    84   ar
   116    58    57    1
   117    87    88   ar
   118    19    16    1
   119    84    86   ar
   120    88    86   ar
   121    88    89    1
   122    34    33    1
   123    33    32    1
   124    14    12    1
   125    57    54    1
   126    15    16    1
   127     4     3    2
   128    13    12    1
   129    16    17    1
   130     7     5    1
   131    18    17    2
   132    32    31    1
   133    12     9    1
   134    31    28    1
   135     5     6    1
   136     5     2    1
   137    17    20   am
   138    55    54    1
   139    55    56    2
   140    54    53    1
   141     3     2    1
   142     2     1    1
   143    20    21    1
   144    27    28    1
   145    27    22   am
   146    28    29    1
   147     9     8    1
   148     9    10    1
   149    22    21    1
   150    22    23    2
   151    21    24    1
   152    10    11    2
   153    29    30    2
   154    24    26    1
   155    24    25    1
