@<TRIPOS>MOLECULE
tmp/3mtlA00.pdb
 181 173 0 0 0
SMALL
GASTEIGER

@<TRIPOS>ATOM
      1  N        -12.6970  -31.2430   16.4910 N.3    10  LEU10      -0.1231
      2  CA       -11.7490  -30.3320   17.1290 C.3    10  LEU10       0.1693
      3  C        -12.4520  -29.3810   18.0960 C.2    10  LEU10       0.2593
      4  O        -11.8540  -28.9690   19.0980 O.2    10  LEU10      -0.2718
      5  CB       -10.9640  -29.5260   16.0750 C.3    10  LEU10       0.0284
      6  CG        -9.8800  -30.2630   15.2850 C.3    10  LEU10       0.0019
      7  CD1       -9.4970  -29.4760   14.0440 C.3    10  LEU10       0.0001
      8  CD2       -8.6400  -30.5440   16.1520 C.3    10  LEU10       0.0001
      9  N        -13.7050  -29.0540   17.7820 N.am   11  GLY11      -0.1942
     10  CA       -14.5370  -28.1680   18.5840 C.3    11  GLY11       0.2014
     11  C        -15.9230  -27.9480   18.0150 C.2    11  GLY11       0.2638
     12  O        -16.2210  -28.3720   16.8950 O.2    11  GLY11      -0.2714
     13  N        -16.7730  -27.2740   18.7970 N.am   12  GLU12      -0.1977
     14  CA       -18.1600  -26.9400   18.4680 C.3    12  GLU12       0.1602
     15  C        -18.5420  -25.5080   18.8800 C.2    12  GLU12       0.2287
     16  O        -17.9330  -24.9100   19.7800 O.2    12  GLU12      -0.2864
     17  CB       -19.1060  -27.9070   19.1830 C.3    12  GLU12       0.0415
     18  CG       -19.3890  -29.1870   18.4320 C.3    12  GLU12       0.1163
     19  CD       -20.2200  -30.1860   19.2150 C.2    12  GLU12       0.3649
     20  OE1      -19.9300  -30.4050   20.4150 O.co2  12  GLU12      -0.2457
     21  OE2      -21.1480  -30.7750   18.6130 O.co2  12  GLU12      -0.2457
     22  N        -16.3370  -27.8740   14.0680 N.3    18  VAL18      -0.1245
     23  CA       -15.0510  -28.0540   13.3870 C.3    18  VAL18       0.1561
     24  C        -14.4720  -29.4440   13.5230 C.2    18  VAL18       0.2260
     25  O        -14.4700  -30.0090   14.6160 O.2    18  VAL18      -0.2867
     26  CB       -14.0000  -26.9390   13.6390 C.3    18  VAL18       0.0252
     27  CG1      -14.4710  -25.6070   13.0860 C.3    18  VAL18       0.0019
     28  CG2      -13.6460  -26.7990   15.1100 C.3    18  VAL18       0.0019
     29  N         -8.6790  -28.1900    7.9920 N.3    31  ALA31      -0.1245
     30  CA        -9.7200  -28.0210    9.0060 C.3    31  ALA31       0.1562
     31  C        -11.0150  -27.8390    8.2250 C.2    31  ALA31       0.2260
     32  O        -11.0550  -27.0530    7.2730 O.2    31  ALA31      -0.2867
     33  CB        -9.4450  -26.8240    9.8990 C.3    31  ALA31       0.0290
     34  N        -14.6100  -26.6890    8.5550 N.3    33  LYS33      -0.1245
     35  CA       -15.5760  -25.9480    9.3460 C.3    33  LYS33       0.1561
     36  C        -16.9800  -26.2020    8.7620 C.2    33  LYS33       0.2260
     37  O        -17.3280  -25.6840    7.6910 O.2    33  LYS33      -0.2867
     38  CB       -15.2080  -24.4540    9.3940 C.3    33  LYS33       0.0271
     39  CG       -16.0530  -23.6630   10.3690 C.3    33  LYS33       0.0035
     40  CD       -15.9320  -22.1720   10.1280 C.3    33  LYS33       0.0206
     41  CE       -16.8240  -21.4190   11.0700 C.3    33  LYS33       0.1093
     42  NZ       -16.5690  -19.9700   10.9810 N.3    33  LYS33      -0.1314
     43  N         -6.1520  -17.8840    9.8490 N.3    57  VAL57      -0.1245
     44  CA        -6.2520  -19.1570    9.1290 C.3    57  VAL57       0.1561
     45  C         -6.6850  -18.8650    7.6870 C.2    57  VAL57       0.2260
     46  O         -7.4480  -17.9220    7.4580 O.2    57  VAL57      -0.2867
     47  CB        -7.1010  -20.2430    9.8550 C.3    57  VAL57       0.0252
     48  CG1       -6.3890  -20.7260   11.1130 C.3    57  VAL57       0.0019
     49  CG2       -8.5170  -19.7530   10.1910 C.3    57  VAL57       0.0019
     50  N        -10.2030  -25.0790    5.6350 N.3    73  PHE73      -0.1227
     51  CA        -9.1050  -24.1930    6.0530 C.3    73  PHE73       0.1736
     52  C         -7.7710  -24.9260    6.2300 C.2    73  PHE73       0.2598
     53  O         -7.7410  -26.1620    6.2200 O.2    73  PHE73      -0.2717
     54  CB        -9.4700  -23.5380    7.3940 C.3    73  PHE73       0.0547
     55  CG       -10.5380  -22.4760    7.3210 C.ar   73  PHE73      -0.0202
     56  CD1      -11.8770  -22.7990    7.5150 C.ar   73  PHE73      -0.0042
     57  CD2      -10.2000  -21.1380    7.1180 C.ar   73  PHE73      -0.0042
     58  CE1      -12.8590  -21.8030    7.4920 C.ar   73  PHE73      -0.0003
     59  CE2      -11.1870  -20.1470    7.0780 C.ar   73  PHE73      -0.0003
     60  CZ       -12.5100  -20.4880    7.2410 C.ar   73  PHE73      -0.0000
     61  N         -6.6740  -24.1610    6.4710 N.am   74  GLU74      -0.1920
     62  CA        -5.3670  -24.7200    6.8340 C.3    74  GLU74       0.1949
     63  C         -5.5140  -25.2420    8.2840 C.2    74  GLU74       0.2659
     64  O         -6.3800  -24.7670    9.0190 O.2    74  GLU74      -0.2711
     65  CB        -4.2290  -23.6740    6.7310 C.2    74  GLU74       0.0111
     66  CG        -4.2880  -22.4930    7.6950 C.2    74  GLU74       0.0838
     67  CD        -3.0770  -21.5730    7.6710 C.2    74  GLU74       0.3877
     68  OE1       -1.9760  -22.0090    8.0850 O.co2  74  GLU74      -0.2406
     69  OE2       -3.2460  -20.3920    7.2890 O.co2  74  GLU74      -0.2406
     70  N         -4.7100  -26.2400    8.6540 N.am   75  TYR75      -0.1957
     71  CA        -4.7530  -26.8910    9.9620 C.3    75  TYR75       0.1771
     72  C         -3.5340  -26.5870   10.8450 C.2    75  TYR75       0.2619
     73  O         -2.3920  -26.5580   10.3640 O.2    75  TYR75      -0.2715
     74  CB        -4.9620  -28.4160    9.7830 C.3    75  TYR75       0.0574
     75  CG        -4.8840  -29.2420   11.0530 C.ar   75  TYR75      -0.0198
     76  CD1       -3.7240  -29.9290   11.3890 C.ar   75  TYR75      -0.0009
     77  CD2       -5.9880  -29.3750   11.8920 C.ar   75  TYR75      -0.0009
     78  CE1       -3.6430  -30.6860   12.5560 C.ar   75  TYR75       0.0417
     79  CE2       -5.9200  -30.1330   13.0660 C.ar   75  TYR75       0.0417
     80  CZ        -4.7490  -30.8050   13.3820 C.ar   75  TYR75       0.1957
     81  OH        -4.6630  -31.5870   14.5110 O.3    75  TYR75      -0.2866
     82  N         -3.8190  -26.3560   12.1450 N.am   76  LEU76      -0.1963
     83  CA        -2.9000  -26.1310   13.2740 C.3    76  LEU76       0.1728
     84  C         -3.3540  -27.1110   14.3700 C.2    76  LEU76       0.2616
     85  O         -4.5540  -27.1780   14.6670 O.2    76  LEU76      -0.2715
     86  CB        -2.9670  -24.6720   13.7630 C.3    76  LEU76       0.0311
     87  CG        -2.3140  -23.6310   12.8240 C.3    76  LEU76       0.0022
     88  CD1       -3.3010  -23.1250   11.7790 C.3    76  LEU76       0.0001
     89  CD2       -1.7870  -22.4490   13.6100 C.3    76  LEU76       0.0001
     90  N         -2.4120  -27.9380   14.8800 N.am   77  ASP77      -0.1957
     91  CA        -2.6460  -29.0630   15.8070 C.3    77  ASP77       0.1840
     92  C         -2.9460  -28.7720   17.2860 C.2    77  ASP77       0.2622
     93  O         -3.3430  -29.6810   18.0200 O.2    77  ASP77      -0.2715
     94  CB        -1.5370  -30.1370   15.6630 C.3    77  ASP77       0.1450
     95  CG        -0.2630  -29.8700   16.4550 C.2    77  ASP77       0.3671
     96  OD1        0.2220  -30.8060   17.1360 O.co2  77  ASP77      -0.2456
     97  OD2        0.2430  -28.7200   16.4060 O.co2  77  ASP77      -0.2456
     98  N         -2.7030  -27.5520   17.7360 N.am   78  LYS78      -0.1963
     99  CA        -2.9240  -27.1970   19.1250 C.3    78  LYS78       0.1728
    100  C         -3.4590  -25.7880   19.2170 C.2    78  LYS78       0.2616
    101  O         -3.0580  -24.9170   18.4240 O.2    78  LYS78      -0.2715
    102  CB        -1.6140  -27.3040   19.9330 C.3    78  LYS78       0.0311
    103  CG        -1.2000  -28.7190   20.2970 C.3    78  LYS78       0.0038
    104  CD         0.1670  -28.7160   20.9850 C.3    78  LYS78       0.0206
    105  CE         1.3040  -28.5060   19.9820 C.3    78  LYS78       0.1093
    106  NZ         1.6840  -27.0680   19.8270 N.3    78  LYS78      -0.1314
    107  N         -4.4040  -25.5780   20.1550 N.am   79  ASP79      -0.1971
    108  CA        -4.8910  -24.2510   20.4820 C.3    79  ASP79       0.1709
    109  C         -4.0600  -23.7550   21.7180 C.2    79  ASP79       0.2293
    110  O         -3.4070  -24.5760   22.3590 O.2    79  ASP79      -0.2864
    111  CB        -6.4410  -24.1660   20.6100 C.3    79  ASP79       0.1436
    112  CG        -7.1410  -24.7850   21.8230 C.2    79  ASP79       0.3671
    113  OD1       -6.5110  -24.8720   22.9000 O.co2  79  ASP79      -0.2456
    114  OD2       -8.3610  -25.0720   21.7210 O.co2  79  ASP79      -0.2456
    115  N         -4.3000  -25.6400   24.9210 N.3    82  GLN82      -0.1245
    116  CA        -3.6790  -26.9610   24.7680 C.3    82  GLN82       0.1566
    117  C         -2.1570  -26.8440   24.8510 C.2    82  GLN82       0.2260
    118  O         -1.5200  -27.6570   25.5020 O.2    82  GLN82      -0.2867
    119  CB        -4.0900  -27.6240   23.4350 C.3    82  GLN82       0.0367
    120  CG        -5.4120  -28.3860   23.5040 C.3    82  GLN82       0.0905
    121  CD        -5.9720  -28.8390   22.1710 C.2    82  GLN82       0.2608
    122  OE1       -7.1790  -29.0550   22.0360 O.2    82  GLN82      -0.2717
    123  NE2       -5.1320  -28.9890   21.1480 N.am   82  GLN82      -0.0878
    124  N        -10.5310  -15.5480   23.0030 N.3   121  LYS121     -0.1245
    125  CA       -10.1280  -16.4110   24.1260 C.3   121  LYS121      0.1561
    126  C         -9.0200  -17.4050   23.7050 C.2   121  LYS121      0.2260
    127  O         -8.9780  -17.7450   22.5450 O.2   121  LYS121     -0.2867
    128  CB       -11.3560  -17.1580   24.7040 C.3   121  LYS121      0.0271
    129  CG       -12.1400  -17.9320   23.6530 C.3   121  LYS121      0.0035
    130  CD       -13.3080  -18.7080   24.2170 C.3   121  LYS121      0.0206
    131  CE       -13.9380  -19.5180   23.1000 C.3   121  LYS121      0.1093
    132  NZ       -15.2740  -20.0580   23.4650 N.3   121  LYS121     -0.1314
    133  N         -8.8220  -20.5540   23.3250 N.3   123  GLN123     -0.1231
    134  CA        -9.2540  -21.6620   22.4760 C.3   123  GLN123      0.1698
    135  C         -9.4950  -21.3100   21.0190 C.2   123  GLN123      0.2592
    136  O         -9.5490  -22.2160   20.1740 O.2   123  GLN123     -0.2718
    137  CB       -10.3570  -22.5560   23.0990 C.3   123  GLN123      0.0381
    138  CG       -11.3590  -21.8830   24.0220 C.3   123  GLN123      0.0905
    139  CD       -10.8380  -21.6650   25.4340 C.2   123  GLN123      0.2608
    140  OE1      -10.4020  -20.5650   25.8050 O.2   123  GLN123     -0.2717
    141  NE2      -10.8770  -22.7010   26.2510 N.am  123  GLN123     -0.0878
    142  N         -9.5780  -19.9860   20.7200 N.am  124  ASN124     -0.1974
    143  CA        -9.7620  -19.4500   19.3750 C.3   124  ASN124      0.1688
    144  C         -8.4320  -19.0070   18.7520 C.2   124  ASN124      0.2292
    145  O         -8.3980  -18.5350   17.6310 O.2   124  ASN124     -0.2864
    146  CB       -10.8110  -18.3380   19.3800 C.3   124  ASN124      0.1181
    147  CG       -12.2330  -18.8460   19.3890 C.2   124  ASN124      0.2629
    148  OD1      -12.5440  -19.8990   18.8240 O.2   124  ASN124     -0.2716
    149  ND2      -13.1390  -18.0980   20.0090 N.am  124  ASN124     -0.0877
    150  N         -4.6760  -20.4340   17.7060 N.3   126  LEU126     -0.1245
    151  CA        -4.0260  -21.7050   17.3610 C.3   126  LEU126      0.1561
    152  C         -2.5030  -21.5800   17.1790 C.2   126  LEU126      0.2260
    153  O         -2.0200  -20.5340   16.7400 O.2   126  LEU126     -0.2867
    154  CB        -4.6710  -22.2760   16.0860 C.3   126  LEU126      0.0270
    155  CG        -6.2000  -22.1070   15.9210 C.3   126  LEU126      0.0019
    156  CD1       -6.6260  -22.3970   14.5330 C.3   126  LEU126      0.0001
    157  CD2       -6.9920  -22.9410   16.9420 C.3   126  LEU126      0.0001
    158  N         -8.3450  -18.2770   14.6430 N.3   136  ALA136     -0.1231
    159  CA        -9.2120  -19.2940   14.0340 C.3   136  ALA136      0.1694
    160  C        -10.4180  -18.5520   13.4800 C.2   136  ALA136      0.2592
    161  O        -10.7280  -17.4590   13.9620 O.2   136  ALA136     -0.2718
    162  CB        -9.6690  -20.2920   15.0840 C.3   136  ALA136      0.0304
    163  N        -11.0830  -19.1100   12.4530 N.am  137  ASP137     -0.1960
    164  CA       -12.2610  -18.4510   11.8910 C.3   137  ASP137      0.1840
    165  C        -13.4390  -18.9480   12.6750 C.2   137  ASP137      0.2622
    166  O        -14.1610  -19.8520   12.2470 O.2   137  ASP137     -0.2715
    167  CB       -12.4370  -18.6510   10.3620 C.3   137  ASP137      0.1450
    168  CG       -13.6940  -17.9610    9.8260 C.2   137  ASP137      0.3671
    169  OD1      -13.9720  -16.8150   10.2440 O.co2 137  ASP137     -0.2456
    170  OD2      -14.4390  -18.5970    9.0470 O.co2 137  ASP137     -0.2456
    171  N        -13.5800  -18.3880   13.8630 N.am  138  PHE138     -0.1974
    172  CA       -14.6010  -18.7370   14.8370 C.3   138  PHE138      0.1639
    173  C        -14.8030  -17.5090   15.7010 C.2   138  PHE138      0.2290
    174  O        -13.8470  -17.0320   16.3210 O.2   138  PHE138     -0.2864
    175  CB       -14.1330  -19.9410   15.6760 C.3   138  PHE138      0.0560
    176  CG       -15.1800  -21.0140   15.8040 C.ar  138  PHE138     -0.0200
    177  CD1      -16.0770  -21.0100   16.8670 C.ar  138  PHE138     -0.0042
    178  CD2      -15.2590  -22.0420   14.8760 C.ar  138  PHE138     -0.0042
    179  CE1      -17.0510  -22.0070   16.9840 C.ar  138  PHE138     -0.0003
    180  CE2      -16.2420  -23.0290   14.9840 C.ar  138  PHE138     -0.0003
    181  CZ       -17.1290  -23.0080   16.0370 C.ar  138  PHE138     -0.0000
@<TRIPOS>BOND
     1    50    51    1
     2    51    52    1
     3    51    54    1
     4    53    52    2
     5    52    61   am
     6    61    62    1
     7    65    62    1
     8    65    66    2
     9    62    63    1
    10    59    57   ar
    11    59    60   ar
    12    57    55   ar
    13    60    58   ar
    14    32    31    2
    15    69    67   ar
    16    55    54    1
    17    55    56   ar
    18    46    45    2
    19    58    56   ar
    20    67    66    1
    21    67    68   ar
    22    45    44    1
    23    37    36    2
    24    29    30    1
    25    31    30    1
    26    63    70   am
    27    63    64    2
    28    34    35    1
    29    70    71    1
    30    36    35    1
    31    30    33    1
    32   170   168   ar
    33    44    43    1
    34    44    47    1
    35    35    38    1
    36    38    39    1
    37    74    71    1
    38    74    75    1
    39   168   169   ar
    40   168   167    1
    41    47    49    1
    42    47    48    1
    43    71    72    1
    44    40    39    1
    45    40    41    1
    46   167   164    1
    47    73    72    2
    48    72    82   am
    49    42    41    1
    50    75    76   ar
    51    75    77   ar
    52    76    78   ar
    53    88    87    1
    54   164   163    1
    55   164   165    1
    56    77    79   ar
    57    82    83    1
    58   166   165    2
    59   163   160   am
    60    78    80   ar
    61   165   171   am
    62    87    89    1
    63    87    86    1
    64    79    80   ar
    65    27    26    1
    66    83    86    1
    67    83    84    1
    68    80    81    1
    69    23    24    1
    70    23    26    1
    71    23    22    1
    72   160   161    2
    73   160   159    1
    74    24    25    2
    75    26    28    1
    76   171   172    1
    77   159   158    1
    78   159   162    1
    79     7     6    1
    80    84    85    2
    81    84    90   am
    82   156   155    1
    83   172   175    1
    84   172   173    1
    85   178   180   ar
    86   178   176   ar
    87    90    91    1
    88   180   181   ar
    89     6     5    1
    90     6     8    1
    91    94    91    1
    92    94    95    1
    93   175   176    1
    94   173   174    2
    95   176   177   ar
    96    91    92    1
    97   155   154    1
    98   155   157    1
    99   181   179   ar
   100     5     2    1
   101   154   151    1
   102    97    95   ar
   103    95    96   ar
   104     1     2    1
   105   153   152    2
   106   177   179   ar
   107    12    11    2
   108     2     3    1
   109   152   151    1
   110    92    98   am
   111    92    93    2
   112   151   150    1
   113   145   144    2
   114    98    99    1
   115     9     3   am
   116     9    10    1
   117    11    10    1
   118    11    13   am
   119     3     4    2
   120   101   100    2
   121    18    17    1
   122    18    19    1
   123    14    13    1
   124    14    15    1
   125    14    17    1
   126    21    19   ar
   127   144   143    1
   128   148   147    2
   129    15    16    2
   130    99   100    1
   131    99   102    1
   132    19    20   ar
   133   100   107   am
   134   143   146    1
   135   143   142    1
   136   146   147    1
   137   147   149   am
   138   106   105    1
   139   102   103    1
   140   105   104    1
   141   107   108    1
   142   136   135    2
   143   103   104    1
   144   108   111    1
   145   108   109    1
   146   111   112    1
   147   142   135   am
   148   135   134    1
   149   123   121   am
   150   109   110    2
   151   114   112   ar
   152   112   113   ar
   153   122   121    2
   154   121   120    1
   155   134   137    1
   156   134   133    1
   157   127   126    2
   158   124   125    1
   159   137   138    1
   160   131   132    1
   161   131   130    1
   162   119   120    1
   163   119   116    1
   164   129   130    1
   165   129   128    1
   166   126   125    1
   167   138   139    1
   168   125   128    1
   169   116   117    1
   170   116   115    1
   171   117   118    2
   172   139   140    2
   173   139   141   am
