@<TRIPOS>MOLECULE
tmp/3mtwA00.pdb
 146 139 0 0 0
SMALL
GASTEIGER

@<TRIPOS>ATOM
      1  N         27.7520  119.7350   19.3260 N.3    64  HIS64      -0.1241
      2  CA        27.5970  119.0980   18.0270 C.3    64  HIS64       0.1621
      3  C         28.3130  117.7570   17.9970 C.2    64  HIS64       0.2264
      4  O         29.4920  117.6820   17.6290 O.2    64  HIS64      -0.2867
      5  CB        28.1440  120.0300   16.9320 C.3    64  HIS64       0.0745
      6  CG        27.7740  119.6160   15.5420 C.ar   64  HIS64       0.0817
      7  ND1       27.1350  120.4610   14.6570 N.ar   64  HIS64      -0.2268
      8  CD2       27.9490  118.4450   14.8870 C.ar   64  HIS64       0.1154
      9  CE1       26.9400  119.8270   13.5120 C.ar   64  HIS64       0.1986
     10  NE2       27.4170  118.6000   13.6300 N.ar   64  HIS64      -0.2212
     11  N         27.7610  113.2760   17.1730 N.3    66  HIS66      -0.1241
     12  CA        26.9650  112.1860   16.6080 C.3    66  HIS66       0.1621
     13  C         27.3900  110.8830   17.2960 C.2    66  HIS66       0.2264
     14  O         28.2440  110.1560   16.7960 O.2    66  HIS66      -0.2867
     15  CB        27.1840  112.0890   15.0900 C.3    66  HIS66       0.0745
     16  CG        26.8060  113.3330   14.3450 C.ar   66  HIS66       0.0817
     17  ND1       25.5070  113.6190   13.9830 N.ar   66  HIS66      -0.2268
     18  CD2       27.5570  114.3640   13.8910 C.ar   66  HIS66       0.1154
     19  CE1       25.4730  114.7740   13.3430 C.ar   66  HIS66       0.1986
     20  NE2       26.7040  115.2500   13.2830 N.ar   66  HIS66      -0.2212
     21  N         21.7280  117.2380    1.9080 N.3   145  HIS145     -0.1241
     22  CA        22.8150  116.7340    2.7410 C.3   145  HIS145      0.1621
     23  C         22.3210  115.7920    3.8440 C.2   145  HIS145      0.2264
     24  O         23.0700  114.9220    4.3010 O.2   145  HIS145     -0.2867
     25  CB        23.5870  117.9220    3.3340 C.3   145  HIS145      0.0745
     26  CG        24.6700  117.5300    4.2880 C.ar  145  HIS145      0.0817
     27  ND1       25.8620  116.9760    3.8730 N.ar  145  HIS145     -0.2268
     28  CD2       24.7510  117.6320    5.6370 C.ar  145  HIS145      0.1154
     29  CE1       26.6230  116.7340    4.9270 C.ar  145  HIS145      0.1986
     30  NE2       25.9730  117.1270    6.0090 N.ar  145  HIS145     -0.2212
     31  N         30.0240  118.3950    3.0410 N.3   191  VAL191     -0.1231
     32  CA        31.2790  117.7410    2.7270 C.3   191  VAL191      0.1692
     33  C         31.1190  116.2410    2.5190 C.2   191  VAL191      0.2592
     34  O         31.6710  115.6770    1.5750 O.2   191  VAL191     -0.2718
     35  CB        32.2930  117.9770    3.8720 C.3   191  VAL191      0.0266
     36  CG1       33.5230  117.0970    3.7090 C.3   191  VAL191      0.0020
     37  CG2       32.6780  119.4340    3.9320 C.3   191  VAL191      0.0020
     38  N         30.3680  115.5900    3.4020 N.am  192  PHE192     -0.1976
     39  CA        30.3480  114.1300    3.4310 C.3   192  PHE192      0.1639
     40  C         29.1550  113.4900    2.7260 C.2   192  PHE192      0.2290
     41  O         29.0680  112.2680    2.6440 O.2   192  PHE192     -0.2864
     42  CB        30.4700  113.6170    4.8660 C.3   192  PHE192      0.0560
     43  CG        31.8120  113.8980    5.4820 C.ar  192  PHE192     -0.0200
     44  CD1       32.9340  113.1930    5.0700 C.ar  192  PHE192     -0.0042
     45  CD2       31.9550  114.8760    6.4510 C.ar  192  PHE192     -0.0042
     46  CE1       34.1810  113.4460    5.6250 C.ar  192  PHE192     -0.0003
     47  CE2       33.2060  115.1430    7.0100 C.ar  192  PHE192     -0.0003
     48  CZ        34.3140  114.4250    6.6000 C.ar  192  PHE192     -0.0000
     49  N         22.4760  123.0200    9.9450 N.3   225  HIS225     -0.1241
     50  CA        23.6870  122.7580    9.1600 C.3   225  HIS225      0.1621
     51  C         23.7320  123.7700    8.0130 C.2   225  HIS225      0.2264
     52  O         22.8160  123.8240    7.2030 O.2   225  HIS225     -0.2867
     53  CB        23.6200  121.3330    8.5960 C.3   225  HIS225      0.0745
     54  CG        24.5580  121.0720    7.4520 C.ar  225  HIS225      0.0817
     55  ND1       25.7240  120.3490    7.5940 N.ar  225  HIS225     -0.2268
     56  CD2       24.4860  121.4110    6.1450 C.ar  225  HIS225      0.1154
     57  CE1       26.3400  120.2690    6.4280 C.ar  225  HIS225      0.1986
     58  NE2       25.6020  120.8950    5.5280 N.ar  225  HIS225     -0.2212
     59  N         26.8230  125.5730    5.4210 N.3   227  HIS227     -0.1241
     60  CA        28.1230  126.0510    4.9780 C.3   227  HIS227      0.1621
     61  C         27.9600  127.2990    4.1020 C.2   227  HIS227      0.2264
     62  O         28.5630  128.3400    4.3710 O.2   227  HIS227     -0.2867
     63  CB        28.8840  124.9790    4.1860 C.3   227  HIS227      0.0745
     64  CG        29.2560  123.7560    4.9750 C.ar  227  HIS227      0.0817
     65  ND1       30.2830  123.7380    5.8970 N.ar  227  HIS227     -0.2268
     66  CD2       28.7720  122.4900    4.9330 C.ar  227  HIS227      0.1154
     67  CE1       30.4050  122.5210    6.3970 C.ar  227  HIS227      0.1986
     68  NE2       29.5020  121.7440    5.8260 N.ar  227  HIS227     -0.2212
     69  N         28.5760  124.7380   11.5800 N.3   245  HIS245     -0.1241
     70  CA        29.6500  124.8610   10.5800 C.3   245  HIS245      0.1621
     71  C         29.8880  126.3190   10.2140 C.2   245  HIS245      0.2264
     72  O         30.9710  126.8610   10.4630 O.2   245  HIS245     -0.2867
     73  CB        29.3920  124.0260    9.3090 C.3   245  HIS245      0.0745
     74  CG        29.0060  122.6030    9.5730 C.ar  245  HIS245      0.0817
     75  ND1       29.8100  121.7220   10.2620 N.ar  245  HIS245     -0.2268
     76  CD2       27.8980  121.9040    9.2180 C.ar  245  HIS245      0.1154
     77  CE1       29.2120  120.5430   10.3310 C.ar  245  HIS245      0.1986
     78  NE2       28.0530  120.6270    9.6990 N.ar  245  HIS245     -0.2212
     79  N         32.9170  123.7850   13.7490 N.3   267  ASP267     -0.1239
     80  CA        33.7670  122.6220   13.9830 C.3   267  ASP267      0.1674
     81  C         35.0860  122.7460   13.2340 C.2   267  ASP267      0.2266
     82  O         35.3040  122.0760   12.2200 O.2   267  ASP267     -0.2867
     83  CB        33.0480  121.3280   13.5670 C.3   267  ASP267      0.1410
     84  CG        32.5520  121.3490   12.1100 C.2   267  ASP267      0.3668
     85  OD1       32.0700  122.4020   11.6240 O.co2 267  ASP267     -0.2456
     86  OD2       32.6090  120.2900   11.4460 O.co2 267  ASP267     -0.2456
     87  N         38.1450  119.3230   13.0850 N.3   270  ASN270     -0.1225
     88  CA        38.1240  117.9780   12.5110 C.3   270  ASN270      0.1785
     89  C         38.7420  117.7960   11.1160 C.2   270  ASN270      0.2597
     90  O         39.0990  116.6810   10.7540 O.2   270  ASN270     -0.2718
     91  CB        36.7240  117.3670   12.5730 C.3   270  ASN270      0.1169
     92  CG        35.7020  118.1830   11.8180 C.2   270  ASN270      0.2627
     93  OD1       35.9260  118.5780   10.6790 O.2   270  ASN270     -0.2716
     94  ND2       34.5740  118.4570   12.4620 N.am  270  ASN270     -0.0877
     95  N         38.8800  118.8710   10.3440 N.am  271  THR271     -0.1953
     96  CA        39.5290  118.7540    9.0360 C.3   271  THR271      0.1897
     97  C         40.9160  118.1010    9.1600 C.2   271  THR271      0.2313
     98  O         41.3320  117.3340    8.2760 O.2   271  THR271     -0.2863
     99  CB        39.6130  120.1060    8.2880 C.3   271  THR271      0.1794
    100  OG1       40.1250  119.8930    6.9630 O.3   271  THR271     -0.2208
    101  CG2       40.5330  121.0820    9.0300 C.3   271  THR271      0.0378
    102  N         36.1030  118.6750    1.7380 N.3   291  ASP291     -0.1239
    103  CA        36.6190  119.0240    3.0580 C.3   291  ASP291      0.1674
    104  C         37.7680  120.0210    2.9270 C.2   291  ASP291      0.2266
    105  O         37.8550  120.9790    3.6870 O.2   291  ASP291     -0.2867
    106  CB        37.0840  117.7840    3.8330 C.3   291  ASP291      0.1410
    107  CG        37.5590  118.1280    5.2440 C.2   291  ASP291      0.3668
    108  OD1       36.7240  118.5740    6.0640 O.co2 291  ASP291     -0.2456
    109  OD2       38.7620  117.9550    5.5300 O.co2 291  ASP291     -0.2456
    110  N         36.6690  123.6610    2.2410 N.3   294  ILE294     -0.1231
    111  CA        36.0850  124.4850    3.2980 C.3   294  ILE294      0.1692
    112  C         36.9470  124.6270    4.5580 C.2   294  ILE294      0.2592
    113  O         36.7530  125.5650    5.3340 O.2   294  ILE294     -0.2718
    114  CB        34.6760  123.9930    3.6920 C.3   294  ILE294      0.0266
    115  CG1       34.7560  122.6860    4.4670 C.3   294  ILE294      0.0019
    116  CG2       33.8000  123.8090    2.4610 C.3   294  ILE294      0.0020
    117  CD1       33.4700  122.3710    5.1960 C.3   294  ILE294      0.0001
    118  N         37.8920  123.7110    4.7570 N.am  295  GLY295     -0.1957
    119  CA        38.6970  123.6830    5.9770 C.3   295  GLY295      0.1869
    120  C         39.3330  124.9900    6.4280 C.2   295  GLY295      0.2309
    121  O         39.0610  125.4900    7.5270 O.2   295  GLY295     -0.2863
    122  N         36.7800  128.0510    6.6670 N.3   298  GLN298     -0.1245
    123  CA        35.9590  127.9910    7.8780 C.3   298  GLN298      0.1566
    124  C         36.7170  128.5840    9.0590 C.2   298  GLN298      0.2260
    125  O         36.1590  129.3410    9.8490 O.2   298  GLN298     -0.2867
    126  CB        35.5350  126.5470    8.1950 C.3   298  GLN298      0.0367
    127  CG        34.5880  126.4450    9.3970 C.3   298  GLN298      0.0905
    128  CD        34.2920  125.0110    9.8010 C.2   298  GLN298      0.2608
    129  OE1       35.1110  124.1140    9.5930 O.2   298  GLN298     -0.2717
    130  NE2       33.1150  124.7900   10.4010 N.am  298  GLN298     -0.0878
    131  N         31.6080  118.2760   16.0460 N.3   317  ASP317     -0.1239
    132  CA        31.2550  117.1890   15.1260 C.3   317  ASP317      0.1674
    133  C         31.9580  115.8660   15.4750 C.2   317  ASP317      0.2266
    134  O         32.3840  115.1290   14.5870 O.2   317  ASP317     -0.2867
    135  CB        31.5390  117.5880   13.6570 C.3   317  ASP317      0.1410
    136  CG        30.4070  117.1990   12.7150 C.2   317  ASP317      0.3668
    137  OD1       29.4740  116.4750   13.1560 O.co2 317  ASP317     -0.2456
    138  OD2       30.4510  117.6130   11.5360 O.co2 317  ASP317     -0.2456
    139  N         32.7900  112.5220   13.2690 N.3   320  ILE320     -0.1245
    140  CA        33.6380  112.7930   12.1110 C.3   320  ILE320      0.1561
    141  C         35.0890  112.4850   12.4800 C.2   320  ILE320      0.2260
    142  O         35.8540  111.9760   11.6550 O.2   320  ILE320     -0.2867
    143  CB        33.4940  114.2470   11.6540 C.3   320  ILE320      0.0252
    144  CG1       32.0560  114.5160   11.2060 C.3   320  ILE320      0.0019
    145  CG2       34.4800  114.5690   10.5310 C.3   320  ILE320      0.0019
    146  CD1       31.5850  113.6280   10.0650 C.3   320  ILE320      0.0001
@<TRIPOS>BOND
     1    34    33    2
     2   102   103    1
     3    21    22    1
     4   110   111    1
     5   116   114    1
     6    33    32    1
     7    33    38   am
     8    41    40    2
     9    40    39    1
    10    32    31    1
    11    32    35    1
    12    22    25    1
    13    22    23    1
    14   104   103    1
    15   104   105    2
    16   103   106    1
    17   111   114    1
    18   111   112    1
    19    25    26    1
    20    38    39    1
    21    39    42    1
    22   114   115    1
    23    36    35    1
    24   106   107    1
    25    23    24    2
    26    35    37    1
    27    27    26   ar
    28    27    29   ar
    29    61    62    2
    30    61    60    1
    31    63    64    1
    32    63    60    1
    33    26    28   ar
    34   115   117    1
    35   112   118   am
    36   112   113    2
    37   118   119    1
    38    42    43    1
    39    29    30   ar
    40    66    64   ar
    41    66    68   ar
    42    64    65   ar
    43    60    59    1
    44    44    43   ar
    45    44    46   ar
    46   107   109   ar
    47   107   108   ar
    48    43    45   ar
    49    58    56   ar
    50    58    57   ar
    51    46    48   ar
    52    28    30   ar
    53    68    67   ar
    54    65    67   ar
    55   119   120    1
    56    56    54   ar
    57   120   121    2
    58    57    55   ar
    59    45    47   ar
    60    48    47   ar
    61   122   123    1
    62   100    99    1
    63    52    51    2
    64    54    55   ar
    65    54    53    1
    66   123   126    1
    67   123   124    1
    68    51    50    1
    69   126   127    1
    70    98    97    2
    71    99   101    1
    72    99    96    1
    73    53    50    1
    74    96    97    1
    75    96    95    1
    76   124   125    2
    77    50    49    1
    78    76    74   ar
    79    76    78   ar
    80    73    74    1
    81    73    70    1
    82   127   128    1
    83    74    75   ar
    84   129   128    2
    85    78    77   ar
    86   128   130   am
    87   146   144    1
    88    71    72    2
    89    71    70    1
    90    75    77   ar
    91    95    89   am
    92   145   143    1
    93    70    69    1
    94    93    92    2
    95    90    89    2
    96    89    88    1
    97   144   143    1
    98    86    84   ar
    99   138   136   ar
   100    85    84   ar
   101   143   140    1
   102   142   141    2
   103    92    94   am
   104    92    91    1
   105    84    83    1
   106   140   141    1
   107   140   139    1
   108    82    81    2
   109    88    91    1
   110    88    87    1
   111   136   137   ar
   112   136   135    1
   113    81    80    1
   114    20    19   ar
   115    20    18   ar
   116    19    17   ar
   117     9    10   ar
   118     9     7   ar
   119    83    80    1
   120    10     8   ar
   121   135   132    1
   122    79    80    1
   123    18    16   ar
   124    17    16   ar
   125    16    15    1
   126   134   133    2
   127     7     6   ar
   128     8     6   ar
   129    15    12    1
   130   132   133    1
   131   132   131    1
   132     6     5    1
   133    12    11    1
   134    12    13    1
   135    14    13    2
   136     5     2    1
   137     4     3    2
   138     3     2    1
   139     2     1    1
