@<TRIPOS>MOLECULE
tmp/3mu3A00.pdb
 220 207 0 0 0
SMALL
GASTEIGER

@<TRIPOS>ATOM
      1  N         -8.5520    9.4780  -17.4900 N.3    26  PHE26      -0.1241
      2  CA        -7.6810    8.3620  -17.8240 C.3    26  PHE26       0.1605
      3  C         -8.4460    7.0500  -17.7350 C.2    26  PHE26       0.2264
      4  O         -9.4950    6.9980  -17.1390 O.2    26  PHE26      -0.2867
      5  CB        -6.5000    8.3200  -16.8640 C.3    26  PHE26       0.0534
      6  CG        -6.8660    7.9700  -15.4800 C.ar   26  PHE26      -0.0203
      7  CD1       -7.1950    8.9610  -14.5730 C.ar   26  PHE26      -0.0042
      8  CD2       -6.8050    6.6660  -15.0380 C.ar   26  PHE26      -0.0042
      9  CE1       -7.5160    8.6540  -13.2780 C.ar   26  PHE26      -0.0003
     10  CE2       -7.1390    6.3550  -13.7260 C.ar   26  PHE26      -0.0003
     11  CZ        -7.4380    7.3570  -12.8420 C.ar   26  PHE26      -0.0000
     12  N         -8.7300    3.0640  -16.4570 N.3    28  PHE28      -0.1241
     13  CA        -8.2080    2.1700  -15.4140 C.3    28  PHE28       0.1605
     14  C         -9.1170    0.9680  -15.2520 C.2    28  PHE28       0.2264
     15  O        -10.3200    1.0990  -15.3490 O.2    28  PHE28      -0.2867
     16  CB        -8.1010    2.9520  -14.0980 C.3    28  PHE28       0.0534
     17  CG        -7.4440    2.2000  -12.9950 C.ar   28  PHE28      -0.0203
     18  CD1       -8.1870    1.3240  -12.1890 C.ar   28  PHE28      -0.0042
     19  CD2       -6.1280    2.4780  -12.6450 C.ar   28  PHE28      -0.0042
     20  CE1       -7.6410    0.7270  -11.0820 C.ar   28  PHE28      -0.0003
     21  CE2       -5.5420    1.8200  -11.5570 C.ar   28  PHE28      -0.0003
     22  CZ        -6.3110    0.9220  -10.7840 C.ar   28  PHE28      -0.0000
     23  N         -3.5550   -4.6960  -12.9060 N.3    43  ILE43      -0.1245
     24  CA        -4.2950   -3.5520  -13.4050 C.3    43  ILE43       0.1561
     25  C         -3.9640   -3.2640  -14.8660 C.2    43  ILE43       0.2260
     26  O         -2.9790   -3.8120  -15.4260 O.2    43  ILE43      -0.2867
     27  CB        -4.1040   -2.2860  -12.5060 C.3    43  ILE43       0.0252
     28  CG1       -2.7470   -1.5840  -12.7170 C.3    43  ILE43       0.0019
     29  CG2       -4.2010   -2.6720  -11.0440 C.3    43  ILE43       0.0019
     30  CD1       -2.7470   -0.1260  -12.2840 C.3    43  ILE43       0.0001
     31  N         -4.0580    0.4260  -17.1900 N.3    45  ALA45      -0.1245
     32  CA        -4.2380    1.8530  -17.1210 C.3    45  ALA45       0.1562
     33  C         -3.6710    2.4750  -18.3680 C.2    45  ALA45       0.2260
     34  O         -2.6390    2.0130  -18.8480 O.2    45  ALA45      -0.2867
     35  CB        -3.5580    2.4010  -15.9140 C.3    45  ALA45       0.0290
     36  N         -3.2660    6.6470  -20.1340 N.3    47  MET47      -0.1245
     37  CA        -3.5000    8.0900  -20.1750 C.3    47  MET47       0.1570
     38  C         -2.4790    8.7570  -21.0460 C.2    47  MET47       0.2261
     39  O         -1.4090    8.1880  -21.3140 O.2    47  MET47      -0.2867
     40  CB        -3.4450    8.7340  -18.7950 C.3    47  MET47       0.0387
     41  CG        -2.3730    8.2240  -17.8800 C.3    47  MET47       0.0595
     42  SD        -1.4750    9.4500  -16.8660 S.3    47  MET47      -0.1393
     43  CE        -2.5470   10.9270  -16.8660 C.3    47  MET47       0.0692
     44  N          8.7910   11.0370  -10.8660 N.3    56  LEU56      -0.1245
     45  CA         7.3870   10.7390  -10.5820 C.3    56  LEU56       0.1561
     46  C          7.2230   10.3720   -9.1200 C.2    56  LEU56       0.2260
     47  O          7.8210    9.4060   -8.6590 O.2    56  LEU56      -0.2867
     48  CB         6.8740    9.5880  -11.4800 C.3    56  LEU56       0.0270
     49  CG         5.3470    9.3610  -11.5920 C.3    56  LEU56       0.0019
     50  CD1        4.6560   10.5600  -12.1930 C.3    56  LEU56       0.0001
     51  CD2        5.0600    8.1380  -12.4310 C.3    56  LEU56       0.0001
     52  N          4.0930    9.5590   -6.1610 N.3    58  ALA58      -0.1245
     53  CA         2.7090    9.3050   -5.8130 C.3    58  ALA58       0.1562
     54  C          2.5540    9.8860   -4.4570 C.2    58  ALA58       0.2260
     55  O          3.4170    9.6430   -3.6040 O.2    58  ALA58      -0.2867
     56  CB         2.4130    7.7490   -5.7630 C.3    58  ALA58       0.0290
     57  N         -0.6750    9.3360   -1.7660 N.3    60  VAL60      -0.1245
     58  CA        -1.8860    8.5590   -1.5700 C.3    60  VAL60       0.1561
     59  C         -2.5300    8.9720   -0.2510 C.2    60  VAL60       0.2260
     60  O         -1.9510    8.7430    0.7960 O.2    60  VAL60      -0.2867
     61  CB        -1.5700    7.0520   -1.5090 C.3    60  VAL60       0.0252
     62  CG1       -2.8380    6.2530   -1.2210 C.3    60  VAL60       0.0019
     63  CG2       -0.8840    6.5620   -2.8320 C.3    60  VAL60       0.0019
     64  N          0.3580    9.1270    2.5260 N.3    72  TYR72      -0.1241
     65  CA         1.5360    8.3030    2.1800 C.3    72  TYR72       0.1605
     66  C          2.1470    8.8410    0.8880 C.2    72  TYR72       0.2264
     67  O          1.4370    8.9440   -0.1350 O.2    72  TYR72      -0.2867
     68  CB         1.1500    6.8120    1.9940 C.3    72  TYR72       0.0534
     69  CG         2.2020    5.9500    1.2900 C.ar   72  TYR72      -0.0201
     70  CD1        3.3460    5.5260    1.9700 C.ar   72  TYR72      -0.0009
     71  CD2        2.0010    5.4700    0.0050 C.ar   72  TYR72      -0.0009
     72  CE1        4.3310    4.7220    1.3470 C.ar   72  TYR72       0.0417
     73  CE2        2.9410    4.6350   -0.6090 C.ar   72  TYR72       0.0417
     74  CZ         4.1220    4.2690    0.0530 C.ar   72  TYR72       0.1957
     75  OH         5.0780    3.4230   -0.5380 O.3    72  TYR72      -0.2866
     76  N          5.3650    8.1720   -1.9920 N.3    74  GLU74      -0.1245
     77  CA         6.3920    7.2870   -2.5840 C.3    74  GLU74       0.1567
     78  C          6.9660    7.9120   -3.8270 C.2    74  GLU74       0.2260
     79  O          6.2200    8.4450   -4.6060 O.2    74  GLU74      -0.2867
     80  CB         5.7530    5.9480   -2.9760 C.3    74  GLU74       0.0388
     81  CG         6.7000    4.8010   -3.2480 C.3    74  GLU74       0.1160
     82  CD         5.9620    3.5860   -3.7460 C.2    74  GLU74       0.3649
     83  OE1        4.7470    3.6810   -4.0340 O.co2  74  GLU74      -0.2457
     84  OE2        6.5700    2.5130   -3.7600 O.co2  74  GLU74      -0.2457
     85  N          8.3290    7.0890   -7.4330 N.3    76  LEU76      -0.1245
     86  CA         8.1740    6.0330   -8.4420 C.3    76  LEU76       0.1561
     87  C          9.2010    6.1590   -9.5850 C.2    76  LEU76       0.2260
     88  O          9.6260    5.1400  -10.1010 O.2    76  LEU76      -0.2867
     89  CB         6.7500    6.0050   -9.0140 C.3    76  LEU76       0.0270
     90  CG         5.6010    5.5380   -8.1040 C.3    76  LEU76       0.0019
     91  CD1        4.2480    5.8330   -8.8110 C.3    76  LEU76       0.0001
     92  CD2        5.7180    4.0550   -7.7560 C.3    76  LEU76       0.0001
     93  N         13.9780    4.3310   -9.3930 N.3    82  SER82      -0.1202
     94  CA        12.9750    4.1460  -10.4620 C.3    82  SER82       0.2020
     95  C         12.2920    2.7460  -10.4750 C.2    82  SER82       0.2619
     96  O         12.9320    1.7410  -10.3170 O.2    82  SER82      -0.2717
     97  CB        13.5600    4.4950  -11.8400 C.3    82  SER82       0.2103
     98  OG        13.4570    5.9040  -12.1050 O.3    82  SER82      -0.2182
     99  N         10.9710    2.7360  -10.6280 N.am   83  LYS83      -0.1965
    100  CA        10.0910    1.6230  -10.2370 C.3    83  LYS83       0.1728
    101  C          9.0910    1.2410  -11.3560 C.2    83  LYS83       0.2616
    102  O          8.1510    0.4830  -11.1240 O.2    83  LYS83      -0.2715
    103  CB         9.3020    2.0060   -8.9680 C.3    83  LYS83       0.0311
    104  CG         9.7480    1.3110   -7.6830 C.3    83  LYS83       0.0038
    105  CD         9.0280    1.8560   -6.4490 C.3    83  LYS83       0.0206
    106  CE         9.9470    1.9690   -5.2120 C.3    83  LYS83       0.1093
    107  NZ         9.6470    3.2570   -4.4200 N.3    83  LYS83      -0.1314
    108  N          9.2920    1.7720  -12.5620 N.am   84  LEU84      -0.1977
    109  CA         8.3120    1.6990  -13.6290 C.3    84  LEU84       0.1596
    110  C          9.0740    1.8100  -14.9370 C.2    84  LEU84       0.2287
    111  O          9.8430    2.7330  -15.1230 O.2    84  LEU84      -0.2864
    112  CB         7.3080    2.8540  -13.5300 C.3    84  LEU84       0.0297
    113  CG         6.2380    2.7640  -12.4390 C.3    84  LEU84       0.0022
    114  CD1        5.6780    4.1450  -12.1710 C.3    84  LEU84       0.0001
    115  CD2        5.1450    1.7940  -12.8380 C.3    84  LEU84       0.0001
    116  N          8.3460    2.6680  -17.6850 N.3    86  PHE86      -0.1241
    117  CA         7.9180    3.8440  -18.4330 C.3    86  PHE86       0.1605
    118  C          8.2200    5.2010  -17.7370 C.2    86  PHE86       0.2264
    119  O          7.7820    6.2500  -18.2170 O.2    86  PHE86      -0.2867
    120  CB         6.4200    3.7230  -18.7320 C.3    86  PHE86       0.0534
    121  CG         5.5250    3.7430  -17.4910 C.ar   86  PHE86      -0.0203
    122  CD1        5.1410    4.9480  -16.9010 C.ar   86  PHE86      -0.0042
    123  CD2        4.9340    2.5660  -17.0220 C.ar   86  PHE86      -0.0042
    124  CE1        4.2740    4.9700  -15.8060 C.ar   86  PHE86      -0.0003
    125  CE2        4.0460    2.5980  -15.9320 C.ar   86  PHE86      -0.0003
    126  CZ         3.7130    3.7990  -15.3360 C.ar   86  PHE86      -0.0000
    127  N          1.0660    6.9950  -22.1320 N.3    95  LEU95      -0.1245
    128  CA         1.4030    5.9870  -21.0850 C.3    95  LEU95       0.1561
    129  C          0.4560    4.7970  -21.1650 C.2    95  LEU95       0.2260
    130  O         -0.7610    4.9890  -21.3920 O.2    95  LEU95      -0.2867
    131  CB         1.2770    6.5890  -19.6700 C.3    95  LEU95       0.0270
    132  CG         2.2680    6.1780  -18.5900 C.3    95  LEU95       0.0019
    133  CD1        3.3230    7.2570  -18.5370 C.3    95  LEU95       0.0001
    134  CD2        1.6070    6.0340  -17.2310 C.3    95  LEU95       0.0001
    135  N          0.1140    0.9250  -18.8660 N.3    97  TYR97      -0.1241
    136  CA         0.5280   -0.0290  -17.8820 C.3    97  TYR97       0.1605
    137  C         -0.4810   -1.1930  -17.8400 C.2    97  TYR97       0.2264
    138  O         -1.6770   -1.0030  -17.6730 O.2    97  TYR97      -0.2867
    139  CB         0.6470    0.6570  -16.5110 C.3    97  TYR97       0.0534
    140  CG         1.2570   -0.2270  -15.4170 C.ar   97  TYR97      -0.0201
    141  CD1        2.6150   -0.5420  -15.4270 C.ar   97  TYR97      -0.0009
    142  CD2        0.4570   -0.7990  -14.4110 C.ar   97  TYR97      -0.0009
    143  CE1        3.1680   -1.3780  -14.4660 C.ar   97  TYR97       0.0417
    144  CE2        1.0260   -1.5950  -13.4100 C.ar   97  TYR97       0.0417
    145  CZ         2.3780   -1.8830  -13.4450 C.ar   97  TYR97       0.1957
    146  OH         2.9260   -2.7040  -12.4720 O.3    97  TYR97      -0.2866
    147  N          0.8780   -5.8010  -12.1190 N.3   100  PRO100     -0.2102
    148  CA         0.3790   -5.8050  -10.7570 C.3   100  PRO100      0.1504
    149  C          0.7000   -4.5060  -10.0550 C.2   100  PRO100      0.2576
    150  O          1.8030   -3.9850  -10.2050 O.2   100  PRO100     -0.2718
    151  CB         1.1360   -6.9610  -10.1110 C.3   100  PRO100      0.0282
    152  CG         2.4530   -6.9590  -10.8140 C.3   100  PRO100      0.0208
    153  CD         2.1540   -6.5250  -12.2280 C.3   100  PRO100      0.0893
    154  N         -0.2530   -3.9860   -9.3010 N.am  101  ILE101     -0.1966
    155  CA         0.0790   -3.3460   -8.0520 C.3   101  ILE101      0.1727
    156  C          0.4120   -4.4110   -6.9910 C.2   101  ILE101      0.2617
    157  O         -0.4770   -5.1290   -6.5330 O.2   101  ILE101     -0.2715
    158  CB        -1.0570   -2.5000   -7.5310 C.3   101  ILE101      0.0290
    159  CG1       -1.2120   -1.2360   -8.3950 C.3   101  ILE101      0.0022
    160  CG2       -0.7590   -2.1330   -6.0670 C.3   101  ILE101      0.0023
    161  CD1       -2.4190   -0.2900   -7.9680 C.3   101  ILE101      0.0001
    162  N          1.6790   -4.4770   -6.5750 N.am  102  THR102     -0.1937
    163  CA         2.0340   -5.1080   -5.3060 C.3   102  THR102      0.2028
    164  C          1.8180   -4.1630   -4.1160 C.2   102  THR102      0.2642
    165  O          1.1600   -3.1450   -4.2380 O.2   102  THR102     -0.2714
    166  CB         3.4830   -5.6280   -5.3130 C.3   102  THR102      0.1808
    167  OG1        4.0600   -5.5530   -6.6380 O.3   102  THR102     -0.2208
    168  CG2        3.5440   -7.0880   -4.7570 C.3   102  THR102      0.0379
    169  N          2.2480   -4.5710   -2.9330 N.am  103  LEU103     -0.1963
    170  CA         1.6500   -4.0780   -1.6980 C.3   103  LEU103      0.1728
    171  C          2.3890   -4.6570   -0.4660 C.2   103  LEU103      0.2616
    172  O          2.4900   -5.8800   -0.3190 O.2   103  LEU103     -0.2715
    173  CB         0.1510   -4.4210   -1.6850 C.3   103  LEU103      0.0311
    174  CG        -0.9690   -3.4050   -1.8890 C.3   103  LEU103      0.0022
    175  CD1       -2.2940   -4.1460   -1.8010 C.3   103  LEU103      0.0001
    176  CD2       -0.9060   -2.3010   -0.8400 C.3   103  LEU103      0.0001
    177  N          3.1570   -3.7880    0.2030 N.am  104  GLY104     -0.1955
    178  CA         3.5500   -3.9720    1.6040 C.3   104  GLY104      0.1869
    179  C          2.4050   -4.1350    2.5800 C.2   104  GLY104      0.2309
    180  O          2.5070   -4.9540    3.5010 O.2   104  GLY104     -0.2863
    181  N         -5.3450    9.5580   -5.0380 N.3   117  ALA117     -0.1245
    182  CA        -4.0240    9.1400   -5.5250 C.3   117  ALA117      0.1562
    183  C         -3.5860   10.1740   -6.5100 C.2   117  ALA117      0.2260
    184  O         -4.1170   10.2570   -7.6230 O.2   117  ALA117     -0.2867
    185  CB        -4.0820    7.7540   -6.2100 C.3   117  ALA117      0.0290
    186  N         -0.4560   11.6550   -8.7010 N.3   119  LEU119     -0.1245
    187  CA         0.9140   11.5980   -9.2320 C.3   119  LEU119      0.1561
    188  C          1.3960   13.0170   -9.6430 C.2   119  LEU119      0.2260
    189  O          0.6320   13.7730  -10.2820 O.2   119  LEU119     -0.2867
    190  CB         1.0100   10.6370  -10.4140 C.3   119  LEU119      0.0270
    191  CG         0.4550    9.2640  -10.1680 C.3   119  LEU119      0.0019
    192  CD1        0.7920    8.2980  -11.3150 C.3   119  LEU119      0.0001
    193  CD2        1.0240    8.8070   -8.9020 C.3   119  LEU119      0.0001
    194  N         -1.2770   12.9640  -12.9340 N.3   128  ALA128     -0.1231
    195  CA        -2.5770   12.2560  -12.8370 C.3   128  ALA128      0.1694
    196  C         -3.0170   12.3520  -11.4040 C.2   128  ALA128      0.2592
    197  O         -2.1890   12.5900  -10.5160 O.2   128  ALA128     -0.2718
    198  CB        -2.4630   10.7950  -13.2530 C.3   128  ALA128      0.0304
    199  N         -4.3270   12.3190  -11.2220 N.am  129  CYS129     -0.1956
    200  CA        -4.9900   12.4390   -9.9170 C.3   129  CYS129      0.1843
    201  C         -6.3270   11.6500  -10.0090 C.2   129  CYS129      0.2625
    202  O         -7.1530   11.9420  -10.8620 O.2   129  CYS129     -0.2714
    203  CB        -5.2580   13.9070   -9.6400 C.3   129  CYS129      0.0997
    204  SG        -6.1210   14.3190   -8.0390 S.3   129  CYS129     -0.0797
    205  N         -6.5430   10.6900   -9.1160 N.am  130  ALA130     -0.1977
    206  CA        -7.8220    9.9660   -9.0180 C.3   130  ALA130      0.1597
    207  C         -8.3660   10.1060   -7.5850 C.2   130  ALA130      0.2287
    208  O         -7.5720   10.0560   -6.6270 O.2   130  ALA130     -0.2864
    209  CB        -7.6120    8.4520   -9.3900 C.3   130  ALA130      0.0319
    210  N        -10.5640    7.5710   -5.8530 N.3   132  PHE132     -0.1241
    211  CA       -11.2430    6.2480   -5.8590 C.3   132  PHE132      0.1605
    212  C        -12.2340    6.1120   -4.7070 C.2   132  PHE132      0.2264
    213  O        -11.9020    6.4780   -3.5670 O.2   132  PHE132     -0.2867
    214  CB       -10.2300    5.1190   -5.7150 C.3   132  PHE132      0.0534
    215  CG        -9.3380    4.9470   -6.8900 C.ar  132  PHE132     -0.0203
    216  CD1       -9.7010    4.1050   -7.9230 C.ar  132  PHE132     -0.0042
    217  CD2       -8.1010    5.5180   -6.9190 C.ar  132  PHE132     -0.0042
    218  CE1       -8.8530    3.8830   -8.9840 C.ar  132  PHE132     -0.0003
    219  CE2       -7.1810    5.1930   -7.9640 C.ar  132  PHE132     -0.0003
    220  CZ        -7.5860    4.4430   -9.0000 C.ar  132  PHE132     -0.0000
@<TRIPOS>BOND
     1   127   128    1
     2   130   129    2
     3    39    38    2
     4   129   128    1
     5   128   131    1
     6    38    37    1
     7    37    36    1
     8    37    40    1
     9   131   132    1
    10   135   136    1
    11    34    33    2
    12    40    41    1
    13   120   117    1
    14   120   121    1
    15   132   133    1
    16   132   134    1
    17   117   118    1
    18   117   116    1
    19    33    32    1
    20   119   118    2
    21   136   137    1
    22   136   139    1
    23    41    42    1
    24   137   138    2
    25     2     3    1
    26     2     1    1
    27     2     5    1
    28     3     4    2
    29   121   123   ar
    30   121   122   ar
    31    31    32    1
    32    32    35    1
    33   123   125   ar
    34   122   124   ar
    35    43    42    1
    36     5     6    1
    37   139   140    1
    38    12    13    1
    39   125   126   ar
    40   124   126   ar
    41     6     8   ar
    42     6     7   ar
    43   141   140   ar
    44   141   143   ar
    45    26    25    2
    46   140   142   ar
    47    13    14    1
    48    13    16    1
    49    15    14    2
    50   111   110    2
    51     8    10   ar
    52   110   109    1
    53    25    24    1
    54     7     9   ar
    55   143   145   ar
    56   142   144   ar
    57    16    17    1
    58    10    11   ar
    59   109   112    1
    60   109   108    1
    61   112   113    1
    62   145   144   ar
    63   145   146    1
    64    24    23    1
    65    24    27    1
    66     9    11   ar
    67   198   195    1
    68    17    19   ar
    69    17    18   ar
    70   194   195    1
    71   115   113    1
    72   195   196    1
    73    28    27    1
    74    28    30    1
    75    19    21   ar
    76   108   101   am
    77    27    29    1
    78   113   114    1
    79    51    49    1
    80   153   147    1
    81   153   152    1
    82    50    49    1
    83    18    20   ar
    84   147   148    1
    85    98    97    1
    86    97    94    1
    87    49    48    1
    88    21    22   ar
    89    48    45    1
    90   196   199   am
    91   196   197    2
    92   101   102    2
    93   101   100    1
    94   192   191    1
    95   199   200    1
    96    20    22   ar
    97    44    45    1
    98   202   201    2
    99   152   151    1
   100   148   151    1
   101   148   149    1
   102    99    95   am
   103    99   100    1
   104    45    46    1
   105    95    94    1
   106    95    96    2
   107    94    93    1
   108   190   191    1
   109   190   187    1
   110   189   188    2
   111   100   103    1
   112   150   149    2
   113   191   193    1
   114    88    87    2
   115   149   154   am
   116   201   200    1
   117   201   205   am
   118   200   203    1
   119   188   187    1
   120   203   204    1
   121    87    86    1
   122   209   206    1
   123   154   155    1
   124   187   186    1
   125    46    47    2
   126   205   206    1
   127   206   207    1
   128    89    86    1
   129    89    90    1
   130   220   218   ar
   131   220   219   ar
   132   218   216   ar
   133   103   104    1
   134    91    90    1
   135    86    85    1
   136   159   161    1
   137   159   158    1
   138    90    92    1
   139   155   158    1
   140   155   156    1
   141   219   217   ar
   142   216   215   ar
   143   104   105    1
   144   184   183    2
   145   207   208    2
   146   158   160    1
   147   156   162   am
   148   156   157    2
   149   217   215   ar
   150   215   214    1
   151   167   166    1
   152   162   163    1
   153   183   182    1
   154   105   106    1
   155   185   182    1
   156    52    53    1
   157   211   210    1
   158   211   214    1
   159   211   212    1
   160    53    56    1
   161    53    54    1
   162   182   181    1
   163   166   163    1
   164   166   168    1
   165   163   164    1
   166   106   107    1
   167   212   213    2
   168    79    78    2
   169    54    55    2
   170   165   164    2
   171   164   169   am
   172    83    82   ar
   173    78    77    1
   174    84    82   ar
   175    82    81    1
   176    81    80    1
   177    80    77    1
   178   169   170    1
   179    63    61    1
   180    77    76    1
   181   174   175    1
   182   174   173    1
   183   174   176    1
   184    57    58    1
   185   170   173    1
   186   170   171    1
   187    58    61    1
   188    58    59    1
   189    61    62    1
   190    73    71   ar
   191    73    74   ar
   192    75    74    1
   193   171   172    2
   194   171   177   am
   195    59    60    2
   196    67    66    2
   197    71    69   ar
   198    74    72   ar
   199   177   178    1
   200    66    65    1
   201    69    70   ar
   202    69    68    1
   203    72    70   ar
   204   178   179    1
   205    68    65    1
   206    65    64    1
   207   179   180    2
