@<TRIPOS>MOLECULE
tmp/3mu3A01.pdb
 185 174 0 0 0
SMALL
GASTEIGER

@<TRIPOS>ATOM
      1  N        -15.8670   -0.5220   -6.5120 N.3    15  ILE15      -0.1245
      2  CA       -14.8380    0.5000   -6.7040 C.3    15  ILE15       0.1561
      3  C        -15.1360    1.4380   -7.8850 C.2    15  ILE15       0.2260
      4  O        -15.3970    0.9890   -9.0080 O.2    15  ILE15      -0.2867
      5  CB       -13.4560   -0.1250   -6.9360 C.3    15  ILE15       0.0252
      6  CG1      -13.1200   -1.0960   -5.7970 C.3    15  ILE15       0.0019
      7  CG2      -12.4100    0.9770   -7.0390 C.3    15  ILE15       0.0019
      8  CD1      -11.6840   -1.4930   -5.7070 C.3    15  ILE15       0.0001
      9  N         -8.7300    3.0640  -16.4570 N.3    28  PHE28      -0.1241
     10  CA        -8.2080    2.1700  -15.4140 C.3    28  PHE28       0.1605
     11  C         -9.1170    0.9680  -15.2520 C.2    28  PHE28       0.2264
     12  O        -10.3200    1.0990  -15.3490 O.2    28  PHE28      -0.2867
     13  CB        -8.1010    2.9520  -14.0980 C.3    28  PHE28       0.0534
     14  CG        -7.4440    2.2000  -12.9950 C.ar   28  PHE28      -0.0203
     15  CD1       -8.1870    1.3240  -12.1890 C.ar   28  PHE28      -0.0042
     16  CD2       -6.1280    2.4780  -12.6450 C.ar   28  PHE28      -0.0042
     17  CE1       -7.6410    0.7270  -11.0820 C.ar   28  PHE28      -0.0003
     18  CE2       -5.5420    1.8200  -11.5570 C.ar   28  PHE28      -0.0003
     19  CZ        -6.3110    0.9220  -10.7840 C.ar   28  PHE28      -0.0000
     20  N         -9.3220   -3.3310  -13.3510 N.3    30  ILE30      -0.1245
     21  CA        -8.6890   -4.3700  -12.5200 C.3    30  ILE30       0.1561
     22  C         -9.1310   -5.6770  -13.1210 C.2    30  ILE30       0.2260
     23  O        -10.3060   -5.8640  -13.3650 O.2    30  ILE30      -0.2867
     24  CB        -9.1210   -4.2890  -11.0080 C.3    30  ILE30       0.0252
     25  CG1       -8.6380   -2.9780  -10.3440 C.3    30  ILE30       0.0019
     26  CG2       -8.6140   -5.4870  -10.2170 C.3    30  ILE30       0.0019
     27  CD1       -8.9950   -2.8300   -8.7930 C.3    30  ILE30       0.0001
     28  N         -8.1320   -7.2240   -5.0420 N.3    36  VAL36      -0.1245
     29  CA        -7.8440   -6.0920   -4.1720 C.3    36  VAL36       0.1561
     30  C         -7.8050   -6.4350   -2.6820 C.2    36  VAL36       0.2260
     31  O         -7.4730   -5.5910   -1.8770 O.2    36  VAL36      -0.2867
     32  CB        -8.8420   -4.8930   -4.3780 C.3    36  VAL36       0.0252
     33  CG1       -8.8090   -4.3300   -5.8400 C.3    36  VAL36       0.0019
     34  CG2      -10.2630   -5.2820   -3.9150 C.3    36  VAL36       0.0019
     35  N         -2.7800   -7.2260   -7.0270 N.3    41  PHE41      -0.1241
     36  CA        -3.7790   -7.3320   -8.0720 C.3    41  PHE41       0.1605
     37  C         -3.2440   -6.7120   -9.3590 C.2    41  PHE41       0.2264
     38  O         -2.4360   -5.7920   -9.3230 O.2    41  PHE41      -0.2867
     39  CB        -5.0940   -6.6690   -7.6430 C.3    41  PHE41       0.0534
     40  CG        -4.9400   -5.2900   -7.0660 C.ar   41  PHE41      -0.0203
     41  CD1       -4.7240   -5.1140   -5.7410 C.ar   41  PHE41      -0.0042
     42  CD2       -5.0980   -4.1710   -7.8580 C.ar   41  PHE41      -0.0042
     43  CE1       -4.5670   -3.8460   -5.2350 C.ar   41  PHE41      -0.0003
     44  CE2       -5.0360   -2.9060   -7.3290 C.ar   41  PHE41      -0.0003
     45  CZ        -4.7800   -2.7460   -6.0250 C.ar   41  PHE41      -0.0000
     46  N         -0.6750    9.3360   -1.7660 N.3    60  VAL60      -0.1245
     47  CA        -1.8860    8.5590   -1.5700 C.3    60  VAL60       0.1561
     48  C         -2.5300    8.9720   -0.2510 C.2    60  VAL60       0.2260
     49  O         -1.9510    8.7430    0.7960 O.2    60  VAL60      -0.2867
     50  CB        -1.5700    7.0520   -1.5090 C.3    60  VAL60       0.0252
     51  CG1       -2.8380    6.2530   -1.2210 C.3    60  VAL60       0.0019
     52  CG2       -0.8840    6.5620   -2.8320 C.3    60  VAL60       0.0019
     53  N         -5.9450    8.4880    2.2790 N.3    62  LEU62      -0.1245
     54  CA        -7.1750    7.7260    2.5970 C.3    62  LEU62       0.1561
     55  C         -8.1050    8.5890    3.4490 C.2    62  LEU62       0.2260
     56  O         -7.6690    9.1500    4.4590 O.2    62  LEU62      -0.2867
     57  CB        -6.8260    6.4340    3.3600 C.3    62  LEU62       0.0270
     58  CG        -7.8910    5.7450    4.2070 C.3    62  LEU62       0.0019
     59  CD1       -8.9460    5.2870    3.3400 C.3    62  LEU62       0.0001
     60  CD2       -7.2700    4.5790    4.9760 C.3    62  LEU62       0.0001
     61  N         -5.0140    8.9610    6.7210 N.3    70  LEU70      -0.1245
     62  CA        -3.6690    8.4690    6.3590 C.3    70  LEU70       0.1561
     63  C         -3.1620    9.2410    5.1510 C.2    70  LEU70       0.2260
     64  O         -3.8920    9.3980    4.1340 O.2    70  LEU70      -0.2867
     65  CB        -3.6970    6.9750    6.0060 C.3    70  LEU70       0.0270
     66  CG        -2.5050    6.3640    5.2540 C.3    70  LEU70       0.0019
     67  CD1       -1.4720    6.0730    6.2780 C.3    70  LEU70       0.0001
     68  CD2       -2.8680    5.0750    4.4940 C.3    70  LEU70       0.0001
     69  N          0.3580    9.1270    2.5260 N.3    72  TYR72      -0.1227
     70  CA         1.5360    8.3030    2.1800 C.3    72  TYR72       0.1736
     71  C          2.1470    8.8410    0.8880 C.2    72  TYR72       0.2596
     72  O          1.4370    8.9440   -0.1350 O.2    72  TYR72      -0.2718
     73  CB         1.1500    6.8120    1.9940 C.3    72  TYR72       0.0548
     74  CG         2.2020    5.9500    1.2900 C.ar   72  TYR72      -0.0200
     75  CD1        3.3460    5.5260    1.9700 C.ar   72  TYR72      -0.0009
     76  CD2        2.0010    5.4700    0.0050 C.ar   72  TYR72      -0.0009
     77  CE1        4.3310    4.7220    1.3470 C.ar   72  TYR72       0.0417
     78  CE2        2.9410    4.6350   -0.6090 C.ar   72  TYR72       0.0417
     79  CZ         4.1220    4.2690    0.0530 C.ar   72  TYR72       0.1957
     80  OH         5.0780    3.4230   -0.5380 O.3    72  TYR72      -0.2866
     81  N          3.4760    8.9590    0.8940 N.am   73  SER73      -0.1938
     82  CA         4.2340    9.4280   -0.2670 C.3    73  SER73       0.2055
     83  C          5.3410    8.4780   -0.6890 C.2    73  SER73       0.2642
     84  O          6.1330    8.0040    0.1470 O.2    73  SER73      -0.2714
     85  CB         4.7440   10.8390    0.0110 C.3    73  SER73       0.2130
     86  OG         3.5990   11.6780    0.2090 O.3    73  SER73      -0.2179
     87  N          5.3650    8.1720   -1.9920 N.am   74  GLU74      -0.1976
     88  CA         6.3920    7.2870   -2.5840 C.3    74  GLU74       0.1602
     89  C          6.9660    7.9120   -3.8270 C.2    74  GLU74       0.2287
     90  O          6.2200    8.4450   -4.6060 O.2    74  GLU74      -0.2864
     91  CB         5.7530    5.9480   -2.9760 C.3    74  GLU74       0.0415
     92  CG         6.7000    4.8010   -3.2480 C.3    74  GLU74       0.1163
     93  CD         5.9620    3.5860   -3.7460 C.2    74  GLU74       0.3649
     94  OE1        4.7470    3.6810   -4.0340 O.co2  74  GLU74      -0.2457
     95  OE2        6.5700    2.5130   -3.7600 O.co2  74  GLU74      -0.2457
     96  N         10.9710    2.7360  -10.6280 N.3    83  LYS83      -0.1245
     97  CA        10.0910    1.6230  -10.2370 C.3    83  LYS83       0.1561
     98  C          9.0910    1.2410  -11.3560 C.2    83  LYS83       0.2260
     99  O          8.1510    0.4830  -11.1240 O.2    83  LYS83      -0.2867
    100  CB         9.3020    2.0060   -8.9680 C.3    83  LYS83       0.0271
    101  CG         9.7480    1.3110   -7.6830 C.3    83  LYS83       0.0035
    102  CD         9.0280    1.8560   -6.4490 C.3    83  LYS83       0.0206
    103  CE         9.9470    1.9690   -5.2120 C.3    83  LYS83       0.1093
    104  NZ         9.6470    3.2570   -4.4200 N.3    83  LYS83      -0.1314
    105  N         -0.2530   -3.9860   -9.3010 N.3   101  ILE101     -0.1231
    106  CA         0.0790   -3.3460   -8.0520 C.3   101  ILE101      0.1692
    107  C          0.4120   -4.4110   -6.9910 C.2   101  ILE101      0.2593
    108  O         -0.4770   -5.1290   -6.5330 O.2   101  ILE101     -0.2718
    109  CB        -1.0570   -2.5000   -7.5310 C.3   101  ILE101      0.0266
    110  CG1       -1.2120   -1.2360   -8.3950 C.3   101  ILE101      0.0019
    111  CG2       -0.7590   -2.1330   -6.0670 C.3   101  ILE101      0.0020
    112  CD1       -2.4190   -0.2900   -7.9680 C.3   101  ILE101      0.0001
    113  N          1.6790   -4.4770   -6.5750 N.am  102  THR102     -0.1939
    114  CA         2.0340   -5.1080   -5.3060 C.3   102  THR102      0.2028
    115  C          1.8180   -4.1630   -4.1160 C.2   102  THR102      0.2642
    116  O          1.1600   -3.1450   -4.2380 O.2   102  THR102     -0.2714
    117  CB         3.4830   -5.6280   -5.3130 C.3   102  THR102      0.1808
    118  OG1        4.0600   -5.5530   -6.6380 O.3   102  THR102     -0.2208
    119  CG2        3.5440   -7.0880   -4.7570 C.3   102  THR102      0.0379
    120  N          2.2480   -4.5710   -2.9330 N.am  103  LEU103     -0.1963
    121  CA         1.6500   -4.0780   -1.6980 C.3   103  LEU103      0.1728
    122  C          2.3890   -4.6570   -0.4660 C.2   103  LEU103      0.2617
    123  O          2.4900   -5.8800   -0.3190 O.2   103  LEU103     -0.2715
    124  CB         0.1510   -4.4210   -1.6850 C.3   103  LEU103      0.0311
    125  CG        -0.9690   -3.4050   -1.8890 C.3   103  LEU103      0.0022
    126  CD1       -2.2940   -4.1460   -1.8010 C.3   103  LEU103      0.0001
    127  CD2       -0.9060   -2.3010   -0.8400 C.3   103  LEU103      0.0001
    128  N          3.1570   -3.7880    0.2030 N.am  104  GLY104     -0.1940
    129  CA         3.5500   -3.9720    1.6040 C.3   104  GLY104      0.2014
    130  C          2.4050   -4.1350    2.5800 C.2   104  GLY104      0.2638
    131  O          2.5070   -4.9540    3.5010 O.2   104  GLY104     -0.2714
    132  N          1.2970   -3.4100    2.3600 N.am  105  ILE105     -0.1977
    133  CA        -0.0240   -3.7650    2.9580 C.3   105  ILE105      0.1596
    134  C         -0.5160   -5.0760    2.3350 C.2   105  ILE105      0.2287
    135  O         -0.3780   -5.2600    1.1220 O.2   105  ILE105     -0.2864
    136  CB        -1.1080   -2.6690    2.7220 C.3   105  ILE105      0.0276
    137  CG1       -0.5980   -1.2590    2.8050 C.3   105  ILE105      0.0022
    138  CG2       -2.2860   -2.9190    3.6350 C.3   105  ILE105      0.0022
    139  CD1       -0.0750   -0.8860    4.1420 C.3   105  ILE105      0.0001
    140  N         -5.9870   -3.8780    0.7810 N.3   108  ILE108     -0.1231
    141  CA        -6.6130   -2.5610    0.9640 C.3   108  ILE108      0.1678
    142  C         -7.6300   -2.6090    2.1170 C.2   108  ILE108      0.2434
    143  O         -8.1590   -3.6620    2.4350 O.2   108  ILE108     -0.2733
    144  CB        -7.3100   -2.0320   -0.3120 C.3   108  ILE108      0.0265
    145  CG1       -8.4960   -2.9290   -0.6960 C.3   108  ILE108      0.0019
    146  CG2       -6.3110   -1.8540   -1.4620 C.3   108  ILE108      0.0020
    147  CD1       -9.0520   -2.6320   -2.0030 C.3   108  ILE108      0.0001
    148  N         -7.8820   -1.4610    2.7650 N.am  109  PRO109     -0.2729
    149  CA        -8.8240   -1.4590    3.8720 C.3   109  PRO109      0.1401
    150  C        -10.2320   -2.0090    3.5460 C.2   109  PRO109      0.2269
    151  O        -10.6880   -1.9870    2.3980 O.2   109  PRO109     -0.2865
    152  CB        -8.9300    0.0270    4.2330 C.3   109  PRO109      0.0296
    153  CG        -7.6610    0.6160    3.7750 C.3   109  PRO109      0.0237
    154  CD        -7.2870   -0.1300    2.5440 C.3   109  PRO109      0.0939
    155  N         -9.9010    6.9150   -1.6280 N.3   115  ILE115     -0.1245
    156  CA        -8.4630    7.0370   -1.7640 C.3   115  ILE115      0.1561
    157  C         -8.2570    8.0590   -2.8310 C.2   115  ILE115      0.2260
    158  O         -8.7010    7.8370   -3.9570 O.2   115  ILE115     -0.2867
    159  CB        -7.8280    5.7360   -2.2500 C.3   115  ILE115      0.0252
    160  CG1       -7.8170    4.7060   -1.1400 C.3   115  ILE115      0.0019
    161  CG2       -6.3910    5.9950   -2.7020 C.3   115  ILE115      0.0019
    162  CD1       -7.2920    3.3740   -1.5920 C.3   115  ILE115      0.0001
    163  N         -5.3450    9.5580   -5.0380 N.3   117  ALA117     -0.1245
    164  CA        -4.0240    9.1400   -5.5250 C.3   117  ALA117      0.1562
    165  C         -3.5860   10.1740   -6.5100 C.2   117  ALA117      0.2260
    166  O         -4.1170   10.2570   -7.6230 O.2   117  ALA117     -0.2867
    167  CB        -4.0820    7.7540   -6.2100 C.3   117  ALA117      0.0290
    168  N        -10.5640    7.5710   -5.8530 N.3   132  PHE132     -0.1241
    169  CA       -11.2430    6.2480   -5.8590 C.3   132  PHE132      0.1605
    170  C        -12.2340    6.1120   -4.7070 C.2   132  PHE132      0.2264
    171  O        -11.9020    6.4780   -3.5670 O.2   132  PHE132     -0.2867
    172  CB       -10.2300    5.1190   -5.7150 C.3   132  PHE132      0.0534
    173  CG        -9.3380    4.9470   -6.8900 C.ar  132  PHE132     -0.0203
    174  CD1       -9.7010    4.1050   -7.9230 C.ar  132  PHE132     -0.0042
    175  CD2       -8.1010    5.5180   -6.9190 C.ar  132  PHE132     -0.0042
    176  CE1       -8.8530    3.8830   -8.9840 C.ar  132  PHE132     -0.0003
    177  CE2       -7.1810    5.1930   -7.9640 C.ar  132  PHE132     -0.0003
    178  CZ        -7.5860    4.4430   -9.0000 C.ar  132  PHE132     -0.0000
    179  N        -14.2010    3.4470   -2.5260 N.3   134  VAL134     -0.1245
    180  CA       -14.2120    2.0430   -2.1900 C.3   134  VAL134      0.1561
    181  C        -15.3520    1.6750   -1.2270 C.2   134  VAL134      0.2260
    182  O        -15.6220    2.3770   -0.2420 O.2   134  VAL134     -0.2867
    183  CB       -12.8850    1.6370   -1.6160 C.3   134  VAL134      0.0252
    184  CG1      -12.8300    0.0830   -1.4610 C.3   134  VAL134      0.0019
    185  CG2      -11.7700    2.1700   -2.5190 C.3   134  VAL134      0.0019
@<TRIPOS>BOND
     1     9    10    1
     2    10    11    1
     3    10    13    1
     4    12    11    2
     5    13    14    1
     6    23    22    2
     7    20    21    1
     8    22    21    1
     9    14    16   ar
    10    14    15   ar
    11    16    18   ar
    12    21    24    1
    13    15    17   ar
    14    18    19   ar
    15    98    99    2
    16    98    97    1
    17    17    19   ar
    18    24    25    1
    19    24    26    1
    20    96    97    1
    21    25    27    1
    22    97   100    1
    23    37    38    2
    24    37    36    1
    25   105   106    1
    26     4     3    2
    27   178   176   ar
    28   178   177   ar
    29   176   174   ar
    30   100   101    1
    31   110   112    1
    32   110   109    1
    33    36    39    1
    34    36    35    1
    35   106   109    1
    36   106   107    1
    37   177   175   ar
    38   174   173   ar
    39     3     2    1
    40    42    44   ar
    41    42    40   ar
    42   101   102    1
    43    39    40    1
    44   166   165    2
    45   109   111    1
    46    44    45   ar
    47    40    41   ar
    48     7     5    1
    49   107   113   am
    50   107   108    2
    51     5     2    1
    52     5     6    1
    53   175   173   ar
    54   173   172    1
    55     2     1    1
    56   118   117    1
    57   113   114    1
    58   165   164    1
    59   102   103    1
    60   167   164    1
    61    45    43   ar
    62   169   168    1
    63   169   172    1
    64   169   170    1
    65    33    32    1
    66     6     8    1
    67    41    43   ar
    68   164   163    1
    69   117   114    1
    70   117   119    1
    71   114   115    1
    72   103   104    1
    73    28    29    1
    74   170   171    2
    75    90    89    2
    76    32    29    1
    77    32    34    1
    78   116   115    2
    79    29    30    1
    80   115   120   am
    81    94    93   ar
    82   158   157    2
    83    89    88    1
    84    95    93   ar
    85    93    92    1
    86    92    91    1
    87    91    88    1
    88   120   121    1
    89    52    50    1
    90   157   156    1
    91   161   159    1
    92    30    31    2
    93    88    87    1
    94   179   180    1
    95   185   183    1
    96   159   156    1
    97   159   160    1
    98   180   183    1
    99   180   181    1
   100   147   145    1
   101    87    83   am
   102   125   126    1
   103   125   124    1
   104   125   127    1
   105    46    47    1
   106   156   155    1
   107   121   124    1
   108   121   122    1
   109   183   184    1
   110   162   160    1
   111    47    50    1
   112    47    48    1
   113    50    51    1
   114   146   144    1
   115   181   182    2
   116   145   144    1
   117    83    82    1
   118    83    84    2
   119    78    76   ar
   120    78    79   ar
   121    80    79    1
   122   122   123    2
   123   122   128   am
   124   144   141    1
   125    82    85    1
   126    82    81    1
   127    48    49    2
   128    72    71    2
   129    76    74   ar
   130    85    86    1
   131    79    77   ar
   132   128   129    1
   133   140   141    1
   134    71    81   am
   135    71    70    1
   136   141   142    1
   137   135   134    2
   138    74    75   ar
   139    74    73    1
   140    77    75   ar
   141   129   130    1
   142    73    70    1
   143   142   143    2
   144   142   148   am
   145    70    69    1
   146    53    54    1
   147   134   133    1
   148   132   130   am
   149   132   133    1
   150   151   150    2
   151   154   148    1
   152   154   153    1
   153   130   131    2
   154    54    57    1
   155    54    55    1
   156   136   137    1
   157   136   133    1
   158   136   138    1
   159   148   149    1
   160   137   139    1
   161    59    58    1
   162    57    58    1
   163    55    56    2
   164   150   149    1
   165   153   152    1
   166   149   152    1
   167    64    63    2
   168    58    60    1
   169    68    66    1
   170    63    62    1
   171    66    65    1
   172    66    67    1
   173    65    62    1
   174    62    61    1
