@<TRIPOS>MOLECULE
tmp/3mufA01.pdb
 143 136 0 0 0
SMALL
GASTEIGER

@<TRIPOS>ATOM
      1  N         32.8690   31.1220   -1.5110 N.3     9  MET9       -0.1230
      2  CA        32.3440   31.0160   -2.8840 C.3     9  MET9        0.1702
      3  C         33.3600   30.4310   -3.8240 C.2     9  MET9        0.2592
      4  O         34.5170   30.8910   -3.9530 O.2     9  MET9       -0.2718
      5  CB        31.8160   32.3620   -3.4440 C.3     9  MET9        0.0401
      6  CG        30.5900   32.9010   -2.6590 C.3     9  MET9        0.0596
      7  SD        30.1060   34.6480   -2.9190 S.3     9  MET9       -0.1393
      8  CE        31.1420   35.3210   -1.6360 C.3     9  MET9        0.0692
      9  N         32.9300   29.3560   -4.4380 N.am   10  GLY10      -0.1957
     10  CA        33.5440   28.9360   -5.7170 C.3    10  GLY10       0.1869
     11  C         34.4920   27.8080   -5.3580 C.2    10  GLY10       0.2309
     12  O         35.2750   27.3650   -6.2090 O.2    10  GLY10      -0.2863
     13  N         32.0000   23.0360   -3.6560 N.3    13  LYS13      -0.1245
     14  CA        31.2650   22.1790   -2.7420 C.3    13  LYS13       0.1561
     15  C         30.1830   21.4360   -3.4810 C.2    13  LYS13       0.2260
     16  O         30.1540   20.2180   -3.5080 O.2    13  LYS13      -0.2867
     17  CB        30.6450   22.9810   -1.6260 C.3    13  LYS13       0.0271
     18  CG        31.6280   23.8330   -0.9970 C.3    13  LYS13       0.0035
     19  CD        31.0280   24.6090    0.0900 C.3    13  LYS13       0.0206
     20  CE        31.3850   26.0420   -0.1660 C.3    13  LYS13       0.1093
     21  NZ        30.3700   26.8160   -0.8760 N.3    13  LYS13      -0.1314
     22  N         21.6930   26.1730    0.0350 N.3    32  ASP32      -0.1239
     23  CA        21.1730   27.2380   -0.8480 C.3    32  ASP32       0.1674
     24  C         19.9820   26.7630   -1.6610 C.2    32  ASP32       0.2266
     25  O         19.0260   27.5000   -1.9080 O.2    32  ASP32      -0.2867
     26  CB        22.2370   27.6700   -1.8630 C.3    32  ASP32       0.1410
     27  CG        23.2720   28.6330   -1.2780 C.2    32  ASP32       0.3668
     28  OD1       23.2010   28.9610   -0.0790 O.co2  32  ASP32      -0.2456
     29  OD2       24.1540   29.0790   -2.0610 O.co2  32  ASP32      -0.2456
     30  N         18.9060   32.8610   -4.7190 N.3    43  VAL43      -0.1245
     31  CA        19.5760   33.4990   -3.5600 C.3    43  VAL43       0.1561
     32  C         19.7510   35.0070   -3.7980 C.2    43  VAL43       0.2260
     33  O         19.5590   35.8240   -2.8840 O.2    43  VAL43      -0.2867
     34  CB        20.9240   32.8040   -3.1110 C.3    43  VAL43       0.0252
     35  CG1       21.6270   33.6510   -2.0980 C.3    43  VAL43       0.0019
     36  CG2       20.6560   31.4480   -2.4800 C.3    43  VAL43       0.0019
     37  N         18.2540   38.0570   -1.4460 N.3    47  PHE47      -0.1241
     38  CA        19.0070   39.2310   -1.0180 C.3    47  PHE47       0.1605
     39  C         18.2980   40.5330   -1.4620 C.2    47  PHE47       0.2264
     40  O         17.8900   41.3370   -0.6090 O.2    47  PHE47      -0.2867
     41  CB        20.4620   39.1680   -1.5290 C.3    47  PHE47       0.0534
     42  CG        21.4190   38.4060   -0.6130 C.ar   47  PHE47      -0.0203
     43  CD1       21.1860   37.0830   -0.2590 C.ar   47  PHE47      -0.0042
     44  CD2       22.5650   39.0200   -0.1260 C.ar   47  PHE47      -0.0042
     45  CE1       22.0720   36.3810    0.5630 C.ar   47  PHE47      -0.0003
     46  CE2       23.4490   38.3230    0.7060 C.ar   47  PHE47      -0.0003
     47  CZ        23.1950   36.9970    1.0530 C.ar   47  PHE47      -0.0000
     48  N         17.5860   35.8520    4.6470 N.3    55  PHE55      -0.1227
     49  CA        18.3480   34.6980    4.1600 C.3    55  PHE55       0.1736
     50  C         19.1090   34.0620    5.3220 C.2    55  PHE55       0.2595
     51  O         19.0160   32.8700    5.5640 O.2    55  PHE55      -0.2718
     52  CB        19.3360   35.0940    3.0870 C.3    55  PHE55       0.0547
     53  CG        20.1060   33.9510    2.5630 C.ar   55  PHE55      -0.0202
     54  CD1       21.4290   33.7510    2.9400 C.ar   55  PHE55      -0.0042
     55  CD2       19.5240   33.0650    1.6450 C.ar   55  PHE55      -0.0042
     56  CE1       22.1530   32.6610    2.4200 C.ar   55  PHE55      -0.0003
     57  CE2       20.2170   31.9730    1.1370 C.ar   55  PHE55      -0.0003
     58  CZ        21.5250   31.7630    1.5060 C.ar   55  PHE55      -0.0000
     59  N         19.8560   34.8730    6.0350 N.am   56  ARG56      -0.1980
     60  CA        20.5580   34.3940    7.2520 C.3    56  ARG56       0.1597
     61  C         19.6570   33.6640    8.2400 C.2    56  ARG56       0.2287
     62  O         20.0680   32.6600    8.8490 O.2    56  ARG56      -0.2864
     63  CB        21.2970   35.5490    7.9480 C.3    56  ARG56       0.0334
     64  CG        22.8140   35.5580    7.7380 C.3    56  ARG56       0.0492
     65  CD        23.3290   35.9520    6.3490 C.3    56  ARG56       0.2205
     66  NE        23.8870   34.7990    5.6650 N.pl3  56  ARG56      -0.0865
     67  CZ        24.7520   34.8090    4.6480 C.cat  56  ARG56       0.5346
     68  NH1       25.2310   35.9250    4.1350 N.pl3  56  ARG56       0.1354
     69  NH2       25.1450   33.6540    4.1470 N.pl3  56  ARG56       0.1354
     70  N         18.9490   30.1960    6.6110 N.3    59  GLU59      -0.1245
     71  CA        20.1600   29.4010    6.8490 C.3    59  GLU59       0.1567
     72  C         20.2570   28.8950    8.2730 C.2    59  GLU59       0.2260
     73  O         20.3390   27.6920    8.4970 O.2    59  GLU59      -0.2867
     74  CB        21.4060   30.2210    6.5820 C.3    59  GLU59       0.0388
     75  CG        21.7940   30.2870    5.1490 C.3    59  GLU59       0.1160
     76  CD        23.2510   30.6560    5.0120 C.2    59  GLU59       0.3649
     77  OE1       23.7460   31.4660    5.8280 O.co2  59  GLU59      -0.2457
     78  OE2       23.8820   30.1230    4.0730 O.co2  59  GLU59      -0.2457
     79  N         27.0800   23.4990    1.3110 N.3    77  THR77      -0.1203
     80  CA        26.8360   24.6260    2.1820 C.3    77  THR77       0.1994
     81  C         27.0660   25.9320    1.4640 C.2    77  THR77       0.2618
     82  O         27.9560   26.0190    0.6580 O.2    77  THR77      -0.2717
     83  CB        27.8250   24.4420    3.3530 C.3    77  THR77       0.1784
     84  OG1       27.1010   23.9420    4.4580 O.3    77  THR77      -0.2211
     85  CG2       28.5050   25.6610    3.7470 C.3    77  THR77       0.0376
     86  N         26.2950   26.9750    1.7440 N.am   78  GLY78      -0.1942
     87  CA        26.6430   28.2800    1.1910 C.3    78  GLY78       0.2014
     88  C         27.8020   28.9170    1.8750 C.2    78  GLY78       0.2639
     89  O         28.0930   28.6800    3.1070 O.2    78  GLY78      -0.2714
     90  N         28.4380   29.7990    1.1180 N.am   79  GLY79      -0.1939
     91  CA        29.6470   30.4460    1.5860 C.3    79  GLY79       0.2014
     92  C         29.5930   30.7920    3.0860 C.2    79  GLY79       0.2639
     93  O         30.6120   30.6610    3.7660 O.2    79  GLY79      -0.2714
     94  N         28.4290   31.2450    3.5730 N.am   80  GLY80      -0.1954
     95  CA        28.3580   32.1570    4.7270 C.3    80  GLY80       0.1869
     96  C         27.8820   31.4000    5.9200 C.2    80  GLY80       0.2309
     97  O         27.6280   31.9580    6.9950 O.2    80  GLY80      -0.2863
     98  N         25.4100   35.4430   -9.7160 N.3   114  LYS114     -0.1231
     99  CA        24.4990   34.7010   -8.8350 C.3   114  LYS114      0.1693
    100  C         24.7590   34.9560   -7.3440 C.2   114  LYS114      0.2592
    101  O         23.9280   34.6400   -6.4910 O.2   114  LYS114     -0.2718
    102  CB        24.5730   33.2030   -9.1350 C.3   114  LYS114      0.0285
    103  CG        23.8890   32.8000  -10.4660 C.3   114  LYS114      0.0035
    104  CD        24.5060   31.5380  -11.1090 C.3   114  LYS114      0.0206
    105  CE        24.3190   30.2940  -10.2460 C.3   114  LYS114      0.1093
    106  NZ        23.9790   29.0780  -11.0600 N.3   114  LYS114     -0.1314
    107  N         25.9280   35.5150   -7.0610 N.am  115  ARG115     -0.1966
    108  CA        26.4310   35.6950   -5.6890 C.3   115  ARG115      0.1714
    109  C         26.4800   37.1910   -5.3600 C.2   115  ARG115      0.2458
    110  O         27.3730   37.8990   -5.8300 O.2   115  ARG115     -0.2730
    111  CB        27.8210   35.0850   -5.5720 C.3   115  ARG115      0.0347
    112  CG        27.7750   33.5830   -5.5860 C.3   115  ARG115      0.0492
    113  CD        28.8040   32.9910   -6.4850 C.3   115  ARG115      0.2205
    114  NE        28.9720   31.5760   -6.1720 N.pl3 115  ARG115     -0.0865
    115  CZ        28.7590   30.5700   -7.0110 C.cat 115  ARG115      0.5346
    116  NH1       28.3980   30.7890   -8.2840 N.pl3 115  ARG115      0.1354
    117  NH2       28.9410   29.3290   -6.5820 N.pl3 115  ARG115      0.1354
    118  N         25.4950   37.6790   -4.5810 N.am  116  PRO116     -0.2716
    119  CA        25.4480   39.0900   -4.2470 C.3   116  PRO116      0.1536
    120  C         26.7330   39.6030   -3.6090 C.2   116  PRO116      0.2598
    121  O         27.1320   40.7080   -3.9230 O.2   116  PRO116     -0.2715
    122  CB        24.2890   39.1760   -3.2490 C.3   116  PRO116      0.0310
    123  CG        23.4170   38.0930   -3.6930 C.3   116  PRO116      0.0237
    124  CD        24.3200   36.9680   -4.0530 C.3   116  PRO116      0.0939
    125  N         27.3600   38.8000   -2.7440 N.am  117  LEU117     -0.1978
    126  CA        28.5430   39.2230   -2.0010 C.3   117  LEU117      0.1596
    127  C         29.8050   39.1250   -2.8500 C.2   117  LEU117      0.2287
    128  O         30.9130   39.1290   -2.3320 O.2   117  LEU117     -0.2864
    129  CB        28.6610   38.4680   -0.6710 C.3   117  LEU117      0.0297
    130  CG        27.4990   38.6570    0.3250 C.3   117  LEU117      0.0022
    131  CD1       27.7660   38.0260    1.7130 C.3   117  LEU117      0.0001
    132  CD2       27.1860   40.1790    0.4930 C.3   117  LEU117      0.0001
    133  N         36.4760   35.6040    6.7170 N.3   131  ARG131     -0.1245
    134  CA        35.8380   34.3200    6.8590 C.3   131  ARG131      0.1563
    135  C         36.8340   33.1980    7.2180 C.2   131  ARG131      0.2260
    136  O         36.4620   32.2200    7.8930 O.2   131  ARG131     -0.2867
    137  CB        35.0370   34.0050    5.6060 C.3   131  ARG131      0.0307
    138  CG        33.7640   34.8060    5.5200 C.3   131  ARG131      0.0489
    139  CD        32.5590   33.9470    5.8550 C.3   131  ARG131      0.2205
    140  NE        31.2870   34.6580    5.6580 N.pl3 131  ARG131     -0.0865
    141  CZ        30.6770   34.7740    4.4740 C.cat 131  ARG131      0.5346
    142  NH1       31.2130   34.2530    3.3800 N.pl3 131  ARG131      0.1354
    143  NH2       29.5380   35.4350    4.3720 N.pl3 131  ARG131      0.1354
@<TRIPOS>BOND
     1   104   103    1
     2   104   105    1
     3   106   105    1
     4   103   102    1
     5    98    99    1
     6   102    99    1
     7    99   100    1
     8   116   115    1
     9   100   107   am
    10   100   101    2
    11   107   108    1
    12   115   117    1
    13   115   114    2
    14   113   114    1
    15   113   112    1
    16    12    11    2
    17   110   109    2
    18    10    11    1
    19    10     9    1
    20   108   111    1
    21   108   109    1
    22   112   111    1
    23   109   118   am
    24    30    31    1
    25   118   119    1
    26   118   124    1
    27     9     3   am
    28   119   120    1
    29   119   122    1
    30   124   123    1
    31     4     3    2
    32   121   120    2
    33     3     2    1
    34    32    31    1
    35    32    33    2
    36   123   122    1
    37    13    14    1
    38   120   125   am
    39    31    34    1
    40    16    15    2
    41    15    14    1
    42     5     2    1
    43     5     6    1
    44    34    36    1
    45    34    35    1
    46     7     6    1
    47     7     8    1
    48     2     1    1
    49   127   128    2
    50   127   126    1
    51   125   126    1
    52    14    17    1
    53    29    27   ar
    54   126   129    1
    55    25    24    2
    56    26    27    1
    57    26    23    1
    58    24    23    1
    59    17    18    1
    60    41    38    1
    61    41    42    1
    62    39    38    1
    63    39    40    2
    64    37    38    1
    65    27    28   ar
    66    18    19    1
    67    21    20    1
    68    23    22    1
    69   129   130    1
    70    42    43   ar
    71    42    44   ar
    72    43    45   ar
    73    20    19    1
    74    44    46   ar
    75   130   132    1
    76   130   131    1
    77    45    47   ar
    78    82    81    2
    79    46    47   ar
    80    90    91    1
    81    90    88   am
    82    57    58   ar
    83    57    55   ar
    84    87    86    1
    85    87    88    1
    86    79    80    1
    87    81    86   am
    88    81    80    1
    89    58    56   ar
    90    91    92    1
    91    55    53   ar
    92    88    89    2
    93    80    83    1
    94    56    54   ar
    95    53    54   ar
    96    53    52    1
    97    92    94   am
    98    92    93    2
    99    52    49    1
   100    83    85    1
   101    83    84    1
   102   142   141    1
   103    94    95    1
   104    78    76   ar
   105    68    67    1
   106    69    67    1
   107    49    48    1
   108    49    50    1
   109   143   141    1
   110   141   140    2
   111    67    66    2
   112    95    96    1
   113    76    75    1
   114    76    77   ar
   115    75    74    1
   116    50    51    2
   117    50    59   am
   118   138   137    1
   119   138   139    1
   120   137   134    1
   121   140   139    1
   122    66    65    1
   123    96    97    2
   124    59    60    1
   125    65    64    1
   126    74    71    1
   127    70    71    1
   128   133   134    1
   129    71    72    1
   130   134   135    1
   131   135   136    2
   132    60    63    1
   133    60    61    1
   134    64    63    1
   135    61    62    2
   136    72    73    2
