@<TRIPOS>MOLECULE
tmp/3mufA00.pdb
 138 128 0 0 0
SMALL
GASTEIGER

@<TRIPOS>ATOM
      1  N         32.8690   31.1220   -1.5110 N.3     9  MET9       -0.1230
      2  CA        32.3440   31.0160   -2.8840 C.3     9  MET9        0.1702
      3  C         33.3600   30.4310   -3.8240 C.2     9  MET9        0.2593
      4  O         34.5170   30.8910   -3.9530 O.2     9  MET9       -0.2718
      5  CB        31.8160   32.3620   -3.4440 C.3     9  MET9        0.0401
      6  CG        30.5900   32.9010   -2.6590 C.3     9  MET9        0.0596
      7  SD        30.1060   34.6480   -2.9190 S.3     9  MET9       -0.1393
      8  CE        31.1420   35.3210   -1.6360 C.3     9  MET9        0.0692
      9  N         32.9300   29.3560   -4.4380 N.am   10  GLY10      -0.1942
     10  CA        33.5440   28.9360   -5.7170 C.3    10  GLY10       0.2014
     11  C         34.4920   27.8080   -5.3580 C.2    10  GLY10       0.2640
     12  O         35.2750   27.3650   -6.2090 O.2    10  GLY10      -0.2714
     13  N         34.4320   27.3390   -4.0920 N.am   11  SER11      -0.1935
     14  CA        35.3380   26.2600   -3.6590 C.3    11  SER11       0.2055
     15  C         34.9180   24.8360   -4.1040 C.2    11  SER11       0.2644
     16  O         35.6050   23.8550   -3.7880 O.2    11  SER11      -0.2714
     17  CB        35.6300   26.3180   -2.1450 C.3    11  SER11       0.2130
     18  OG        34.4390   26.2760   -1.4100 O.3    11  SER11      -0.2179
     19  N         33.8170   24.7200   -4.8470 N.am   12  GLY12      -0.1939
     20  CA        33.4720   23.4670   -5.5340 C.3    12  GLY12       0.2014
     21  C         32.7370   22.4950   -4.6180 C.2    12  GLY12       0.2639
     22  O         32.8260   21.2630   -4.7770 O.2    12  GLY12      -0.2714
     23  N         32.0000   23.0360   -3.6560 N.am   13  LYS13      -0.1963
     24  CA        31.2650   22.1790   -2.7420 C.3    13  LYS13       0.1728
     25  C         30.1830   21.4360   -3.4810 C.2    13  LYS13       0.2617
     26  O         30.1540   20.2180   -3.5080 O.2    13  LYS13      -0.2715
     27  CB        30.6450   22.9810   -1.6260 C.3    13  LYS13       0.0311
     28  CG        31.6280   23.8330   -0.9970 C.3    13  LYS13       0.0038
     29  CD        31.0280   24.6090    0.0900 C.3    13  LYS13       0.0206
     30  CE        31.3850   26.0420   -0.1660 C.3    13  LYS13       0.1093
     31  NZ        30.3700   26.8160   -0.8760 N.3    13  LYS13      -0.1314
     32  N         29.2820   22.1940   -4.0770 N.am   14  SER14      -0.1936
     33  CA        28.1050   21.6050   -4.6510 C.3    14  SER14       0.2055
     34  C         28.4960   20.3630   -5.4620 C.2    14  SER14       0.2643
     35  O         27.9000   19.3140   -5.2380 O.2    14  SER14      -0.2714
     36  CB        27.3080   22.6460   -5.4710 C.3    14  SER14       0.2130
     37  OG        26.5550   22.0090   -6.5020 O.3    14  SER14      -0.2179
     38  N         29.4860   20.4250   -6.3520 N.am   15  SER15      -0.1949
     39  CA        29.7090   19.2170   -7.1580 C.3    15  SER15       0.1924
     40  C         30.4720   18.1090   -6.4730 C.2    15  SER15       0.2314
     41  O         30.1370   16.9420   -6.6230 O.2    15  SER15      -0.2863
     42  CB        30.2030   19.4660   -8.6160 C.3    15  SER15       0.2116
     43  OG        30.8960   20.6820   -8.7600 O.3    15  SER15      -0.2180
     44  N         21.7760   20.5070   -0.5200 N.3    30  ASP30      -0.1239
     45  CA        22.5080   21.7530   -0.7530 C.3    30  ASP30       0.1674
     46  C         21.7080   22.8250   -0.0550 C.2    30  ASP30       0.2266
     47  O         20.6170   23.1140   -0.4930 O.2    30  ASP30      -0.2867
     48  CB        22.5560   22.0260   -2.2570 C.3    30  ASP30       0.1410
     49  CG        23.2860   23.2930   -2.6000 C.2    30  ASP30       0.3668
     50  OD1       24.4800   23.2010   -2.9680 O.co2  30  ASP30      -0.2456
     51  OD2       22.6910   24.3850   -2.5000 O.co2  30  ASP30      -0.2456
     52  N         26.0210   20.1350    1.3020 N.3    76  SER76      -0.1202
     53  CA        26.7710   21.1640    0.6590 C.3    76  SER76       0.2020
     54  C         26.2240   22.5000    1.2220 C.2    76  SER76       0.2619
     55  O         25.0370   22.6270    1.5470 O.2    76  SER76      -0.2717
     56  CB        26.4410   21.0050   -0.8230 C.3    76  SER76       0.2103
     57  OG        26.9970   22.0420   -1.5200 O.3    76  SER76      -0.2182
     58  N         27.0800   23.4990    1.3110 N.am   77  THR77      -0.1952
     59  CA        26.8360   24.6260    2.1820 C.3    77  THR77       0.1897
     60  C         27.0660   25.9320    1.4640 C.2    77  THR77       0.2313
     61  O         27.9560   26.0190    0.6580 O.2    77  THR77      -0.2863
     62  CB        27.8250   24.4420    3.3530 C.3    77  THR77       0.1794
     63  OG1       27.1010   23.9420    4.4580 O.3    77  THR77      -0.2208
     64  CG2       28.5050   25.6610    3.7470 C.3    77  THR77       0.0378
     65  N         41.0070   27.1660   -0.4330 N.3    98  MET98      -0.1245
     66  CA        41.6630   27.7120   -1.6070 C.3    98  MET98       0.1570
     67  C         42.0330   29.1500   -1.2480 C.2    98  MET98       0.2261
     68  O         41.7890   29.6180   -0.1110 O.2    98  MET98      -0.2867
     69  CB        40.7350   27.7080   -2.8040 C.3    98  MET98       0.0387
     70  CG        40.9900   26.6100   -3.8160 C.3    98  MET98       0.0595
     71  SD        39.5280   26.3790   -4.8470 S.3    98  MET98      -0.1393
     72  CE        40.2600   26.2560   -6.4730 C.3    98  MET98       0.0692
     73  N         37.9540   30.7290  -11.3170 N.3   106  ARG106     -0.1231
     74  CA        37.0380   29.7020  -11.8200 C.3   106  ARG106      0.1694
     75  C         35.5210   29.9800  -11.6800 C.2   106  ARG106      0.2591
     76  O         34.7160   29.0610  -11.7570 O.2   106  ARG106     -0.2718
     77  CB        37.3710   28.3610  -11.1570 C.3   106  ARG106      0.0321
     78  CG        36.9730   28.2600   -9.6930 C.3   106  ARG106      0.0489
     79  CD        38.1280   27.7830   -8.8550 C.3   106  ARG106      0.2205
     80  NE        38.8060   26.5730   -9.3470 N.pl3 106  ARG106     -0.0865
     81  CZ        39.9710   26.5340  -10.0130 C.cat 106  ARG106      0.5346
     82  NH1       40.6440   27.6480  -10.3500 N.pl3 106  ARG106      0.1354
     83  NH2       40.4680   25.3570  -10.3540 N.pl3 106  ARG106      0.1354
     84  N         35.1200   31.2250  -11.4680 N.am  107  LEU107     -0.1980
     85  CA        33.7160   31.5340  -11.5580 C.3   107  LEU107      0.1596
     86  C         33.5590   32.3920  -12.7760 C.2   107  LEU107      0.2287
     87  O         34.0920   33.4950  -12.7990 O.2   107  LEU107     -0.2864
     88  CB        33.2410   32.2900  -10.3190 C.3   107  LEU107      0.0297
     89  CG        33.1800   31.5510   -8.9720 C.3   107  LEU107      0.0022
     90  CD1       32.6550   32.4940   -7.9340 C.3   107  LEU107      0.0001
     91  CD2       32.2830   30.3010   -9.0220 C.3   107  LEU107      0.0001
     92  N         28.0400   33.3520  -13.3940 N.3   111  GLU111     -0.1245
     93  CA        28.2040   32.6080  -12.1470 C.3   111  GLU111      0.1567
     94  C         28.5630   33.4970  -10.9140 C.2   111  GLU111      0.2260
     95  O         28.0470   33.2850   -9.7950 O.2   111  GLU111     -0.2867
     96  CB        29.2150   31.4810  -12.4260 C.3   111  GLU111      0.0388
     97  CG        29.3770   30.3960  -11.3690 C.3   111  GLU111      0.1160
     98  CD        28.3000   29.2840  -11.3660 C.2   111  GLU111      0.3649
     99  OE1       27.2640   29.4040  -12.0740 O.co2 111  GLU111     -0.2457
    100  OE2       28.5130   28.2760  -10.6260 O.co2 111  GLU111     -0.2457
    101  N         25.9280   35.5150   -7.0610 N.3   115  ARG115     -0.1245
    102  CA        26.4310   35.6950   -5.6890 C.3   115  ARG115      0.1563
    103  C         26.4800   37.1910   -5.3600 C.2   115  ARG115      0.2260
    104  O         27.3730   37.8990   -5.8300 O.2   115  ARG115     -0.2867
    105  CB        27.8210   35.0850   -5.5720 C.3   115  ARG115      0.0307
    106  CG        27.7750   33.5830   -5.5860 C.3   115  ARG115      0.0489
    107  CD        28.8040   32.9910   -6.4850 C.3   115  ARG115      0.2205
    108  NE        28.9720   31.5760   -6.1720 N.pl3 115  ARG115     -0.0865
    109  CZ        28.7590   30.5700   -7.0110 C.cat 115  ARG115      0.5346
    110  NH1       28.3980   30.7890   -8.2840 N.pl3 115  ARG115      0.1354
    111  NH2       28.9410   29.3290   -6.5820 N.pl3 115  ARG115      0.1354
    112  N         41.7990   22.2470   -1.6620 N.3   145  ALA145     -0.1245
    113  CA        40.8680   22.2180   -2.7930 C.3   145  ALA145      0.1562
    114  C         41.4510   22.7230   -4.1080 C.2   145  ALA145      0.2260
    115  O         40.7260   22.8540   -5.1120 O.2   145  ALA145     -0.2867
    116  CB        39.5840   22.9660   -2.4490 C.3   145  ALA145      0.0290
    117  N         43.5440   21.4830   -6.5350 N.3   147  GLY147     -0.1210
    118  CA        43.6790   20.6580   -7.7440 C.3   147  GLY147      0.1956
    119  C         42.3240   20.4000   -8.3760 C.2   147  GLY147      0.2612
    120  O         41.4110   21.2220   -8.2460 O.2   147  GLY147     -0.2717
    121  N         42.1720   19.2750   -9.0720 N.am  148  GLY148     -0.1942
    122  CA        40.8320   18.8980   -9.5810 C.3   148  GLY148      0.2014
    123  C         39.8700   18.3960   -8.4950 C.2   148  GLY148      0.2638
    124  O         40.2020   18.3940   -7.2910 O.2   148  GLY148     -0.2714
    125  N         38.6740   17.9810   -8.9260 N.am  149  LEU149     -0.1977
    126  CA        37.6340   17.4140   -8.0370 C.3   149  LEU149      0.1596
    127  C         38.0630   16.0980   -7.3720 C.2   149  LEU149      0.2287
    128  O         37.8870   15.9160   -6.1490 O.2   149  LEU149     -0.2864
    129  CB        36.3190   17.1970   -8.8200 C.3   149  LEU149      0.0297
    130  CG        34.9900   16.8750   -8.0970 C.3   149  LEU149      0.0022
    131  CD1       33.8220   17.0030   -9.0670 C.3   149  LEU149      0.0001
    132  CD2       34.9790   15.4810   -7.4400 C.3   149  LEU149      0.0001
    133  N         40.2290   16.5310   -4.6100 N.3   152  SER152     -0.1217
    134  CA        39.5770   16.9310   -3.3570 C.3   152  SER152      0.1889
    135  C         38.8000   15.7580   -2.8020 C.2   152  SER152      0.2288
    136  O         38.7810   15.5340   -1.6020 O.2   152  SER152     -0.2866
    137  CB        38.6990   18.1970   -3.5060 C.3   152  SER152      0.2089
    138  OG        39.4220   19.2680   -4.1430 O.3   152  SER152     -0.2183
@<TRIPOS>BOND
     1    92    93    1
     2    87    86    2
     3    86    85    1
     4    96    93    1
     5    96    97    1
     6    93    94    1
     7    99    98   ar
     8    74    75    1
     9    74    73    1
    10    74    77    1
    11    76    75    2
    12    75    84   am
    13    85    84    1
    14    85    88    1
    15    97    98    1
    16    98   100   ar
    17    77    78    1
    18    94    95    2
    19    83    81    1
    20    82    81    1
    21    88    89    1
    22    81    80    2
    23    78    79    1
    24   122   121    1
    25   122   123    1
    26    80    79    1
    27   121   119   am
    28   131   130    1
    29    91    89    1
    30    89    90    1
    31   125   123   am
    32   125   126    1
    33   129   130    1
    34   129   126    1
    35    43    42    1
    36    42    39    1
    37   123   124    2
    38   119   120    2
    39   119   118    1
    40   110   109    1
    41   130   132    1
    42   126   127    1
    43   118   117    1
    44   127   128    2
    45    39    40    1
    46    39    38    1
    47   101   102    1
    48   109   111    1
    49   109   108    2
    50    41    40    2
    51    37    36    1
    52   107   108    1
    53   107   106    1
    54    72    71    1
    55    38    34   am
    56    12    11    2
    57   104   103    2
    58    10    11    1
    59    10     9    1
    60   102   105    1
    61   102   103    1
    62   106   105    1
    63    20    19    1
    64    20    21    1
    65    36    33    1
    66    34    35    2
    67    34    33    1
    68    11    13   am
    69   115   114    2
    70    19    15   am
    71    71    70    1
    72    22    21    2
    73    33    32    1
    74    21    23   am
    75   133   134    1
    76     9     3   am
    77   138   137    1
    78   114   113    1
    79    15    16    2
    80    15    14    1
    81    13    14    1
    82    32    25   am
    83     4     3    2
    84     3     2    1
    85    70    69    1
    86    14    17    1
    87    23    24    1
    88    26    25    2
    89   137   134    1
    90    25    24    1
    91     5     2    1
    92     5     6    1
    93   134   135    1
    94    50    49   ar
    95     7     6    1
    96     7     8    1
    97     2     1    1
    98    69    66    1
    99   135   136    2
   100   113   116    1
   101   113   112    1
   102    24    27    1
   103    49    51   ar
   104    49    48    1
   105    48    45    1
   106    17    18    1
   107    27    28    1
   108    66    67    1
   109    66    65    1
   110    57    56    1
   111    67    68    2
   112    28    29    1
   113    31    30    1
   114    56    53    1
   115    45    44    1
   116    45    46    1
   117    47    46    2
   118    30    29    1
   119    61    60    2
   120    53    54    1
   121    53    52    1
   122    54    58   am
   123    54    55    2
   124    58    59    1
   125    60    59    1
   126    59    62    1
   127    62    64    1
   128    62    63    1
