@<TRIPOS>MOLECULE
tmp/3muiA00.pdb
 136 133 0 0 0
SMALL
GASTEIGER

@<TRIPOS>ATOM
      1  N        -26.1080  -21.0910 -113.4070 N.3    84  TRP84      -0.1241
      2  CA       -26.5800  -19.7110 -113.3820 C.3    84  TRP84       0.1605
      3  C        -25.3830  -18.7590 -113.3670 C.2    84  TRP84       0.2264
      4  O        -24.3160  -19.1160 -112.8760 O.2    84  TRP84      -0.2867
      5  CB       -27.4300  -19.5270 -112.1160 C.3    84  TRP84       0.0550
      6  CG       -28.1420  -18.2150 -111.9630 C.ar   84  TRP84       0.0003
      7  CD1      -28.6110  -17.4050 -112.9610 C.ar   84  TRP84       0.0946
      8  CD2      -28.5810  -17.6270 -110.7300 C.ar   84  TRP84       0.0152
      9  NE1      -29.3200  -16.3550 -112.4250 N.ar   84  TRP84      -0.2442
     10  CE2      -29.3190  -16.4670 -111.0590 C.ar   84  TRP84       0.0810
     11  CE3      -28.4280  -17.9720 -109.3790 C.ar   84  TRP84       0.0012
     12  CZ2      -29.9060  -15.6470 -110.0840 C.ar   84  TRP84       0.0191
     13  CZ3      -29.0090  -17.1590 -108.4090 C.ar   84  TRP84       0.0001
     14  CH2      -29.7420  -16.0070 -108.7700 C.ar   84  TRP84       0.0015
     15  N        -25.2130  -16.1820 -111.6490 N.3    86  ASN86      -0.1240
     16  CA       -25.1270  -15.6300 -110.3000 C.3    86  ASN86       0.1653
     17  C        -24.8780  -16.7370 -109.2780 C.2    86  ASN86       0.2266
     18  O        -25.0280  -17.9250 -109.5790 O.2    86  ASN86      -0.2867
     19  CB       -26.4260  -14.9030 -109.9330 C.3    86  ASN86       0.1155
     20  CG       -26.5480  -13.5380 -110.5950 C.2    86  ASN86       0.2627
     21  OD1      -27.6540  -13.0440 -110.8270 O.2    86  ASN86      -0.2716
     22  ND2      -25.4150  -12.9190 -110.8830 N.am   86  ASN86      -0.0877
     23  N        -31.9220  -18.1670 -116.2030 N.3   133  GLU133     -0.1245
     24  CA       -31.6790  -16.8320 -116.7470 C.3   133  GLU133      0.1567
     25  C        -30.5550  -16.6530 -117.7680 C.2   133  GLU133      0.2260
     26  O        -29.8430  -15.6440 -117.7290 O.2   133  GLU133     -0.2867
     27  CB       -31.4390  -15.8950 -115.5630 C.3   133  GLU133      0.0388
     28  CG       -32.5790  -15.9140 -114.5520 C.3   133  GLU133      0.1160
     29  CD       -32.2620  -15.1500 -113.2790 C.2   133  GLU133      0.3649
     30  OE1      -31.2320  -14.4470 -113.2290 O.co2 133  GLU133     -0.2457
     31  OE2      -33.0580  -15.2520 -112.3230 O.co2 133  GLU133     -0.2457
     32  N        -31.6100  -10.0020 -120.7310 N.3   137  ASP137     -0.1239
     33  CA       -32.7880   -9.2710 -120.2770 C.3   137  ASP137      0.1674
     34  C        -32.8490   -7.8980 -120.9430 C.2   137  ASP137      0.2266
     35  O        -33.7830   -7.1270 -120.7220 O.2   137  ASP137     -0.2867
     36  CB       -32.7640   -9.1080 -118.7560 C.3   137  ASP137      0.1410
     37  CG       -34.0880   -8.6210 -118.2070 C.2   137  ASP137      0.3668
     38  OD1      -35.1200   -9.2360 -118.5390 O.co2 137  ASP137     -0.2456
     39  OD2      -34.1010   -7.6290 -117.4430 O.co2 137  ASP137     -0.2456
     40  N        -36.9410  -14.9060 -115.7010 N.3   178  TYR178     -0.1227
     41  CA       -37.8860  -13.8690 -115.2770 C.3   178  TYR178      0.1736
     42  C        -38.1920  -12.9300 -116.4530 C.2   178  TYR178      0.2595
     43  O        -37.5420  -13.0150 -117.4960 O.2   178  TYR178     -0.2718
     44  CB       -37.3220  -13.0630 -114.1060 C.3   178  TYR178      0.0548
     45  CG       -36.0600  -12.2980 -114.4330 C.ar  178  TYR178     -0.0200
     46  CD1      -34.8230  -12.9400 -114.4720 C.ar  178  TYR178     -0.0009
     47  CD2      -36.1030  -10.9250 -114.7000 C.ar  178  TYR178     -0.0009
     48  CE1      -33.6550  -12.2360 -114.7630 C.ar  178  TYR178      0.0417
     49  CE2      -34.9420  -10.2120 -114.9930 C.ar  178  TYR178      0.0417
     50  CZ       -33.7240  -10.8720 -115.0220 C.ar  178  TYR178      0.1957
     51  OH       -32.5740  -10.1760 -115.3050 O.3   178  TYR178     -0.2866
     52  N        -39.1590  -12.0290 -116.2720 N.am  179  ASN179     -0.1974
     53  CA       -39.5850  -11.1160 -117.3440 C.3   179  ASN179      0.1688
     54  C        -39.9380  -11.9680 -118.5580 C.2   179  ASN179      0.2292
     55  O        -39.8030  -11.5510 -119.7120 O.2   179  ASN179     -0.2864
     56  CB       -38.4690  -10.1280 -117.6880 C.3   179  ASN179      0.1181
     57  CG       -38.3330   -9.0260 -116.6520 C.2   179  ASN179      0.2629
     58  OD1      -37.3920   -8.2320 -116.6880 O.2   179  ASN179     -0.2716
     59  ND2      -39.2800   -8.9710 -115.7250 N.am  179  ASN179     -0.0877
     60  N        -42.6750  -10.4640 -121.2510 N.3   182  PHE182     -0.1241
     61  CA       -42.4930   -9.2860 -122.0940 C.3   182  PHE182      0.1605
     62  C        -42.1380   -9.8760 -123.4640 C.2   182  PHE182      0.2264
     63  O        -41.1620  -10.6170 -123.5880 O.2   182  PHE182     -0.2867
     64  CB       -41.3730   -8.3970 -121.5520 C.3   182  PHE182      0.0534
     65  CG       -41.6400   -7.8680 -120.1620 C.ar  182  PHE182     -0.0203
     66  CD1      -42.9450   -7.7520 -119.6840 C.ar  182  PHE182     -0.0042
     67  CD2      -40.5910   -7.4780 -119.3380 C.ar  182  PHE182     -0.0042
     68  CE1      -43.1980   -7.2550 -118.4030 C.ar  182  PHE182     -0.0003
     69  CE2      -40.8360   -6.9780 -118.0530 C.ar  182  PHE182     -0.0003
     70  CZ       -42.1440   -6.8690 -117.5890 C.ar  182  PHE182     -0.0000
     71  N        -40.6860  -17.4770 -113.8050 N.3   209  GLN209     -0.1245
     72  CA       -40.4650  -16.9540 -112.4600 C.3   209  GLN209      0.1566
     73  C        -41.6270  -16.1130 -111.9570 C.2   209  GLN209      0.2260
     74  O        -42.0130  -16.2020 -110.7940 O.2   209  GLN209     -0.2867
     75  CB       -39.1590  -16.1570 -112.4140 C.3   209  GLN209      0.0367
     76  CG       -37.9170  -17.0500 -112.2860 C.3   209  GLN209      0.0905
     77  CD       -36.6420  -16.2560 -112.1450 C.2   209  GLN209      0.2608
     78  OE1      -36.6160  -15.2210 -111.4790 O.2   209  GLN209     -0.2717
     79  NE2      -35.5680  -16.7450 -112.7530 N.am  209  GLN209     -0.0878
     80  N        -41.9150  -12.7850 -111.4230 N.3   211  HIS211     -0.1241
     81  CA       -41.6430  -11.7540 -110.4280 C.3   211  HIS211      0.1621
     82  C        -42.3610  -10.5710 -111.0620 C.2   211  HIS211      0.2264
     83  O        -41.7800   -9.7970 -111.8240 O.2   211  HIS211     -0.2867
     84  CB       -40.1480  -11.4840 -110.2950 C.3   211  HIS211      0.0745
     85  CG       -39.4250  -12.5220 -109.4940 C.ar  211  HIS211      0.0817
     86  ND1      -39.8100  -12.8760 -108.2180 N.ar  211  HIS211     -0.2268
     87  CD2      -38.3560  -13.2980 -109.7920 C.ar  211  HIS211      0.1154
     88  CE1      -39.0110  -13.8280 -107.7660 C.ar  211  HIS211      0.1986
     89  NE2      -38.1210  -14.1020 -108.7040 N.ar  211  HIS211     -0.2212
     90  N        -47.4920   -4.8730 -114.5230 N.3   216  ARG216     -0.1245
     91  CA       -46.7420   -5.6840 -115.4860 C.3   216  ARG216      0.1563
     92  C        -46.4040   -7.1030 -115.0400 C.2   216  ARG216      0.2260
     93  O        -46.0620   -7.3320 -113.8830 O.2   216  ARG216     -0.2867
     94  CB       -45.4310   -4.9870 -115.8530 C.3   216  ARG216      0.0307
     95  CG       -45.5620   -3.5120 -116.1750 C.3   216  ARG216      0.0489
     96  CD       -44.2750   -3.0060 -116.8010 C.3   216  ARG216      0.2205
     97  NE       -44.0880   -3.5830 -118.1300 N.pl3 216  ARG216     -0.0865
     98  CZ       -43.0740   -3.2890 -118.9360 C.cat 216  ARG216      0.5346
     99  NH1      -42.1420   -2.4250 -118.5470 N.pl3 216  ARG216      0.1354
    100  NH2      -43.0040   -3.8410 -120.1420 N.pl3 216  ARG216      0.1354
    101  N        -41.1920   -1.1510 -111.4500 N.3   248  PHE248     -0.1241
    102  CA       -39.7440   -1.0550 -111.6000 C.3   248  PHE248      0.1605
    103  C        -39.1800    0.3550 -111.4140 C.2   248  PHE248      0.2264
    104  O        -38.1110    0.5260 -110.8280 O.2   248  PHE248     -0.2867
    105  CB       -39.3180   -1.5790 -112.9720 C.3   248  PHE248      0.0534
    106  CG       -37.8310   -1.6050 -113.1700 C.ar  248  PHE248     -0.0203
    107  CD1      -37.0430   -2.5320 -112.4910 C.ar  248  PHE248     -0.0042
    108  CD2      -37.2130   -0.6900 -114.0160 C.ar  248  PHE248     -0.0042
    109  CE1      -35.6580   -2.5490 -112.6530 C.ar  248  PHE248     -0.0003
    110  CE2      -35.8320   -0.6940 -114.1860 C.ar  248  PHE248     -0.0003
    111  CZ       -35.0510   -1.6270 -113.5040 C.ar  248  PHE248     -0.0000
    112  N        -37.6640  -11.4600 -100.5080 N.3   298  TRP298     -0.1241
    113  CA       -36.4420  -10.8970 -101.0520 C.3   298  TRP298      0.1605
    114  C        -36.6930   -9.4890 -101.6000 C.2   298  TRP298      0.2264
    115  O        -35.7530   -8.7180 -101.7880 O.2   298  TRP298     -0.2867
    116  CB       -35.9060  -11.7960 -102.1700 C.3   298  TRP298      0.0550
    117  CG       -36.7280  -11.7430 -103.4320 C.ar  298  TRP298      0.0003
    118  CD1      -38.0550  -12.0500 -103.5700 C.ar  298  TRP298      0.0946
    119  CD2      -36.2760  -11.3340 -104.7270 C.ar  298  TRP298      0.0152
    120  NE1      -38.4530  -11.8560 -104.8720 N.ar  298  TRP298     -0.2442
    121  CE2      -37.3810  -11.4160 -105.6030 C.ar  298  TRP298      0.0810
    122  CE3      -35.0390  -10.9050 -105.2330 C.ar  298  TRP298      0.0012
    123  CZ2      -37.2880  -11.0830 -106.9610 C.ar  298  TRP298      0.0191
    124  CZ3      -34.9460  -10.5750 -106.5830 C.ar  298  TRP298      0.0001
    125  CH2      -36.0660  -10.6660 -107.4310 C.ar  298  TRP298      0.0015
    126  N        -34.7350   -5.7690 -102.6640 N.3   302  PHE302     -0.1241
    127  CA       -34.5280   -5.7330 -104.1070 C.3   302  PHE302      0.1605
    128  C        -35.7850   -5.2180 -104.8020 C.2   302  PHE302      0.2264
    129  O        -36.8980   -5.6340 -104.4770 O.2   302  PHE302     -0.2867
    130  CB       -34.1950   -7.1250 -104.6470 C.3   302  PHE302      0.0534
    131  CG       -33.8200   -7.1290 -106.1010 C.ar  302  PHE302     -0.0203
    132  CD1      -32.5140   -6.8510 -106.4970 C.ar  302  PHE302     -0.0042
    133  CD2      -34.7770   -7.3760 -107.0780 C.ar  302  PHE302     -0.0042
    134  CE1      -32.1660   -6.8200 -107.8500 C.ar  302  PHE302     -0.0003
    135  CE2      -34.4420   -7.3470 -108.4310 C.ar  302  PHE302     -0.0003
    136  CZ       -33.1330   -7.0680 -108.8180 C.ar  302  PHE302     -0.0000
@<TRIPOS>BOND
     1    63    62    2
     2    62    61    1
     3    61    64    1
     4    61    60    1
     5    64    65    1
     6    34    35    2
     7    34    33    1
     8    32    33    1
     9    33    36    1
    10    65    66   ar
    11    65    67   ar
    12   100    98    1
    13    55    54    2
    14    66    68   ar
    15    67    69   ar
    16    98    99    1
    17    98    97    2
    18    36    37    1
    19    54    53    1
    20    38    37   ar
    21    68    70   ar
    22    37    39   ar
    23    97    96    1
    24    69    70   ar
    25    25    26    2
    26    25    24    1
    27    56    53    1
    28    56    57    1
    29    43    42    2
    30    53    52    1
    31    96    95    1
    32    24    23    1
    33    24    27    1
    34    58    57    2
    35    57    59   am
    36    42    52   am
    37    42    41    1
    38    95    94    1
    39    94    91    1
    40    40    41    1
    41    27    28    1
    42    91    92    1
    43    91    90    1
    44    51    50    1
    45    41    44    1
    46    92    93    2
    47    50    49   ar
    48    50    48   ar
    49    49    47   ar
    50    48    46   ar
    51    47    45   ar
    52    28    29    1
    53    46    45   ar
    54    45    44    1
    55   110   108   ar
    56   110   111   ar
    57   108   106   ar
    58    71    72    1
    59   111   109   ar
    60     1     2    1
    61     2     3    1
    62     2     5    1
    63     3     4    2
    64    29    30   ar
    65    29    31   ar
    66   106   105    1
    67   106   107   ar
    68   105   102    1
    69     7     9   ar
    70     7     6   ar
    71    79    77   am
    72   109   107   ar
    73    72    75    1
    74    72    73    1
    75     9    10   ar
    76    75    76    1
    77    76    77    1
    78    77    78    2
    79     5     6    1
    80     6     8   ar
    81    73    74    2
    82    83    82    2
    83    15    16    1
    84   102   101    1
    85   102   103    1
    86    80    81    1
    87   103   104    2
    88    82    81    1
    89    10     8   ar
    90    10    12   ar
    91    22    20   am
    92    21    20    2
    93     8    11   ar
    94    20    19    1
    95    81    84    1
    96    16    19    1
    97    16    17    1
    98    84    85    1
    99    12    14   ar
   100    87    85   ar
   101    87    89   ar
   102    18    17    2
   103    85    86   ar
   104    11    13   ar
   105   136   135   ar
   106   136   134   ar
   107    14    13   ar
   108    89    88   ar
   109   135   133   ar
   110    86    88   ar
   111   134   132   ar
   112   125   123   ar
   113   125   124   ar
   114   133   131   ar
   115   123   121   ar
   116   124   122   ar
   117   132   131   ar
   118   131   130    1
   119   121   120   ar
   120   121   119   ar
   121   122   119   ar
   122   120   118   ar
   123   128   129    2
   124   128   127    1
   125   119   117   ar
   126   130   127    1
   127   127   126    1
   128   118   117   ar
   129   117   116    1
   130   116   113    1
   131   115   114    2
   132   114   113    1
   133   113   112    1
