@<TRIPOS>MOLECULE
tmp/3mukA00.pdb
 146 143 0 0 0
SMALL
GASTEIGER

@<TRIPOS>ATOM
      1  N        -11.6060   -3.0100    0.5870 N.3    43  PRO43      -0.2102
      2  CA       -10.4340   -3.7610    1.0680 C.3    43  PRO43       0.1504
      3  C         -9.8160   -3.2670    2.3430 C.2    43  PRO43       0.2575
      4  O         -8.9620   -3.9880    2.9350 O.2    43  PRO43      -0.2718
      5  CB        -9.3750   -3.5470   -0.0500 C.3    43  PRO43       0.0282
      6  CG       -10.0920   -3.1030   -1.2300 C.3    43  PRO43       0.0208
      7  CD       -11.3540   -2.4140   -0.7290 C.3    43  PRO43       0.0893
      8  N        -10.1700   -2.0250    2.7310 N.am   44  PHE44      -0.1977
      9  CA        -9.4340   -1.3280    3.8040 C.3    44  PHE44       0.1639
     10  C        -10.2600   -1.1820    5.0700 C.2    44  PHE44       0.2290
     11  O         -9.8320   -0.6100    6.0730 O.2    44  PHE44      -0.2864
     12  CB        -8.9710    0.0480    3.2690 C.3    44  PHE44       0.0560
     13  CG        -8.0920   -0.0290    2.0360 C.ar   44  PHE44      -0.0200
     14  CD1       -6.7200   -0.3210    2.1700 C.ar   44  PHE44      -0.0042
     15  CD2       -8.5880    0.1690    0.7550 C.ar   44  PHE44      -0.0042
     16  CE1       -5.9230   -0.4090    1.0330 C.ar   44  PHE44      -0.0003
     17  CE2       -7.7420    0.0730   -0.3660 C.ar   44  PHE44      -0.0003
     18  CZ        -6.4400   -0.1790   -0.2230 C.ar   44  PHE44      -0.0000
     19  N         -6.2820   -6.9920    6.9380 N.3    48  VAL48      -0.1245
     20  CA        -6.0900   -7.9020    5.8390 C.3    48  VAL48       0.1561
     21  C         -6.2160   -9.3380    6.3790 C.2    48  VAL48       0.2260
     22  O         -5.5120   -9.7560    7.3320 O.2    48  VAL48      -0.2867
     23  CB        -4.6800   -7.6980    5.2070 C.3    48  VAL48       0.0252
     24  CG1       -4.3830   -8.8640    4.2090 C.3    48  VAL48       0.0019
     25  CG2       -4.6670   -6.3270    4.4820 C.3    48  VAL48       0.0019
     26  N         -7.7290  -14.5180    1.8990 N.3    53  LEU53      -0.1231
     27  CA        -7.2870  -14.0010    0.5990 C.3    53  LEU53       0.1693
     28  C         -6.1020  -14.7930    0.0190 C.2    53  LEU53       0.2592
     29  O         -5.5980  -14.4910   -1.0510 O.2    53  LEU53      -0.2718
     30  CB        -6.8910  -12.5110    0.7690 C.3    53  LEU53       0.0284
     31  CG        -7.9440  -11.4670    1.1700 C.3    53  LEU53       0.0019
     32  CD1       -7.1700  -10.1690    1.4230 C.3    53  LEU53       0.0001
     33  CD2       -9.1100  -11.2210    0.1180 C.3    53  LEU53       0.0001
     34  N         -5.6560  -15.8020    0.7500 N.am   54  ASN54      -0.1960
     35  CA        -4.6160  -16.7070    0.3530 C.3    54  ASN54       0.1819
     36  C         -3.3630  -15.9760    0.0350 C.2    54  ASN54       0.2621
     37  O         -2.7490  -16.1300   -1.0410 O.2    54  ASN54      -0.2715
     38  CB        -5.0850  -17.6700   -0.7330 C.3    54  ASN54       0.1195
     39  CG        -6.2870  -18.5340   -0.2680 C.2    54  ASN54       0.2630
     40  OD1       -7.4150  -18.3960   -0.7850 O.2    54  ASN54      -0.2716
     41  ND2       -6.0610  -19.3890    0.7390 N.am   54  ASN54      -0.0877
     42  N         -2.9660  -15.1400    1.0220 N.am   55  LEU55      -0.1964
     43  CA        -1.7180  -14.3320    0.9820 C.3    55  LEU55       0.1713
     44  C         -0.7680  -14.6900    2.1090 C.2    55  LEU55       0.2458
     45  O         -0.5310  -13.8810    3.0390 O.2    55  LEU55      -0.2730
     46  CB        -2.0200  -12.8050    1.0490 C.3    55  LEU55       0.0310
     47  CG        -3.1140  -12.3010    0.1140 C.3    55  LEU55       0.0022
     48  CD1       -3.5760  -10.8620    0.4130 C.3    55  LEU55       0.0001
     49  CD2       -2.6260  -12.4560   -1.3360 C.3    55  LEU55       0.0001
     50  N         -0.1750  -15.9180    2.0300 N.am   56  PRO56      -0.2716
     51  CA         0.5150  -16.4080    3.1710 C.3    56  PRO56       0.1536
     52  C          1.7620  -15.6220    3.4890 C.2    56  PRO56       0.2599
     53  O          2.2490  -15.7610    4.6040 O.2    56  PRO56      -0.2715
     54  CB         0.8630  -17.8820    2.7920 C.3    56  PRO56       0.0310
     55  CG         0.6630  -17.9840    1.3540 C.3    56  PRO56       0.0237
     56  CD        -0.2240  -16.8950    0.9250 C.3    56  PRO56       0.0939
     57  N          2.2010  -14.7840    2.5470 N.am   57  ASP57      -0.1958
     58  CA         3.3930  -13.9870    2.6650 C.3    57  ASP57       0.1840
     59  C          3.0690  -12.5810    3.1840 C.2    57  ASP57       0.2622
     60  O          3.9730  -11.8340    3.4830 O.2    57  ASP57      -0.2715
     61  CB         4.1000  -13.8600    1.3090 C.3    57  ASP57       0.1450
     62  CG         3.2230  -13.2600    0.2380 C.2    57  ASP57       0.3671
     63  OD1        1.9670  -13.1580    0.3550 O.co2  57  ASP57      -0.2456
     64  OD2        3.8330  -12.8910   -0.7700 O.co2  57  ASP57      -0.2456
     65  N          1.7930  -12.2350    3.3480 N.am   58  TYR58      -0.1974
     66  CA         1.4540  -10.8160    3.6470 C.3    58  TYR58       0.1639
     67  C          2.1410  -10.3440    4.9500 C.2    58  TYR58       0.2290
     68  O          2.8340   -9.3280    5.0310 O.2    58  TYR58      -0.2864
     69  CB        -0.0600  -10.6490    3.7330 C.3    58  TYR58       0.0560
     70  CG        -0.4240   -9.1670    3.9730 C.ar   58  TYR58      -0.0198
     71  CD1       -0.4710   -8.2460    2.9040 C.ar   58  TYR58      -0.0009
     72  CD2       -0.6730   -8.6820    5.2430 C.ar   58  TYR58      -0.0009
     73  CE1       -0.7100   -6.9120    3.0990 C.ar   58  TYR58       0.0417
     74  CE2       -0.8620   -7.3130    5.4500 C.ar   58  TYR58       0.0417
     75  CZ        -0.9160   -6.4510    4.3720 C.ar   58  TYR58       0.1957
     76  OH        -1.1720   -5.0920    4.5360 O.3    58  TYR58      -0.2866
     77  N         -1.3700    2.5310    6.7920 N.3    93  MET93      -0.1245
     78  CA        -2.2880    1.7590    5.9740 C.3    93  MET93       0.1570
     79  C         -2.0510    1.8940    4.4500 C.2    93  MET93       0.2261
     80  O         -1.9230    0.8730    3.7310 O.2    93  MET93      -0.2867
     81  CB        -3.7010    2.1850    6.2450 C.3    93  MET93       0.0387
     82  CG        -4.7310    1.4330    5.4160 C.3    93  MET93       0.0595
     83  SD        -6.4190    1.9740    5.6560 S.3    93  MET93      -0.1393
     84  CE        -6.4100    3.5240    4.6980 C.3    93  MET93       0.0692
     85  N          0.0610   -0.8730    1.6910 N.3    97  CYS97      -0.1235
     86  CA        -0.4440   -1.3210    0.4220 C.3    97  CYS97       0.1677
     87  C          0.5960   -1.1460   -0.6900 C.2    97  CYS97       0.2270
     88  O          0.7940   -2.0180   -1.5590 O.2    97  CYS97      -0.2867
     89  CB        -1.7520   -0.5480    0.1400 C.3    97  CYS97       0.0956
     90  SG        -2.5640   -1.0080   -1.3210 S.3    97  CYS97      -0.0801
     91  N          3.5050   -3.8790   -0.2560 N.3   100  TYR100     -0.1227
     92  CA         3.1850   -5.3140   -0.5110 C.3   100  TYR100      0.1736
     93  C          2.9480   -5.4850   -2.0220 C.2   100  TYR100      0.2595
     94  O          3.1840   -6.5540   -2.5950 O.2   100  TYR100     -0.2718
     95  CB         1.9200   -5.7960    0.2860 C.3   100  TYR100      0.0548
     96  CG         1.5600   -7.2620    0.0380 C.ar  100  TYR100     -0.0200
     97  CD1        2.3170   -8.3340    0.5480 C.ar  100  TYR100     -0.0009
     98  CD2        0.4730   -7.5970   -0.7970 C.ar  100  TYR100     -0.0009
     99  CE1        2.0100   -9.6760    0.2350 C.ar  100  TYR100      0.0417
    100  CE2        0.1300   -8.9320   -1.0870 C.ar  100  TYR100      0.0417
    101  CZ         0.8740   -9.9690   -0.5330 C.ar  100  TYR100      0.1957
    102  OH         0.5000  -11.2250   -0.8960 O.3   100  TYR100     -0.2866
    103  N          2.2680   -4.5030   -2.6260 N.am  101  ASN101     -0.1974
    104  CA         1.8220   -4.6190   -4.0080 C.3   101  ASN101      0.1688
    105  C          2.7000   -3.8150   -4.9440 C.2   101  ASN101      0.2292
    106  O          3.7900   -3.3650   -4.5340 O.2   101  ASN101     -0.2864
    107  CB         0.3540   -4.1620   -4.0840 C.3   101  ASN101      0.1181
    108  CG        -0.5610   -4.9350   -3.1460 C.2   101  ASN101      0.2629
    109  OD1       -0.9830   -6.0530   -3.4540 O.2   101  ASN101     -0.2716
    110  ND2       -0.8880   -4.3320   -2.0050 N.am  101  ASN101     -0.0877
    111  N          0.4360    0.1720  -10.3460 N.3   104  GLY104     -0.1210
    112  CA        -0.4940   -0.2480  -11.3700 C.3   104  GLY104      0.1956
    113  C         -1.5160   -1.2640  -10.9160 C.2   104  GLY104      0.2612
    114  O         -2.5650   -1.3790  -11.5640 O.2   104  GLY104     -0.2717
    115  N         -1.2170   -2.0190   -9.8440 N.am  105  ASP105     -0.1959
    116  CA        -2.1760   -3.0070   -9.2880 C.3   105  ASP105      0.1840
    117  C         -3.4980   -2.3430   -8.9480 C.2   105  ASP105      0.2622
    118  O         -3.5380   -1.2180   -8.4540 O.2   105  ASP105     -0.2715
    119  CB        -1.6520   -3.7180   -8.0430 C.3   105  ASP105      0.1450
    120  CG        -0.5600   -4.7380   -8.3340 C.2   105  ASP105      0.3671
    121  OD1       -0.3070   -5.0830   -9.5270 O.co2 105  ASP105     -0.2456
    122  OD2        0.1120   -5.1640   -7.3820 O.co2 105  ASP105     -0.2456
    123  N         -4.6040   -3.0400   -9.1740 N.am  106  ASP106     -0.1957
    124  CA        -5.8960   -2.5010   -8.8030 C.3   106  ASP106      0.1840
    125  C         -5.9100   -2.0440   -7.3440 C.2   106  ASP106      0.2621
    126  O         -6.4350   -0.9660   -7.0210 O.2   106  ASP106     -0.2715
    127  CB        -6.9550   -3.5830   -8.9400 C.3   106  ASP106      0.1450
    128  CG        -7.4330   -3.7780  -10.3290 C.2   106  ASP106      0.3671
    129  OD1       -7.1140   -2.9740  -11.2400 O.co2 106  ASP106     -0.2456
    130  OD2       -8.2340   -4.7190  -10.4590 O.co2 106  ASP106     -0.2456
    131  N         -5.3820   -2.8630   -6.4350 N.am  107  ILE107     -0.1977
    132  CA        -5.4330   -2.4880   -4.9960 C.3   107  ILE107      0.1596
    133  C         -4.6550   -1.1400   -4.7720 C.2   107  ILE107      0.2287
    134  O         -5.0250   -0.3000   -3.9140 O.2   107  ILE107     -0.2864
    135  CB        -4.9260   -3.6380   -4.0850 C.3   107  ILE107      0.0276
    136  CG1       -5.2630   -3.3570   -2.6230 C.3   107  ILE107      0.0022
    137  CG2       -3.4150   -3.8100   -4.2670 C.3   107  ILE107      0.0022
    138  CD1       -6.8080   -3.2680   -2.3520 C.3   107  ILE107      0.0001
    139  N         -4.2600    1.3700   -7.1140 N.3   109  LEU109     -0.1245
    140  CA        -5.1080    2.4440   -7.6450 C.3   109  LEU109      0.1561
    141  C         -6.1680    2.8320   -6.6140 C.2   109  LEU109      0.2260
    142  O         -6.5150    3.9830   -6.4710 O.2   109  LEU109     -0.2867
    143  CB        -5.7990    2.0030   -8.9560 C.3   109  LEU109      0.0270
    144  CG        -4.8630    1.5830  -10.1030 C.3   109  LEU109      0.0019
    145  CD1       -5.7150    0.9570  -11.2730 C.3   109  LEU109      0.0001
    146  CD2       -3.9570    2.7420  -10.5710 C.3   109  LEU109      0.0001
@<TRIPOS>BOND
     1   114   113    2
     2   112   113    1
     3   112   111    1
     4   145   144    1
     5   129   128   ar
     6   113   115   am
     7   146   144    1
     8   130   128   ar
     9   128   127    1
    10   144   143    1
    11   115   116    1
    12   121   120   ar
    13   116   117    1
    14   116   119    1
    15   123   117   am
    16   123   124    1
    17   143   140    1
    18   117   118    2
    19   127   124    1
    20   124   125    1
    21   120   119    1
    22   120   122   ar
    23   140   139    1
    24   140   141    1
    25   125   126    2
    26   125   131   am
    27   141   142    2
    28   131   132    1
    29   132   133    1
    30   132   135    1
    31   105   106    2
    32   105   104    1
    33   133   134    2
    34   137   135    1
    35   135   136    1
    36   107   104    1
    37   107   108    1
    38   104   103    1
    39   109   108    2
    40   108   110   am
    41   103    93   am
    42   136   138    1
    43    94    93    2
    44    93    92    1
    45    88    87    2
    46    49    47    1
    47    90    89    1
    48     6     7    1
    49     6     5    1
    50   100    98   ar
    51   100   101   ar
    52    29    28    2
    53    37    36    2
    54   102   101    1
    55    98    96   ar
    56    40    39    2
    57    64    62   ar
    58    38    39    1
    59    38    35    1
    60     7     1    1
    61    87    86    1
    62   101    99   ar
    63    92    91    1
    64    92    95    1
    65    17    18   ar
    66    17    15   ar
    67    39    41   am
    68    18    16   ar
    69     5     2    1
    70    28    27    1
    71    28    34   am
    72    36    35    1
    73    36    42   am
    74    96    95    1
    75    96    97   ar
    76    47    48    1
    77    47    46    1
    78    33    31    1
    79    89    86    1
    80    99    97   ar
    81    62    63   ar
    82    62    61    1
    83    35    34    1
    84    86    85    1
    85     1     2    1
    86    27    30    1
    87    27    26    1
    88    15    13   ar
    89    30    31    1
    90    56    55    1
    91    56    50    1
    92    43    42    1
    93    43    46    1
    94    43    44    1
    95    16    14   ar
    96     2     3    1
    97    31    32    1
    98    61    58    1
    99    55    54    1
   100    50    44   am
   101    50    51    1
   102    13    14   ar
   103    13    12    1
   104    44    45    2
   105     3     8   am
   106     3     4    2
   107    57    58    1
   108    57    52   am
   109    58    59    1
   110     8     9    1
   111    54    51    1
   112    71    73   ar
   113    71    70   ar
   114    73    75   ar
   115    51    52    1
   116    59    65   am
   117    59    60    2
   118    12     9    1
   119    65    66    1
   120    52    53    2
   121    66    69    1
   122    66    67    1
   123    80    79    2
   124    69    70    1
   125     9    10    1
   126    70    72   ar
   127    24    23    1
   128    75    76    1
   129    75    74   ar
   130    79    78    1
   131    25    23    1
   132    84    83    1
   133    67    68    2
   134    10    11    2
   135    23    20    1
   136    72    74   ar
   137    82    83    1
   138    82    81    1
   139    20    21    1
   140    20    19    1
   141    78    81    1
   142    78    77    1
   143    21    22    2
