@<TRIPOS>MOLECULE
tmp/3mulA00.pdb
 103 99 0 0 0
SMALL
GASTEIGER

@<TRIPOS>ATOM
      1  N        -11.6340   -2.8010    0.8320 N.3    43  PRO43      -0.2102
      2  CA       -10.5210   -3.6470    1.2520 C.3    43  PRO43       0.1504
      3  C         -9.8740   -3.1440    2.5130 C.2    43  PRO43       0.2575
      4  O         -9.1060   -3.9020    3.1170 O.2    43  PRO43      -0.2718
      5  CB        -9.4720   -3.4920    0.1290 C.3    43  PRO43       0.0282
      6  CG       -10.3060   -2.9860   -1.0620 C.3    43  PRO43       0.0208
      7  CD       -11.3710   -2.1390   -0.4640 C.3    43  PRO43       0.0893
      8  N        -10.1970   -1.8950    2.8860 N.am   44  PHE44      -0.1977
      9  CA        -9.4780   -1.2070    3.9840 C.3    44  PHE44       0.1639
     10  C        -10.3260   -1.0620    5.2270 C.2    44  PHE44       0.2290
     11  O         -9.9240   -0.3920    6.1950 O.2    44  PHE44      -0.2864
     12  CB        -9.0180    0.1740    3.4720 C.3    44  PHE44       0.0560
     13  CG        -8.2170    0.0790    2.2180 C.ar   44  PHE44      -0.0200
     14  CD1       -6.9080   -0.2870    2.3400 C.ar   44  PHE44      -0.0042
     15  CD2       -8.7290    0.3270    0.9320 C.ar   44  PHE44      -0.0042
     16  CE1       -6.0290   -0.4680    1.2040 C.ar   44  PHE44      -0.0003
     17  CE2       -7.8750    0.1950   -0.1950 C.ar   44  PHE44      -0.0003
     18  CZ        -6.4820   -0.2000   -0.0420 C.ar   44  PHE44      -0.0000
     19  N         -6.3600   -6.7350    7.1470 N.3    48  VAL48      -0.1245
     20  CA        -6.1910   -7.6780    6.0450 C.3    48  VAL48       0.1561
     21  C         -6.3160   -9.1180    6.5510 C.2    48  VAL48       0.2260
     22  O         -5.6470   -9.5540    7.5180 O.2    48  VAL48      -0.2867
     23  CB        -4.7900   -7.4280    5.4090 C.3    48  VAL48       0.0252
     24  CG1       -4.4070   -8.5180    4.3690 C.3    48  VAL48       0.0019
     25  CG2       -4.7530   -6.0780    4.7470 C.3    48  VAL48       0.0019
     26  N         -7.8300  -14.2040    1.9860 N.3    53  LEU53      -0.1231
     27  CA        -7.3430  -13.6680    0.7270 C.3    53  LEU53       0.1693
     28  C         -6.2450  -14.5420    0.1100 C.2    53  LEU53       0.2592
     29  O         -5.8150  -14.2620   -0.9920 O.2    53  LEU53      -0.2718
     30  CB        -6.9150  -12.1670    0.8930 C.3    53  LEU53       0.0284
     31  CG        -8.0560  -11.2180    1.2940 C.3    53  LEU53       0.0019
     32  CD1       -7.5410   -9.8690    1.8480 C.3    53  LEU53       0.0001
     33  CD2       -9.2100  -10.9940    0.1720 C.3    53  LEU53       0.0001
     34  N         -5.8270  -15.6030    0.8100 N.am   54  ASN54      -0.1960
     35  CA        -4.7590  -16.5240    0.3630 C.3    54  ASN54       0.1819
     36  C         -3.5210  -15.7280    0.0340 C.2    54  ASN54       0.2621
     37  O         -2.9130  -15.8500   -1.0770 O.2    54  ASN54      -0.2715
     38  CB        -5.2010  -17.4180   -0.8150 C.3    54  ASN54       0.1195
     39  CG        -6.4080  -18.2800   -0.4520 C.2    54  ASN54       0.2630
     40  OD1       -7.4810  -18.1940   -1.0820 O.2    54  ASN54      -0.2716
     41  ND2       -6.2600  -19.0830    0.5850 N.am   54  ASN54      -0.0877
     42  N         -3.1170  -14.8980    1.0170 N.am   55  LEU55      -0.1977
     43  CA        -1.8660  -14.0860    0.9380 C.3    55  LEU55       0.1596
     44  C         -1.0060  -14.5080    2.0980 C.2    55  LEU55       0.2287
     45  O         -0.8260  -13.7430    3.0530 O.2    55  LEU55      -0.2864
     46  CB        -2.1880  -12.5820    1.1310 C.3    55  LEU55       0.0297
     47  CG        -3.2380  -12.0160    0.1700 C.3    55  LEU55       0.0022
     48  CD1       -3.5260  -10.5960    0.4770 C.3    55  LEU55       0.0001
     49  CD2       -2.9400  -12.2530   -1.2680 C.3    55  LEU55       0.0001
     50  N          1.5760  -12.0800    3.3930 N.3    58  TYR58      -0.1241
     51  CA         1.2250  -10.6880    3.6810 C.3    58  TYR58       0.1605
     52  C          1.9590  -10.2530    4.9670 C.2    58  TYR58       0.2264
     53  O          2.6430   -9.1920    5.0530 O.2    58  TYR58      -0.2867
     54  CB        -0.3260  -10.5170    3.8290 C.3    58  TYR58       0.0534
     55  CG        -0.6300   -9.0440    4.0300 C.ar   58  TYR58      -0.0201
     56  CD1       -0.5810   -8.1560    2.9170 C.ar   58  TYR58      -0.0009
     57  CD2       -0.8650   -8.5210    5.3180 C.ar   58  TYR58      -0.0009
     58  CE1       -0.7940   -6.7650    3.0850 C.ar   58  TYR58       0.0417
     59  CE2       -1.0090   -7.1330    5.4840 C.ar   58  TYR58       0.0417
     60  CZ        -0.9890   -6.2960    4.3600 C.ar   58  TYR58       0.1957
     61  OH        -1.2410   -4.9360    4.5360 O.3    58  TYR58      -0.2866
     62  N         -0.0640   -0.8520    1.8690 N.3    97  CYS97      -0.1235
     63  CA        -0.5530   -1.3260    0.5950 C.3    97  CYS97       0.1677
     64  C          0.5240   -1.1600   -0.5240 C.2    97  CYS97       0.2270
     65  O          0.7450   -2.0620   -1.3520 O.2    97  CYS97      -0.2867
     66  CB        -1.8970   -0.6240    0.3440 C.3    97  CYS97       0.0956
     67  SG        -2.7010   -1.0470   -1.1520 S.3    97  CYS97      -0.0801
     68  N          3.3160   -3.7990   -0.1060 N.3   100  TYR100     -0.1227
     69  CA         3.0690   -5.2120   -0.3930 C.3   100  TYR100      0.1736
     70  C          2.8100   -5.3840   -1.8770 C.2   100  TYR100      0.2595
     71  O          3.1840   -6.4410   -2.4350 O.2   100  TYR100     -0.2718
     72  CB         1.8820   -5.7230    0.4460 C.3   100  TYR100      0.0548
     73  CG         1.5680   -7.1670    0.1510 C.ar  100  TYR100     -0.0200
     74  CD1        2.3460   -8.2270    0.7000 C.ar  100  TYR100     -0.0009
     75  CD2        0.4690   -7.5240   -0.6170 C.ar  100  TYR100     -0.0009
     76  CE1        2.0580   -9.5910    0.4040 C.ar  100  TYR100      0.0417
     77  CE2        0.2170   -8.8510   -0.9260 C.ar  100  TYR100      0.0417
     78  CZ         0.9430   -9.8830   -0.3920 C.ar  100  TYR100      0.1957
     79  OH         0.5250  -11.1440   -0.8240 O.3   100  TYR100     -0.2866
     80  N          2.2110   -4.3680   -2.5290 N.am  101  ASN101     -0.1974
     81  CA         1.7390   -4.4900   -3.9130 C.3   101  ASN101      0.1688
     82  C          2.6290   -3.7050   -4.8560 C.2   101  ASN101      0.2292
     83  O          3.6270   -3.2330   -4.3880 O.2   101  ASN101     -0.2864
     84  CB         0.2890   -4.0220   -3.9900 C.3   101  ASN101      0.1181
     85  CG        -0.6270   -4.8760   -3.0700 C.2   101  ASN101      0.2629
     86  OD1       -0.9870   -6.0310   -3.4030 O.2   101  ASN101     -0.2716
     87  ND2       -0.9910   -4.3120   -1.9040 N.am  101  ASN101     -0.0877
     88  N         -1.3200   -1.9850   -9.7570 N.3   105  ASP105     -0.1239
     89  CA        -2.2500   -3.0290   -9.2220 C.3   105  ASP105      0.1674
     90  C         -3.5750   -2.4130   -8.8580 C.2   105  ASP105      0.2266
     91  O         -3.6370   -1.2610   -8.3730 O.2   105  ASP105     -0.2867
     92  CB        -1.6710   -3.7330   -7.9890 C.3   105  ASP105      0.1410
     93  CG        -0.5190   -4.6580   -8.3290 C.2   105  ASP105      0.3668
     94  OD1       -0.2680   -4.8920   -9.5550 O.co2 105  ASP105     -0.2456
     95  OD2        0.0780   -5.1900   -7.3620 O.co2 105  ASP105     -0.2456
     96  N         -5.3910   -2.8900   -6.2640 N.3   107  ILE107     -0.1245
     97  CA        -5.4930   -2.4930   -4.8590 C.3   107  ILE107      0.1561
     98  C         -4.7210   -1.1510   -4.6500 C.2   107  ILE107      0.2260
     99  O         -5.0750   -0.3040   -3.8340 O.2   107  ILE107     -0.2867
    100  CB        -4.9870   -3.6460   -3.9690 C.3   107  ILE107      0.0252
    101  CG1       -5.2000   -3.2490   -2.5340 C.3   107  ILE107      0.0019
    102  CG2       -3.5320   -3.7970   -4.1650 C.3   107  ILE107      0.0019
    103  CD1       -6.6740   -3.2240   -2.2020 C.3   107  ILE107      0.0001
@<TRIPOS>BOND
     1    88    89    1
     2    94    93   ar
     3    89    90    1
     4    89    92    1
     5    90    91    2
     6    93    92    1
     7    93    95   ar
     8    96    97    1
     9    97    98    1
    10    97   100    1
    11    82    83    2
    12    82    81    1
    13    98    99    2
    14   102   100    1
    15    84    81    1
    16    84    85    1
    17   100   101    1
    18    81    80    1
    19    86    85    2
    20    85    87   am
    21   101   103    1
    22    80    70   am
    23    71    70    2
    24    70    69    1
    25    65    64    2
    26    49    47    1
    27    67    66    1
    28    40    39    2
    29    37    36    2
    30     6     7    1
    31     6     5    1
    32    29    28    2
    33    77    75   ar
    34    77    78   ar
    35    79    78    1
    36    38    39    1
    37    38    35    1
    38    75    73   ar
    39    64    63    1
    40     7     1    1
    41    39    41   am
    42    69    68    1
    43    69    72    1
    44    78    76   ar
    45    17    18   ar
    46    17    15   ar
    47    18    16   ar
    48    36    35    1
    49    36    42   am
    50    28    27    1
    51    28    34   am
    52     5     2    1
    53    73    72    1
    54    73    74   ar
    55    47    48    1
    56    47    46    1
    57    33    31    1
    58    66    63    1
    59    35    34    1
    60    76    74   ar
    61    63    62    1
    62    27    30    1
    63    27    26    1
    64     1     2    1
    65    30    31    1
    66    15    13   ar
    67    43    42    1
    68    43    46    1
    69    43    44    1
    70    16    14   ar
    71     2     3    1
    72    31    32    1
    73    44    45    2
    74    13    14   ar
    75    13    12    1
    76     3     8   am
    77     3     4    2
    78     8     9    1
    79    56    58   ar
    80    56    55   ar
    81    58    60   ar
    82    50    51    1
    83    12     9    1
    84    51    54    1
    85    51    52    1
    86    54    55    1
    87     9    10    1
    88    55    57   ar
    89    60    61    1
    90    60    59   ar
    91    24    23    1
    92    25    23    1
    93    52    53    2
    94    10    11    2
    95    57    59   ar
    96    23    20    1
    97    20    21    1
    98    20    19    1
    99    21    22    2
