@<TRIPOS>MOLECULE
tmp/3mupC00.pdb
 142 140 0 0 0
SMALL
GASTEIGER

@<TRIPOS>ATOM
      1  N         32.0900  -37.7980   21.4280 N.3    39  VAL39      -0.1245
      2  CA        33.3630  -37.0690   21.4960 C.3    39  VAL39       0.1561
      3  C         34.1070  -37.2180   22.8540 C.2    39  VAL39       0.2260
      4  O         35.3280  -37.1850   22.8710 O.2    39  VAL39      -0.2867
      5  CB        33.1100  -35.6040   20.9960 C.3    39  VAL39       0.0252
      6  CG1       33.8440  -34.5310   21.7940 C.3    39  VAL39       0.0019
      7  CG2       33.3710  -35.4820   19.5050 C.3    39  VAL39       0.0019
      8  N         28.5250  -33.6780   23.8360 N.3    44  ASP44      -0.1225
      9  CA        29.1330  -33.3260   22.5430 C.3    44  ASP44       0.1805
     10  C         29.2460  -34.5370   21.6060 C.2    44  ASP44       0.2598
     11  O         29.8840  -35.5420   21.9600 O.2    44  ASP44      -0.2718
     12  CB        30.5440  -32.7270   22.7290 C.3    44  ASP44       0.1424
     13  CG        30.6850  -31.3340   23.3170 C.2    44  ASP44       0.3668
     14  OD1       29.6960  -30.8220   23.8910 O.co2  44  ASP44      -0.2456
     15  OD2       31.8100  -30.7770   23.2570 O.co2  44  ASP44      -0.2456
     16  N         28.6460  -34.4220   20.4040 N.am   45  VAL45      -0.1966
     17  CA        28.6820  -35.4360   19.3350 C.3    45  VAL45       0.1727
     18  C         29.2130  -34.8240   18.0350 C.2    45  VAL45       0.2616
     19  O         29.0770  -33.6230   17.8230 O.2    45  VAL45      -0.2715
     20  CB        27.3350  -36.1950   19.1080 C.3    45  VAL45       0.0290
     21  CG1       26.8690  -36.9070   20.3730 C.3    45  VAL45       0.0023
     22  CG2       26.2400  -35.2820   18.5670 C.3    45  VAL45       0.0023
     23  N         29.7880  -35.6440   17.1620 N.am   46  LYS46      -0.1977
     24  CA        30.2900  -35.1910   15.8610 C.3    46  LYS46       0.1596
     25  C         29.8500  -36.1520   14.7800 C.2    46  LYS46       0.2287
     26  O         29.7270  -37.3440   15.0530 O.2    46  LYS46      -0.2864
     27  CB        31.8290  -35.0710   15.8550 C.3    46  LYS46       0.0298
     28  CG        32.3470  -33.7620   16.4160 C.3    46  LYS46       0.0038
     29  CD        33.7340  -33.4740   15.9020 C.3    46  LYS46       0.0206
     30  CE        34.4730  -32.5230   16.8000 C.3    46  LYS46       0.1093
     31  NZ        35.9380  -32.8060   16.8300 N.3    46  LYS46      -0.1314
     32  N         29.5380  -30.7640   14.6270 N.3    53  GLY53      -0.1210
     33  CA        29.2810  -31.0590   16.0260 C.3    53  GLY53       0.1956
     34  C         28.0140  -30.4490   16.5970 C.2    53  GLY53       0.2612
     35  O         27.6730  -29.3070   16.2870 O.2    53  GLY53      -0.2717
     36  N         27.3390  -31.1960   17.4830 N.am   54  LEU54      -0.1965
     37  CA        26.1160  -30.7810   18.1860 C.3    54  LEU54       0.1728
     38  C         26.2160  -31.0880   19.6720 C.2    54  LEU54       0.2616
     39  O         26.8910  -32.0400   20.0680 O.2    54  LEU54      -0.2715
     40  CB        24.8690  -31.4740   17.5910 C.3    54  LEU54       0.0311
     41  CG        24.5040  -31.1530   16.1600 C.3    54  LEU54       0.0022
     42  CD1       23.4910  -32.1010   15.6790 C.3    54  LEU54       0.0001
     43  CD2       23.9900  -29.7340   16.0160 C.3    54  LEU54       0.0001
     44  N         25.5400  -30.2850   20.4920 N.am   55  ARG55      -0.1963
     45  CA        25.5120  -30.4510   21.9530 C.3    55  ARG55       0.1729
     46  C         24.2100  -29.8790   22.5280 C.2    55  ARG55       0.2616
     47  O         23.3870  -29.3720   21.7570 O.2    55  ARG55      -0.2715
     48  CB        26.7550  -29.8110   22.6170 C.3    55  ARG55       0.0348
     49  CG        26.9360  -28.3140   22.3460 C.3    55  ARG55       0.0492
     50  CD        27.8960  -27.6690   23.3280 C.3    55  ARG55       0.2205
     51  NE        29.2420  -28.2150   23.1990 N.pl3  55  ARG55      -0.0865
     52  CZ        30.2480  -27.6020   22.5910 C.cat  55  ARG55       0.5346
     53  NH1       30.0810  -26.3930   22.0710 N.pl3  55  ARG55       0.1354
     54  NH2       31.4360  -28.1850   22.5120 N.pl3  55  ARG55       0.1354
     55  N         24.0300  -29.9560   23.8750 N.am   56  CYS56      -0.1954
     56  CA        22.8680  -29.4550   24.6280 C.3    56  CYS56       0.1843
     57  C         21.5280  -30.0780   24.2050 C.2    56  CYS56       0.2625
     58  O         20.5340  -29.3670   24.0140 O.2    56  CYS56      -0.2714
     59  CB        22.8180  -27.9270   24.6290 C.3    56  CYS56       0.0997
     60  SG        24.2200  -27.1390   25.4610 S.3    56  CYS56      -0.0797
     61  N         21.5180  -31.4190   24.0800 N.am   57  TRP57      -0.1960
     62  CA        20.3560  -32.2180   23.7000 C.3    57  TRP57       0.1771
     63  C         19.2840  -32.1480   24.7770 C.2    57  TRP57       0.2619
     64  O         19.5740  -32.3500   25.9600 O.2    57  TRP57      -0.2715
     65  CB        20.7730  -33.6710   23.4330 C.3    57  TRP57       0.0590
     66  CG        21.7470  -33.8190   22.3030 C.ar   57  TRP57       0.0006
     67  CD1       23.1060  -33.8800   22.3910 C.ar   57  TRP57       0.0946
     68  CD2       21.4300  -33.9200   20.9130 C.ar   57  TRP57       0.0152
     69  NE1       23.6560  -34.0150   21.1390 N.ar   57  TRP57      -0.2442
     70  CE2       22.6500  -34.0440   20.2130 C.ar   57  TRP57       0.0810
     71  CE3       20.2290  -33.8990   20.1850 C.ar   57  TRP57       0.0012
     72  CZ2       22.7050  -34.1200   18.8190 C.ar   57  TRP57       0.0191
     73  CZ3       20.2860  -34.0050   18.8100 C.ar   57  TRP57       0.0001
     74  CH2       21.5120  -34.1190   18.1410 C.ar   57  TRP57       0.0015
     75  N         18.0570  -31.8190   24.3660 N.am   58  GLU58      -0.1977
     76  CA        16.9000  -31.6990   25.2600 C.3    58  GLU58       0.1602
     77  C         15.7940  -32.6730   24.8490 C.2    58  GLU58       0.2287
     78  O         15.8650  -33.2640   23.7710 O.2    58  GLU58      -0.2864
     79  CB        16.3540  -30.2600   25.2410 C.3    58  GLU58       0.0415
     80  CG        17.2880  -29.2150   25.8150 C.3    58  GLU58       0.1163
     81  CD        16.8510  -27.8170   25.4430 C.2    58  GLU58       0.3649
     82  OE1       16.1650  -27.1770   26.2720 O.co2  58  GLU58      -0.2457
     83  OE2       17.1510  -27.3820   24.3060 O.co2  58  GLU58      -0.2457
     84  N         14.1850  -33.4530   21.0770 N.3    61  ASP61      -0.1239
     85  CA        15.1640  -33.1420   20.0200 C.3    61  ASP61       0.1674
     86  C         15.4360  -34.3760   19.1630 C.2    61  ASP61       0.2266
     87  O         15.7730  -35.4220   19.7070 O.2    61  ASP61      -0.2867
     88  CB        16.5010  -32.6150   20.6120 C.3    61  ASP61       0.1410
     89  CG        16.5610  -31.1640   21.0870 C.2    61  ASP61       0.3668
     90  OD1       15.6730  -30.3720   20.7100 O.co2  61  ASP61      -0.2456
     91  OD2       17.5390  -30.8060   21.7830 O.co2  61  ASP61      -0.2456
     92  N         18.1160  -31.9860   13.5760 N.3    66  GLU66      -0.1245
     93  CA        19.1960  -31.0970   14.0240 C.3    66  GLU66       0.1567
     94  C         20.3540  -31.1320   13.0570 C.2    66  GLU66       0.2260
     95  O         20.9320  -30.0840   12.7690 O.2    66  GLU66      -0.2867
     96  CB        19.6520  -31.4200   15.4460 C.3    66  GLU66       0.0388
     97  CG        18.6150  -31.1020   16.5160 C.3    66  GLU66       0.1160
     98  CD        18.1490  -29.6650   16.6620 C.2    66  GLU66       0.3649
     99  OE1       18.9310  -28.7360   16.3520 O.co2  66  GLU66      -0.2457
    100  OE2       17.0180  -29.4700   17.1600 O.co2  66  GLU66      -0.2457
    101  N         19.2070  -29.0510   10.1640 N.3    69  LYS69      -0.1231
    102  CA        19.0420  -27.7050   10.6970 C.3    69  LYS69       0.1693
    103  C         20.3910  -26.9590   10.6730 C.2    69  LYS69       0.2592
    104  O         20.4330  -25.8280   10.1990 O.2    69  LYS69      -0.2718
    105  CB        18.4460  -27.8460   12.1180 C.3    69  LYS69       0.0285
    106  CG        18.2440  -26.6070   12.9880 C.3    69  LYS69       0.0035
    107  CD        17.0840  -26.8740   13.9570 C.3    69  LYS69       0.0206
    108  CE        16.9770  -25.8650   15.0730 C.3    69  LYS69       0.1093
    109  NZ        17.8820  -26.1870   16.2060 N.3    69  LYS69      -0.1314
    110  N         21.5030  -27.6230   11.0840 N.am   70  TRP70      -0.1962
    111  CA        22.8530  -27.0290   11.1850 C.3    70  TRP70       0.1771
    112  C         23.8800  -27.3750   10.1000 C.2    70  TRP70       0.2619
    113  O         24.7030  -26.5270    9.7490 O.2    70  TRP70      -0.2715
    114  CB        23.4410  -27.2960   12.5800 C.3    70  TRP70       0.0590
    115  CG        22.5710  -26.7740   13.6860 C.ar   70  TRP70       0.0006
    116  CD1       21.7100  -27.4970   14.4590 C.ar   70  TRP70       0.0946
    117  CD2       22.3800  -25.3940   14.0550 C.ar   70  TRP70       0.0152
    118  NE1       21.0520  -26.6660   15.3430 N.ar   70  TRP70      -0.2442
    119  CE2       21.4220  -25.3660   15.0940 C.ar   70  TRP70       0.0810
    120  CE3       22.9450  -24.1750   13.6160 C.ar   70  TRP70       0.0012
    121  CZ2       21.0150  -24.1660   15.7100 C.ar   70  TRP70       0.0191
    122  CZ3       22.5440  -22.9880   14.2270 C.ar   70  TRP70       0.0001
    123  CH2       21.5890  -22.9900   15.2590 C.ar   70  TRP70       0.0015
    124  N         23.8580  -28.6180    9.5930 N.am   71  PHE71      -0.1974
    125  CA        24.8110  -29.0710    8.5580 C.3    71  PHE71       0.1639
    126  C         24.0700  -29.5850    7.3040 C.2    71  PHE71       0.2290
    127  O         24.1880  -30.7800    6.9750 O.2    71  PHE71      -0.2864
    128  CB        25.7810  -30.1220    9.1400 C.3    71  PHE71       0.0560
    129  CG        26.2120  -29.8030   10.5480 C.ar   71  PHE71      -0.0200
    130  CD1       27.0800  -28.7470   10.8010 C.ar   71  PHE71      -0.0042
    131  CD2       25.6870  -30.5080   11.6290 C.ar   71  PHE71      -0.0042
    132  CE1       27.4280  -28.4110   12.1060 C.ar   71  PHE71      -0.0003
    133  CE2       26.0330  -30.1690   12.9330 C.ar   71  PHE71      -0.0003
    134  CZ        26.9010  -29.1230   13.1630 C.ar   71  PHE71      -0.0000
    135  N         21.6310  -16.8280   16.1560 N.3   100  LEU100     -0.1245
    136  CA        22.8690  -16.9280   16.9300 C.3   100  LEU100      0.1561
    137  C         23.4150  -15.5830   17.2650 C.2   100  LEU100      0.2260
    138  O         23.8570  -15.3890   18.3960 O.2   100  LEU100     -0.2867
    139  CB        23.9610  -17.6980   16.2010 C.3   100  LEU100      0.0270
    140  CG        23.7110  -19.1400   15.8550 C.3   100  LEU100      0.0019
    141  CD1       24.8550  -19.6500   15.0120 C.3   100  LEU100      0.0001
    142  CD2       23.5430  -20.0100   17.1310 C.3   100  LEU100      0.0001
@<TRIPOS>BOND
     1   127   126    2
     2   126   125    1
     3   125   128    1
     4   125   124    1
     5   128   129    1
     6   124   112   am
     7   113   112    2
     8   112   111    1
     9   101   102    1
    10   104   103    2
    11   129   130   ar
    12   129   131   ar
    13   103   102    1
    14   103   110   am
    15   102   105    1
    16   130   132   ar
    17   110   111    1
    18   111   114    1
    19   131   133   ar
    20   132   134   ar
    21   105   106    1
    22   114   115    1
    23    95    94    2
    24   133   134   ar
    25   106   107    1
    26    94    93    1
    27    92    93    1
    28   120   117   ar
    29   120   122   ar
    30   115   117   ar
    31   115   116   ar
    32   107   108    1
    33    93    96    1
    34   117   119   ar
    35   122   123   ar
    36   116   118   ar
    37    32    33    1
    38    25    26    2
    39    25    24    1
    40   141   140    1
    41   108   109    1
    42   119   118   ar
    43   119   121   ar
    44   123   121   ar
    45    96    97    1
    46    42    41    1
    47   140   139    1
    48   140   142    1
    49    27    24    1
    50    27    28    1
    51    24    23    1
    52    29    28    1
    53    29    30    1
    54    43    41    1
    55    33    34    1
    56   135   136    1
    57    41    40    1
    58   139   136    1
    59    35    34    2
    60    99    98   ar
    61    97    98    1
    62    34    36   am
    63    98   100   ar
    64    30    31    1
    65   136   137    1
    66    23    18   am
    67   137   138    2
    68    36    37    1
    69    40    37    1
    70    19    18    2
    71    18    17    1
    72    74    73   ar
    73    74    72   ar
    74    37    38    1
    75    22    20    1
    76    73    71   ar
    77    72    70   ar
    78    20    17    1
    79    20    21    1
    80    86    87    2
    81    86    85    1
    82    17    16    1
    83     7     5    1
    84    38    39    2
    85    38    44   am
    86    85    88    1
    87    85    84    1
    88    71    68   ar
    89    70    68   ar
    90    70    69   ar
    91    16    10   am
    92    44    45    1
    93    88    89    1
    94    90    89   ar
    95    68    66   ar
    96     5     2    1
    97     5     6    1
    98    89    91   ar
    99    69    67   ar
   100     1     2    1
   101     2     3    1
   102    10    11    2
   103    10     9    1
   104    47    46    2
   105    45    46    1
   106    45    48    1
   107    53    52    1
   108    66    67   ar
   109    66    65    1
   110    49    48    1
   111    49    50    1
   112    54    52    1
   113    46    55   am
   114     9    12    1
   115     9     8    1
   116    52    51    2
   117    12    13    1
   118     3     4    2
   119    51    50    1
   120    15    13   ar
   121    13    14   ar
   122    65    62    1
   123    62    61    1
   124    62    63    1
   125    78    77    2
   126    55    56    1
   127    58    57    2
   128    61    57   am
   129    57    56    1
   130    83    81   ar
   131    75    63   am
   132    75    76    1
   133    56    59    1
   134    59    60    1
   135    63    64    2
   136    77    76    1
   137    79    76    1
   138    79    80    1
   139    81    80    1
   140    81    82   ar
