@<TRIPOS>MOLECULE
tmp/3mv5A01.pdb
 146 136 0 0 0
SMALL
GASTEIGER

@<TRIPOS>ATOM
      1  N         10.9170    6.8260   13.0840 N.3    13  LEU13      -0.1231
      2  CA        10.1420    7.0640   14.3240 C.3    13  LEU13       0.1693
      3  C         10.7290    6.3130   15.5410 C.2    13  LEU13       0.2592
      4  O         10.8410    6.8440   16.6620 O.2    13  LEU13      -0.2718
      5  CB         8.7170    6.6220   14.1340 C.3    13  LEU13       0.0284
      6  CG         7.8220    7.4070   13.1950 C.3    13  LEU13       0.0019
      7  CD1        6.4480    6.7600   13.1820 C.3    13  LEU13       0.0001
      8  CD2        7.7370    8.8750   13.6100 C.3    13  LEU13       0.0001
      9  N         11.1120    5.0690   15.3170 N.am   14  GLY14      -0.1957
     10  CA        11.7720    4.3270   16.3500 C.3    14  GLY14       0.1869
     11  C         12.6800    3.3470   15.6880 C.2    14  GLY14       0.2309
     12  O         12.5160    3.0290   14.4920 O.2    14  GLY14      -0.2863
     13  N         10.6820    1.5470   12.9640 N.3    21  VAL21      -0.1245
     14  CA         9.2950    1.9590   12.6950 C.3    21  VAL21       0.1561
     15  C          9.3710    3.2670   11.9680 C.2    21  VAL21       0.2260
     16  O          9.9850    4.2040   12.5070 O.2    21  VAL21      -0.2867
     17  CB         8.4080    2.2390   13.9420 C.3    21  VAL21       0.0252
     18  CG1        6.9760    2.2770   13.5140 C.3    21  VAL21       0.0019
     19  CG2        8.5720    1.2350   15.0140 C.3    21  VAL21       0.0019
     20  N          2.0110    3.9270   10.3790 N.3    34  ALA34      -0.1245
     21  CA         3.3040    3.6100   10.9840 C.3    34  ALA34       0.1562
     22  C          3.6860    2.2030   10.5210 C.2    34  ALA34       0.2260
     23  O          2.9230    1.2830   10.6930 O.2    34  ALA34      -0.2867
     24  CB         3.1960    3.6810   12.4680 C.3    34  ALA34       0.0290
     25  N          6.2190   -0.9290   10.8830 N.3    36  LYS36      -0.1245
     26  CA         7.2570   -1.6720   11.5860 C.3    36  LYS36       0.1561
     27  C          7.8470   -2.6420   10.5860 C.2    36  LYS36       0.2260
     28  O          7.1050   -3.4530   10.0200 O.2    36  LYS36      -0.2867
     29  CB         6.6590   -2.4530   12.7510 C.3    36  LYS36       0.0271
     30  CG         7.6420   -3.1060   13.7440 C.3    36  LYS36       0.0035
     31  CD         6.9120   -3.4540   15.0210 C.3    36  LYS36       0.0206
     32  CE         7.5210   -4.6580   15.7330 C.3    36  LYS36       0.1093
     33  NZ         6.8330   -5.0000   17.0400 N.3    36  LYS36      -0.1314
     34  N          2.5490  -11.1280   17.8960 N.3    55  GLU55      -0.1245
     35  CA         2.1550   -9.8020   17.5180 C.3    55  GLU55       0.1567
     36  C          1.1580   -9.7460   16.3520 C.2    55  GLU55       0.2260
     37  O          0.1710   -8.9960   16.3770 O.2    55  GLU55      -0.2867
     38  CB         3.3820   -9.0660   17.1120 C.3    55  GLU55       0.0388
     39  CG         3.0500   -7.6960   16.6950 C.3    55  GLU55       0.1160
     40  CD         4.0670   -6.7350   17.1980 C.2    55  GLU55       0.3649
     41  OE1        5.2650   -7.1300   17.0790 O.co2  55  GLU55      -0.2457
     42  OE2        3.6600   -5.6330   17.7130 O.co2  55  GLU55      -0.2457
     43  N         -3.8080   -0.0420   18.9940 N.3    68  THR68      -0.1218
     44  CA        -3.2730    0.1000   17.6630 C.3    68  THR68       0.1862
     45  C         -3.9680   -0.8890   16.6790 C.2    68  THR68       0.2287
     46  O         -3.7860   -2.1270   16.7640 O.2    68  THR68      -0.2866
     47  CB        -1.7410   -0.2130   17.7060 C.3    68  THR68       0.1770
     48  OG1       -1.1310    0.7360   18.5500 O.3    68  THR68      -0.2211
     49  CG2       -1.1110   -0.0240   16.3600 C.3    68  THR68       0.0375
     50  N          0.3460   -0.1520   10.4570 N.3    84  MET84      -0.1230
     51  CA        -0.5790    0.0550   11.5710 C.3    84  MET84       0.1702
     52  C         -0.9680    1.5100   11.6630 C.2    84  MET84       0.2592
     53  O         -0.3520    2.3170   10.9310 O.2    84  MET84      -0.2718
     54  CB         0.1140   -0.2900   12.8600 C.3    84  MET84       0.0401
     55  CG         0.6950   -1.6220   12.8410 C.3    84  MET84       0.0596
     56  SD         1.8200   -1.9380   14.1590 S.3    84  MET84      -0.1393
     57  CE         3.2710   -1.0270   13.6460 C.3    84  MET84       0.0692
     58  N         -1.9420    1.8440   12.5450 N.am   85  GLU85      -0.1966
     59  CA        -2.4050    3.2170   12.7480 C.3    85  GLU85       0.1733
     60  C         -1.2490    4.0660   13.2090 C.2    85  GLU85       0.2616
     61  O         -0.4400    3.6280   13.9900 O.2    85  GLU85      -0.2715
     62  CB        -3.4210    3.3050   13.8880 C.3    85  GLU85       0.0429
     63  CG        -4.9250    3.3710   13.5460 C.3    85  GLU85       0.1163
     64  CD        -5.7690    3.4320   14.8260 C.2    85  GLU85       0.3649
     65  OE1       -5.2340    2.9770   15.8920 O.co2  85  GLU85      -0.2457
     66  OE2       -6.9470    3.9280   14.7630 O.co2  85  GLU85      -0.2457
     67  N         -1.1740    5.3030   12.7740 N.am   86  TYR86      -0.1960
     68  CA        -0.0540    6.1060   13.1680 C.3    86  TYR86       0.1771
     69  C         -0.5390    6.8890   14.4150 C.2    86  TYR86       0.2619
     70  O         -1.6270    7.5300   14.3770 O.2    86  TYR86      -0.2715
     71  CB         0.4740    6.9550   11.9760 C.3    86  TYR86       0.0574
     72  CG         1.3570    8.1540   12.3310 C.ar   86  TYR86      -0.0198
     73  CD1        2.5450    7.9820   13.0490 C.ar   86  TYR86      -0.0009
     74  CD2        1.0130    9.4820   11.9130 C.ar   86  TYR86      -0.0009
     75  CE1        3.3710    9.1210   13.4060 C.ar   86  TYR86       0.0417
     76  CE2        1.8430   10.6450   12.2690 C.ar   86  TYR86       0.0417
     77  CZ         3.0060   10.4370   13.0340 C.ar   86  TYR86       0.1957
     78  OH         3.8410   11.4650   13.4120 O.3    86  TYR86      -0.2866
     79  N          0.2350    6.7630   15.5240 N.am   87  ALA87      -0.1977
     80  CA        -0.0360    7.4620   16.7830 C.3    87  ALA87       0.1597
     81  C          0.8170    8.7160   16.7630 C.2    87  ALA87       0.2287
     82  O          2.0090    8.6650   17.0690 O.2    87  ALA87      -0.2864
     83  CB         0.3000    6.5810   18.0140 C.3    87  ALA87       0.0319
     84  N          5.2380    8.7370   22.2110 N.3    91  GLU91      -0.1245
     85  CA         5.2240    7.9300   23.4190 C.3    91  GLU91       0.1567
     86  C          4.8390    8.7400   24.6250 C.2    91  GLU91       0.2260
     87  O          5.1180    9.9530   24.6350 O.2    91  GLU91      -0.2867
     88  CB         6.5830    7.3070   23.6310 C.3    91  GLU91       0.0388
     89  CG         6.8050    6.1410   22.7330 C.3    91  GLU91       0.1160
     90  CD         8.2380    5.7420   22.6990 C.2    91  GLU91       0.3649
     91  OE1        8.5900    4.8400   21.8800 O.co2  91  GLU91      -0.2457
     92  OE2        9.0170    6.3340   23.4970 O.co2  91  GLU91      -0.2457
     93  N          7.0720    3.3730   27.2110 N.3   135  GLU135     -0.1245
     94  CA         7.4930    3.2850   25.8100 C.3   135  GLU135      0.1567
     95  C          6.4370    2.6440   24.9070 C.2   135  GLU135      0.2260
     96  O          6.4200    2.8780   23.6470 O.2   135  GLU135     -0.2867
     97  CB         8.7880    2.4100   25.7110 C.3   135  GLU135      0.0388
     98  CG        10.0380    3.0430   26.3250 C.3   135  GLU135      0.1160
     99  CD        10.1890    2.9060   27.8680 C.2   135  GLU135      0.3649
    100  OE1        9.1900    2.9610   28.6760 O.co2 135  GLU135     -0.2457
    101  OE2       11.3560    2.7190   28.2760 O.co2 135  GLU135     -0.2457
    102  N          1.3520    5.1910   23.7160 N.3   138  MET138     -0.1245
    103  CA         1.3640    6.3720   22.8620 C.3   138  MET138      0.1570
    104  C          0.0370    7.0160   22.8800 C.2   138  MET138      0.2261
    105  O         -0.9240    6.4400   23.3640 O.2   138  MET138     -0.2867
    106  CB         1.6520    5.9600   21.4430 C.3   138  MET138      0.0387
    107  CG         2.7920    4.9280   21.3770 C.3   138  MET138      0.0595
    108  SD         3.5730    4.9130   19.8030 S.3   138  MET138     -0.1393
    109  CE         4.2530    6.5680   19.6820 C.3   138  MET138      0.0692
    110  N          0.9740    0.1770   21.7760 N.3   148  THR148     -0.1203
    111  CA         1.7470   -0.4250   20.6800 C.3   148  THR148      0.1994
    112  C          2.6660   -1.6030   21.1810 C.2   148  THR148      0.2617
    113  O          2.8100   -1.8270   22.3770 O.2   148  THR148     -0.2717
    114  CB         2.6610    0.6180   20.0230 C.3   148  THR148      0.1784
    115  OG1        3.7580    0.8610   20.9170 O.3   148  THR148     -0.2211
    116  CG2        1.9490    1.9460   19.7320 C.3   148  THR148      0.0376
    117  N          3.3160   -2.3010   20.2390 N.am  149  ASP149     -0.1973
    118  CA         4.2070   -3.4540   20.4590 C.3   149  ASP149      0.1709
    119  C          3.5820   -4.6030   21.2300 C.2   149  ASP149      0.2293
    120  O          3.4130   -4.4920   22.4680 O.2   149  ASP149     -0.2864
    121  CB         5.5570   -3.0220   21.0290 C.3   149  ASP149      0.1436
    122  CG         6.2870   -2.0500   20.0810 C.2   149  ASP149      0.3671
    123  OD1        6.4370   -2.3930   18.8690 O.co2 149  ASP149     -0.2456
    124  OD2        6.6260   -0.9140   20.5230 O.co2 149  ASP149     -0.2456
    125  N          8.2600   13.0230   18.6400 N.3   294  PHE294     -0.1241
    126  CA         9.1750   11.8980   18.4950 C.3   294  PHE294      0.1605
    127  C         10.5780   12.4310   18.7020 C.2   294  PHE294      0.2264
    128  O         10.8350   13.5820   18.4260 O.2   294  PHE294     -0.2867
    129  CB         8.9970   11.2130   17.1320 C.3   294  PHE294      0.0534
    130  CG         7.6620   10.5010   16.9660 C.ar  294  PHE294     -0.0203
    131  CD1        7.5550    9.1190   17.1890 C.ar  294  PHE294     -0.0042
    132  CD2        6.5040   11.2050   16.5740 C.ar  294  PHE294     -0.0042
    133  CE1        6.2980    8.4570   17.0560 C.ar  294  PHE294     -0.0003
    134  CE2        5.2420   10.5570   16.4040 C.ar  294  PHE294     -0.0003
    135  CZ         5.1480    9.1930   16.6340 C.ar  294  PHE294     -0.0000
    136  N         15.9620    9.9700   16.1990 N.3   298  PHE298     -0.1241
    137  CA        15.4120    9.1370   15.1170 C.3   298  PHE298      0.1605
    138  C         14.8590    9.8830   13.8960 C.2   298  PHE298      0.2264
    139  O         15.1030    9.4620   12.7810 O.2   298  PHE298     -0.2867
    140  CB        14.2860    8.1970   15.6060 C.3   298  PHE298      0.0534
    141  CG        14.6050    7.3950   16.8370 C.ar  298  PHE298     -0.0203
    142  CD1       15.6570    6.4870   16.8480 C.ar  298  PHE298     -0.0042
    143  CD2       13.7900    7.5140   17.9710 C.ar  298  PHE298     -0.0042
    144  CE1       15.9610    5.7370   17.9920 C.ar  298  PHE298     -0.0003
    145  CE2       14.0480    6.7710   19.1310 C.ar  298  PHE298     -0.0003
    146  CZ        15.1580    5.8770   19.1540 C.ar  298  PHE298     -0.0000
@<TRIPOS>BOND
     1    28    27    2
     2    20    21    1
     3    50    51    1
     4    22    23    2
     5    22    21    1
     6    27    26    1
     7    25    26    1
     8    53    52    2
     9    21    24    1
    10    51    52    1
    11    51    54    1
    12    26    29    1
    13    52    58   am
    14    74    76   ar
    15    74    72   ar
    16    15    16    2
    17    15    14    1
    18    71    72    1
    19    71    68    1
    20    76    77   ar
    21    72    73   ar
    22    58    59    1
    23    14    13    1
    24    14    17    1
    25    59    60    1
    26    59    62    1
    27    29    30    1
    28    67    68    1
    29    67    60   am
    30   139   138    2
    31    55    54    1
    32    55    56    1
    33    77    75   ar
    34    77    78    1
    35    73    75   ar
    36     1     2    1
    37    68    69    1
    38     7     6    1
    39     6     8    1
    40     6     5    1
    41    60    61    2
    42    18    17    1
    43    63    62    1
    44    63    64    1
    45    57    56    1
    46    30    31    1
    47   138   137    1
    48    17    19    1
    49     5     2    1
    50     2     3    1
    51    70    69    2
    52    69    79   am
    53    12    11    2
    54    66    64   ar
    55    64    65   ar
    56    31    32    1
    57   137   140    1
    58   137   136    1
    59     9     3   am
    60     9    10    1
    61    79    80    1
    62     3     4    2
    63   140   141    1
    64    11    10    1
    65    32    33    1
    66    36    37    2
    67    36    35    1
    68    49    47    1
    69   134   132   ar
    70   134   135   ar
    71   132   130   ar
    72   135   133   ar
    73    45    46    2
    74    45    44    1
    75    39    38    1
    76    39    40    1
    77    81    80    1
    78    81    82    2
    79    80    83    1
    80   141   142   ar
    81   141   143   ar
    82   142   144   ar
    83   130   129    1
    84   130   131   ar
    85   133   131   ar
    86    41    40   ar
    87    38    35    1
    88   129   126    1
    89    40    42   ar
    90    35    34    1
    91    44    47    1
    92    44    43    1
    93    47    48    1
    94   143   145   ar
    95   144   146   ar
    96   128   127    2
    97   126   125    1
    98   126   127    1
    99   123   122   ar
   100   145   146   ar
   101   109   108    1
   102   116   114    1
   103   108   107    1
   104   114   111    1
   105   114   115    1
   106   122   124   ar
   107   122   121    1
   108   117   118    1
   109   117   112   am
   110   118   121    1
   111   118   119    1
   112   111   112    1
   113   111   110    1
   114   112   113    2
   115   119   120    2
   116   107   106    1
   117   106   103    1
   118    91    90   ar
   119    84    85    1
   120    90    89    1
   121    90    92   ar
   122    89    88    1
   123   103   104    1
   124   103   102    1
   125   104   105    2
   126    85    88    1
   127    85    86    1
   128    96    95    2
   129    86    87    2
   130    95    94    1
   131    97    94    1
   132    97    98    1
   133    94    93    1
   134    98    99    1
   135    99   101   ar
   136    99   100   ar
