@<TRIPOS>MOLECULE
tmp/3mvcA00.pdb
 188 182 0 0 0
SMALL
GASTEIGER

@<TRIPOS>ATOM
      1  N         33.2560    1.5140   54.4320 N.3    31  PHE31      -0.1241
      2  CA        31.8970    1.0220   54.2110 C.3    31  PHE31       0.1605
      3  C         31.1240    0.9150   55.5200 C.2    31  PHE31       0.2264
      4  O         29.9570    1.2830   55.5900 O.2    31  PHE31      -0.2867
      5  CB        31.8850   -0.3120   53.4540 C.3    31  PHE31       0.0534
      6  CG        32.0260   -0.1600   51.9670 C.ar   31  PHE31      -0.0203
      7  CD1       30.9120    0.0910   51.1780 C.ar   31  PHE31      -0.0042
      8  CD2       33.2740   -0.2390   51.3550 C.ar   31  PHE31      -0.0042
      9  CE1       31.0350    0.2420   49.8030 C.ar   31  PHE31      -0.0003
     10  CE2       33.3990   -0.0850   49.9850 C.ar   31  PHE31      -0.0003
     11  CZ        32.2820    0.1580   49.2070 C.ar   31  PHE31      -0.0000
     12  N         22.2350    1.7120   53.5690 N.3    41  ILE41      -0.1245
     13  CA        23.3860    1.2620   52.8000 C.3    41  ILE41       0.1561
     14  C         23.7530   -0.1650   53.1990 C.2    41  ILE41       0.2260
     15  O         24.0550   -1.0010   52.3420 O.2    41  ILE41      -0.2867
     16  CB        24.5900    2.2090   52.9650 C.3    41  ILE41       0.0252
     17  CG1       24.2790    3.5610   52.3180 C.3    41  ILE41       0.0019
     18  CG2       25.8470    1.5990   52.3390 C.3    41  ILE41       0.0019
     19  CD1       25.3250    4.6370   52.5680 C.3    41  ILE41       0.0001
     20  N         21.2170   -2.7290   51.9190 N.3    44  MET44      -0.1230
     21  CA        21.4430   -2.9900   50.4990 C.3    44  MET44       0.1702
     22  C         22.6550   -3.8790   50.2500 C.2    44  MET44       0.2592
     23  O         22.5700   -4.8800   49.5450 O.2    44  MET44      -0.2718
     24  CB        21.6040   -1.6750   49.7370 C.3    44  MET44       0.0401
     25  CG        20.3630   -0.8110   49.7600 C.3    44  MET44       0.0596
     26  SD        20.6750    0.8860   49.2610 S.3    44  MET44      -0.1393
     27  CE        20.9120    0.6780   47.5000 C.3    44  MET44       0.0692
     28  N         23.7910   -3.5070   50.8220 N.am   45  ILE45      -0.1980
     29  CA        25.0130   -4.2710   50.6030 C.3    45  ILE45       0.1595
     30  C         24.9130   -5.6620   51.2380 C.2    45  ILE45       0.2287
     31  O         25.4590   -6.6300   50.7170 O.2    45  ILE45      -0.2864
     32  CB        26.2570   -3.4950   51.0820 C.3    45  ILE45       0.0276
     33  CG1       26.5520   -2.3500   50.1030 C.3    45  ILE45       0.0022
     34  CG2       27.4660   -4.4210   51.2010 C.3    45  ILE45       0.0022
     35  CD1       27.6950   -1.4400   50.5130 C.3    45  ILE45       0.0001
     36  N         29.3480   -9.8250   49.4550 N.3    56  ARG56      -0.1245
     37  CA        29.1600   -8.5820   48.7090 C.3    56  ARG56       0.1563
     38  C         29.9680   -7.4460   49.3330 C.2    56  ARG56       0.2260
     39  O         30.5780   -6.6430   48.6280 O.2    56  ARG56      -0.2867
     40  CB        27.6800   -8.2010   48.6210 C.3    56  ARG56       0.0307
     41  CG        27.4260   -6.9810   47.7390 C.3    56  ARG56       0.0489
     42  CD        25.9470   -6.6440   47.6100 C.3    56  ARG56       0.2205
     43  NE        25.1830   -7.7110   46.9700 N.pl3  56  ARG56      -0.0865
     44  CZ        24.3400   -8.5160   47.6080 C.cat  56  ARG56       0.5346
     45  NH1       24.1440   -8.3820   48.9120 N.pl3  56  ARG56       0.1354
     46  NH2       23.6880   -9.4550   46.9360 N.pl3  56  ARG56       0.1354
     47  N         33.6370   -8.1480   48.4340 N.3    59  LYS59      -0.1231
     48  CA        33.9090   -7.7770   47.0490 C.3    59  LYS59       0.1693
     49  C         33.9430   -6.2570   46.8750 C.2    59  LYS59       0.2592
     50  O         34.7880   -5.7270   46.1550 O.2    59  LYS59      -0.2718
     51  CB        32.8890   -8.4200   46.1040 C.3    59  LYS59       0.0285
     52  CG        33.1200   -9.9040   45.8750 C.3    59  LYS59       0.0035
     53  CD        34.3950  -10.1250   45.0750 C.3    59  LYS59       0.0206
     54  CE        34.8750  -11.5660   45.1580 C.3    59  LYS59       0.1093
     55  NZ        35.4150  -11.9010   46.5070 N.3    59  LYS59      -0.1314
     56  N         33.0300   -5.5580   47.5440 N.am   60  HIS60      -0.1976
     57  CA        33.0460   -4.0950   47.5430 C.3    60  HIS60       0.1656
     58  C         34.3580   -3.5370   48.0680 C.2    60  HIS60       0.2291
     59  O         34.9430   -2.6350   47.4660 O.2    60  HIS60      -0.2864
     60  CB        31.8760   -3.5300   48.3490 C.3    60  HIS60       0.0771
     61  CG        30.6730   -3.2470   47.5090 C.ar   60  HIS60       0.0820
     62  ND1       29.8610   -4.2430   47.0130 N.ar   60  HIS60      -0.2267
     63  CD2       30.1770   -2.0830   47.0310 C.ar   60  HIS60       0.1154
     64  CE1       28.9070   -3.7030   46.2770 C.ar   60  HIS60       0.1986
     65  NE2       29.0760   -2.3930   46.2730 N.ar   60  HIS60      -0.2212
     66  N         37.3170   -4.2600   45.5420 N.3    63  LEU63      -0.1231
     67  CA        37.3690   -3.3820   44.3790 C.3    63  LEU63       0.1693
     68  C         37.7050   -1.9470   44.7650 C.2    63  LEU63       0.2592
     69  O         38.4780   -1.2780   44.0800 O.2    63  LEU63      -0.2718
     70  CB        36.0700   -3.4120   43.5750 C.3    63  LEU63       0.0284
     71  CG        36.1540   -2.4770   42.3620 C.3    63  LEU63       0.0019
     72  CD1       37.3180   -2.8540   41.4460 C.3    63  LEU63       0.0001
     73  CD2       34.8460   -2.4220   41.5870 C.3    63  LEU63       0.0001
     74  N         37.1170   -1.4640   45.8510 N.am   64  PHE64      -0.1976
     75  CA        37.3950   -0.1030   46.2780 C.3    64  PHE64       0.1639
     76  C         38.8710    0.0490   46.6640 C.2    64  PHE64       0.2290
     77  O         39.4830    1.0870   46.4170 O.2    64  PHE64      -0.2864
     78  CB        36.4660    0.3220   47.4240 C.3    64  PHE64       0.0560
     79  CG        36.4720    1.8010   47.6870 C.ar   64  PHE64      -0.0200
     80  CD1       36.0460    2.6930   46.7110 C.ar   64  PHE64      -0.0042
     81  CD2       36.9000    2.3020   48.9050 C.ar   64  PHE64      -0.0042
     82  CE1       36.0430    4.0600   46.9490 C.ar   64  PHE64      -0.0003
     83  CE2       36.8920    3.6630   49.1540 C.ar   64  PHE64      -0.0003
     84  CZ        36.4720    4.5480   48.1690 C.ar   64  PHE64      -0.0000
     85  N         40.7720    0.4220   43.3760 N.3    67  LEU67      -0.1245
     86  CA        40.5480    1.7400   42.7830 C.3    67  LEU67       0.1561
     87  C         41.2840    2.8320   43.5460 C.2    67  LEU67       0.2260
     88  O         41.9230    3.6920   42.9440 O.2    67  LEU67      -0.2867
     89  CB        39.0520    2.0610   42.6980 C.3    67  LEU67       0.0270
     90  CG        38.2780    1.1870   41.7080 C.3    67  LEU67       0.0019
     91  CD1       36.7790    1.3960   41.8440 C.3    67  LEU67       0.0001
     92  CD2       38.7330    1.4590   40.2720 C.3    67  LEU67       0.0001
     93  N         32.1280    1.7290   38.0600 N.3    88  ALA88      -0.1245
     94  CA        31.6170    1.2310   39.3300 C.3    88  ALA88       0.1562
     95  C         30.2600    1.8800   39.6300 C.2    88  ALA88       0.2260
     96  O         29.3240    1.2130   40.0690 O.2    88  ALA88      -0.2867
     97  CB        32.6110    1.5040   40.4500 C.3    88  ALA88       0.0290
     98  N         27.3120    0.4310   37.7890 N.3    91  LYS91      -0.1231
     99  CA        26.8520   -0.8770   38.2640 C.3    91  LYS91       0.1693
    100  C         25.6600   -0.8050   39.2240 C.2    91  LYS91       0.2592
    101  O         25.1070   -1.8450   39.6050 O.2    91  LYS91      -0.2718
    102  CB        27.9940   -1.6330   38.9550 C.3    91  LYS91       0.0285
    103  CG        29.1470   -2.0580   38.0500 C.3    91  LYS91       0.0035
    104  CD        28.6800   -3.0010   36.9590 C.3    91  LYS91       0.0206
    105  CE        29.8370   -3.8250   36.4100 C.3    91  LYS91       0.1093
    106  NZ        30.9700   -2.9770   35.9490 N.3    91  LYS91      -0.1314
    107  N         25.2650    0.4040   39.6230 N.am   92  HIS92      -0.1976
    108  CA        24.1720    0.5740   40.5870 C.3    92  HIS92       0.1656
    109  C         22.8220    0.9230   39.9740 C.2    92  HIS92       0.2291
    110  O         21.8950    1.3320   40.6740 O.2    92  HIS92      -0.2864
    111  CB        24.5790    1.5710   41.6660 C.3    92  HIS92       0.0771
    112  CG        25.7900    1.1240   42.4130 C.ar   92  HIS92       0.0820
    113  ND1       27.0720    1.3460   41.9560 N.ar   92  HIS92      -0.2267
    114  CD2       25.9110    0.3770   43.5340 C.ar   92  HIS92       0.1154
    115  CE1       27.9340    0.7860   42.7880 C.ar   92  HIS92       0.1986
    116  NE2       27.2530    0.1880   43.7500 N.ar   92  HIS92      -0.2212
    117  N         19.6480   -0.6440   38.3410 N.3    94  TRP94      -0.1241
    118  CA        18.9250   -1.9090   38.3040 C.3    94  TRP94       0.1605
    119  C         17.5230   -1.6620   37.7720 C.2    94  TRP94       0.2264
    120  O         16.8390   -0.7480   38.2330 O.2    94  TRP94      -0.2867
    121  CB        18.8620   -2.5210   39.7100 C.3    94  TRP94       0.0550
    122  CG        20.1870   -2.4940   40.4110 C.ar   94  TRP94       0.0003
    123  CD1       21.3680   -3.0160   39.9570 C.ar   94  TRP94       0.0946
    124  CD2       20.4730   -1.9140   41.6920 C.ar   94  TRP94       0.0152
    125  NE1       22.3660   -2.7920   40.8730 N.ar   94  TRP94      -0.2442
    126  CE2       21.8450   -2.1170   41.9460 C.ar   94  TRP94       0.0810
    127  CE3       19.7040   -1.2350   42.6420 C.ar   94  TRP94       0.0012
    128  CZ2       22.4650   -1.6660   43.1120 C.ar   94  TRP94       0.0191
    129  CZ3       20.3220   -0.7940   43.8030 C.ar   94  TRP94       0.0001
    130  CH2       21.6880   -1.0140   44.0260 C.ar   94  TRP94       0.0015
    131  N         17.2370   -4.5590   45.6720 N.3   100  TYR100     -0.1241
    132  CA        17.9810   -4.8920   46.8820 C.3   100  TYR100      0.1605
    133  C         17.4080   -4.1980   48.1200 C.2   100  TYR100      0.2264
    134  O         18.1400   -3.8260   49.0410 O.2   100  TYR100     -0.2867
    135  CB        19.4730   -4.5830   46.6900 C.3   100  TYR100      0.0534
    136  CG        20.0610   -5.3110   45.4950 C.ar  100  TYR100     -0.0201
    137  CD1       20.5080   -6.6240   45.6070 C.ar  100  TYR100     -0.0009
    138  CD2       20.1390   -4.6990   44.2470 C.ar  100  TYR100     -0.0009
    139  CE1       21.0220   -7.3010   44.5140 C.ar  100  TYR100      0.0417
    140  CE2       20.6590   -5.3690   43.1500 C.ar  100  TYR100      0.0417
    141  CZ        21.0990   -6.6690   43.2900 C.ar  100  TYR100      0.1957
    142  OH        21.6140   -7.3460   42.2060 O.3   100  TYR100     -0.2866
    143  N         18.8630    2.7630   44.9380 N.3   104  PHE104     -0.1241
    144  CA        20.0840    3.5520   44.9140 C.3   104  PHE104      0.1605
    145  C         19.7860    4.9610   44.4070 C.2   104  PHE104      0.2264
    146  O         19.0730    5.1310   43.4200 O.2   104  PHE104     -0.2867
    147  CB        21.1220    2.8880   44.0110 C.3   104  PHE104      0.0534
    148  CG        22.5160    3.3980   44.2280 C.ar  104  PHE104     -0.0203
    149  CD1       23.3830    2.7260   45.0730 C.ar  104  PHE104     -0.0042
    150  CD2       22.9560    4.5540   43.6000 C.ar  104  PHE104     -0.0042
    151  CE1       24.6720    3.1900   45.2760 C.ar  104  PHE104     -0.0003
    152  CE2       24.2480    5.0250   43.8040 C.ar  104  PHE104     -0.0003
    153  CZ        25.0980    4.3420   44.6440 C.ar  104  PHE104     -0.0000
    154  N         23.2250    8.6440   48.4640 N.3   108  LEU108     -0.1231
    155  CA        23.9470    7.6060   49.1970 C.3   108  LEU108      0.1693
    156  C         25.4570    7.8110   49.0980 C.2   108  LEU108      0.2591
    157  O         26.1930    7.5270   50.0450 O.2   108  LEU108     -0.2718
    158  CB        23.5790    6.2100   48.6870 C.3   108  LEU108      0.0284
    159  CG        22.1200    5.7770   48.8310 C.3   108  LEU108      0.0019
    160  CD1       21.9540    4.3570   48.2960 C.3   108  LEU108      0.0001
    161  CD2       21.6770    5.8740   50.2840 C.3   108  LEU108      0.0001
    162  N         25.9090    8.2900   47.9400 N.am  109  LEU109     -0.1980
    163  CA        27.3420    8.5080   47.7050 C.3   109  LEU109      0.1596
    164  C         27.8640    9.7360   48.4420 C.2   109  LEU109      0.2287
    165  O         29.0430    9.8000   48.7910 O.2   109  LEU109     -0.2864
    166  CB        27.6310    8.5910   46.2040 C.3   109  LEU109      0.0297
    167  CG        27.5110    7.2460   45.4830 C.3   109  LEU109      0.0022
    168  CD1       27.4230    7.4100   43.9670 C.3   109  LEU109      0.0001
    169  CD2       28.6570    6.3150   45.8610 C.3   109  LEU109      0.0001
    170  N         28.3660    8.3300   51.8070 N.3   112  PHE112     -0.1241
    171  CA        29.6170    7.5840   51.7010 C.3   112  PHE112      0.1605
    172  C         30.8160    8.5380   51.7980 C.2   112  PHE112      0.2264
    173  O         31.8060    8.2350   52.4710 O.2   112  PHE112     -0.2867
    174  CB        29.6520    6.8020   50.3870 C.3   112  PHE112      0.0534
    175  CG        30.8270    5.8720   50.2540 C.ar  112  PHE112     -0.0203
    176  CD1       30.7730    4.5890   50.7760 C.ar  112  PHE112     -0.0042
    177  CD2       31.9810    6.2730   49.5890 C.ar  112  PHE112     -0.0042
    178  CE1       31.8610    3.7270   50.6550 C.ar  112  PHE112     -0.0003
    179  CE2       33.0640    5.4100   49.4560 C.ar  112  PHE112     -0.0003
    180  CZ        33.0010    4.1390   49.9900 C.ar  112  PHE112     -0.0000
    181  N         31.9250    8.4780   40.8490 N.3   144  LEU144     -0.1245
    182  CA        30.9120    7.4520   41.0950 C.3   144  LEU144      0.1561
    183  C         29.5020    7.9630   40.7940 C.2   144  LEU144      0.2260
    184  O         28.7130    7.2750   40.1490 O.2   144  LEU144     -0.2867
    185  CB        30.9970    6.9380   42.5370 C.3   144  LEU144      0.0270
    186  CG        32.2340    6.1030   42.8970 C.3   144  LEU144      0.0019
    187  CD1       32.4860    6.1120   44.4070 C.3   144  LEU144      0.0001
    188  CD2       32.0730    4.6880   42.3720 C.3   144  LEU144      0.0001
@<TRIPOS>BOND
     1   106   105    1
     2   105   104    1
     3   104   103    1
     4   119   120    2
     5   119   118    1
     6    98    99    1
     7   103   102    1
     8    93    94    1
     9    99   102    1
    10    99   100    1
    11   118   117    1
    12   118   121    1
    13   100   101    2
    14   100   107   am
    15    94    95    1
    16    94    97    1
    17   107   108    1
    18    95    96    2
    19   121   122    1
    20   123   122   ar
    21   123   125   ar
    22   109   108    1
    23   109   110    2
    24   184   183    2
    25    92    90    1
    26   122   124   ar
    27   108   111    1
    28   183   182    1
    29   181   182    1
    30   125   126   ar
    31   182   185    1
    32    72    71    1
    33    73    71    1
    34   111   112    1
    35   124   126   ar
    36   124   127   ar
    37    90    91    1
    38    90    89    1
    39   126   128   ar
    40   113   112   ar
    41   113   115   ar
    42   142   141    1
    43    71    70    1
    44   188   186    1
    45   112   114   ar
    46   185   186    1
    47   127   129   ar
    48    89    86    1
    49    86    85    1
    50    86    87    1
    51   115   116   ar
    52   186   187    1
    53    88    87    2
    54   128   130   ar
    55   140   141   ar
    56   140   138   ar
    57   141   139   ar
    58   146   145    2
    59   114   116   ar
    60    70    67    1
    61   150   152   ar
    62   150   148   ar
    63   129   130   ar
    64   152   153   ar
    65   168   167    1
    66   147   148    1
    67   147   144    1
    68    69    68    2
    69   148   149   ar
    70   138   136   ar
    71    67    68    1
    72    67    66    1
    73   145   144    1
    74   139   137   ar
    75   153   151   ar
    76    68    74   am
    77   144   143    1
    78   149   151   ar
    79    53    54    1
    80    53    52    1
    81    54    55    1
    82   167   169    1
    83   167   166    1
    84   136   137   ar
    85   136   135    1
    86   131   132    1
    87    74    75    1
    88    52    51    1
    89    51    48    1
    90    50    49    2
    91   166   163    1
    92    65    64   ar
    93    65    63   ar
    94    64    62   ar
    95    75    76    1
    96    75    78    1
    97    77    76    2
    98   135   132    1
    99    80    82   ar
   100    80    79   ar
   101    49    48    1
   102    49    56   am
   103   132   133    1
   104    46    44    1
   105    82    84   ar
   106    43    44    2
   107    43    42    1
   108    62    61   ar
   109    63    61   ar
   110    48    47    1
   111    78    79    1
   112    59    58    2
   113    27    26    1
   114    61    60    1
   115    57    56    1
   116    57    58    1
   117    57    60    1
   118    44    45    1
   119    42    41    1
   120    79    81   ar
   121   163   162    1
   122   163   164    1
   123    41    40    1
   124   162   156   am
   125   133   134    2
   126    84    83   ar
   127   160   159    1
   128   164   165    2
   129   154   155    1
   130    40    37    1
   131    39    38    2
   132   158   159    1
   133   158   155    1
   134    37    38    1
   135    37    36    1
   136   159   161    1
   137    81    83   ar
   138   156   155    1
   139   156   157    2
   140    11     9   ar
   141    11    10   ar
   142    26    25    1
   143   179   177   ar
   144   179   180   ar
   145    23    22    2
   146   177   175   ar
   147    24    25    1
   148    24    21    1
   149     9     7   ar
   150    10     8   ar
   151   180   178   ar
   152    33    35    1
   153    33    32    1
   154    22    21    1
   155    22    28   am
   156   175   174    1
   157   175   176   ar
   158   174   171    1
   159    21    20    1
   160    29    28    1
   161    29    32    1
   162    29    30    1
   163   178   176   ar
   164    31    30    2
   165    32    34    1
   166     7     6   ar
   167     8     6   ar
   168   171   172    1
   169   171   170    1
   170   172   173    2
   171     6     5    1
   172    17    19    1
   173    17    16    1
   174    18    16    1
   175    15    14    2
   176    13    16    1
   177    13    14    1
   178    13    12    1
   179     5     2    1
   180     2     1    1
   181     2     3    1
   182     3     4    2
