@<TRIPOS>MOLECULE
tmp/3mvhA01.pdb
 188 178 0 0 0
SMALL
GASTEIGER

@<TRIPOS>ATOM
      1  N         21.9020   -7.5980   32.4370 N.3    12  LEU12      -0.1231
      2  CA        21.3180   -7.8750   31.1030 C.3    12  LEU12       0.1693
      3  C         21.9830   -7.1280   29.9510 C.2    12  LEU12       0.2593
      4  O         21.8840   -7.5200   28.7840 O.2    12  LEU12      -0.2718
      5  CB        19.8190   -7.5750   31.0760 C.3    12  LEU12       0.0284
      6  CG        18.9350   -8.1800   32.1540 C.3    12  LEU12       0.0019
      7  CD1       17.4770   -7.7120   31.9630 C.3    12  LEU12       0.0001
      8  CD2       18.9860   -9.6860   32.1770 C.3    12  LEU12       0.0001
      9  N         22.6510   -6.0350   30.2730 N.am   13  GLY13      -0.1942
     10  CA        23.2780   -5.1880   29.2700 C.3    13  GLY13       0.2014
     11  C         24.1110   -4.1330   29.9870 C.2    13  GLY13       0.2639
     12  O         23.9060   -3.8520   31.1670 O.2    13  GLY13      -0.2714
     13  N         25.0640   -3.5670   29.2730 N.am   14  LYS14      -0.1963
     14  CA        25.9940   -2.5580   29.8390 C.3    14  LYS14       0.1728
     15  C         26.5950   -1.8800   28.6470 C.2    14  LYS14       0.2616
     16  O         27.1130   -2.5480   27.7410 O.2    14  LYS14      -0.2715
     17  CB        27.0900   -3.1820   30.7000 C.3    14  LYS14       0.0311
     18  CG        28.0850   -3.9850   29.8640 C.3    14  LYS14       0.0038
     19  CD        29.4850   -4.0760   30.4550 C.3    14  LYS14       0.0206
     20  CE        30.4890   -4.5090   29.3680 C.3    14  LYS14       0.1093
     21  NZ        31.6450   -5.2260   29.9890 N.3    14  LYS14      -0.1314
     22  N         26.4760   -0.5570   28.6060 N.am   15  GLY15      -0.1955
     23  CA        26.7850    0.2020   27.4030 C.3    15  GLY15       0.1869
     24  C         27.1210    1.6380   27.7180 C.2    15  GLY15       0.2309
     25  O         26.2430    2.5400   27.5980 O.2    15  GLY15      -0.2863
     26  N         27.1440    4.4690   29.1470 N.3    17  PHE17      -0.1227
     27  CA        26.3920    5.3980   30.0040 C.3    17  PHE17       0.1736
     28  C         25.8830    4.7360   31.2390 C.2    17  PHE17       0.2596
     29  O         25.5680    5.4130   32.2380 O.2    17  PHE17      -0.2718
     30  CB        25.1950    5.9760   29.2740 C.3    17  PHE17       0.0547
     31  CG        25.5470    6.6350   28.0220 C.ar   17  PHE17      -0.0202
     32  CD1       24.7050    6.5360   26.9190 C.ar   17  PHE17      -0.0042
     33  CD2       26.7330    7.3530   27.9260 C.ar   17  PHE17      -0.0042
     34  CE1       25.0480    7.1560   25.7240 C.ar   17  PHE17      -0.0003
     35  CE2       27.0990    7.9850   26.7440 C.ar   17  PHE17      -0.0003
     36  CZ        26.2650    7.8940   25.6330 C.ar   17  PHE17      -0.0000
     37  N         25.7890    3.4180   31.1830 N.am   18  GLY18      -0.1942
     38  CA        25.4370    2.6650   32.3640 C.3    18  GLY18       0.2014
     39  C         25.1510    1.2070   32.0780 C.2    18  GLY18       0.2639
     40  O         25.8090    0.5890   31.2120 O.2    18  GLY18      -0.2714
     41  N         24.1710    0.6660   32.8050 N.am   19  LYS19      -0.1963
     42  CA        23.8400   -0.7580   32.7350 C.3    19  LYS19       0.1728
     43  C         22.3530   -1.0480   32.8690 C.2    19  LYS19       0.2616
     44  O         21.5900   -0.1650   33.2540 O.2    19  LYS19      -0.2715
     45  CB        24.6430   -1.5620   33.7750 C.3    19  LYS19       0.0311
     46  CG        24.3780   -1.2480   35.2220 C.3    19  LYS19       0.0038
     47  CD        25.6800   -1.4850   36.0520 C.3    19  LYS19       0.0206
     48  CE        25.4170   -1.5640   37.5780 C.3    19  LYS19       0.1093
     49  NZ        26.5770   -1.1560   38.4450 N.3    19  LYS19      -0.1314
     50  N         21.9700   -2.2810   32.5120 N.am   20  VAL20      -0.1977
     51  CA        20.6110   -2.8180   32.7320 C.3    20  VAL20       0.1596
     52  C         20.7070   -4.0590   33.6170 C.2    20  VAL20       0.2287
     53  O         21.5070   -4.9640   33.3330 O.2    20  VAL20      -0.2864
     54  CB        19.8720   -3.1980   31.4040 C.3    20  VAL20       0.0276
     55  CG1       18.4410   -3.6000   31.6950 C.3    20  VAL20       0.0022
     56  CG2       19.8940   -2.0530   30.4220 C.3    20  VAL20       0.0022
     57  N         13.1500   -4.6020   34.6700 N.3    33  ALA33      -0.1245
     58  CA        14.4800   -4.2820   34.2250 C.3    33  ALA33       0.1562
     59  C         14.7900   -2.8840   34.7400 C.2    33  ALA33       0.2260
     60  O         13.9500   -1.9510   34.5880 O.2    33  ALA33      -0.2867
     61  CB        14.6320   -4.4020   32.7340 C.3    33  ALA33       0.0290
     62  N         17.3810    0.1520   34.3540 N.3    35  LYS35      -0.1245
     63  CA        18.4140    0.9430   33.6920 C.3    35  LYS35       0.1561
     64  C         18.9680    1.9280   34.7410 C.2    35  LYS35       0.2260
     65  O         18.2220    2.7340   35.3340 O.2    35  LYS35      -0.2867
     66  CB        17.8440    1.6520   32.4610 C.3    35  LYS35       0.0271
     67  CG        18.8800    2.3560   31.5110 C.3    35  LYS35       0.0035
     68  CD        17.9870    3.1420   30.5050 C.3    35  LYS35       0.0206
     69  CE        18.7230    3.8730   29.4350 C.3    35  LYS35       0.1093
     70  NZ        17.8930    4.0010   28.1870 N.3    35  LYS35      -0.1314
     71  N         21.9040    4.6820   35.3160 N.3    37  LEU37      -0.1245
     72  CA        22.9390    5.5070   34.7040 C.3    37  LEU37       0.1561
     73  C         23.7290    6.2730   35.7940 C.2    37  LEU37       0.2260
     74  O         23.1340    6.7310   36.7950 O.2    37  LEU37      -0.2867
     75  CB        22.3580    6.4490   33.6310 C.3    37  LEU37       0.0270
     76  CG        21.1700    5.8880   32.8160 C.3    37  LEU37       0.0019
     77  CD1       20.3950    7.0450   32.2280 C.3    37  LEU37       0.0001
     78  CD2       21.6130    4.9370   31.7130 C.3    37  LEU37       0.0001
     79  N         13.7330   10.5890   27.3570 N.3    54  GLU54      -0.1245
     80  CA        13.2750    9.2200   27.5790 C.3    54  GLU54       0.1567
     81  C         12.2990    9.1810   28.7910 C.2    54  GLU54       0.2260
     82  O         11.2750    8.5020   28.8020 O.2    54  GLU54      -0.2867
     83  CB        14.5120    8.3710   27.8920 C.3    54  GLU54       0.0388
     84  CG        14.0230    6.9680   28.1800 C.3    54  GLU54       0.1160
     85  CD        15.0490    5.8320   27.9870 C.2    54  GLU54       0.3649
     86  OE1       16.2040    5.9930   28.3930 O.co2  54  GLU54      -0.2457
     87  OE2       14.6580    4.7970   27.4020 O.co2  54  GLU54      -0.2457
     88  N          7.6390   -0.5010   25.9770 N.3    67  THR67      -0.1218
     89  CA         8.0440   -0.7870   27.3800 C.3    67  THR67       0.1862
     90  C          7.4150    0.2130   28.3340 C.2    67  THR67       0.2287
     91  O          7.5390    1.4380   28.1440 O.2    67  THR67      -0.2866
     92  CB         9.6040   -0.6550   27.5320 C.3    67  THR67       0.1770
     93  OG1       10.1670   -1.7540   26.8190 O.3    67  THR67      -0.2211
     94  CG2        9.9800   -0.8330   28.9180 C.3    67  THR67       0.0375
     95  N         11.6440   -0.6300   34.6290 N.3    83  MET83      -0.1230
     96  CA        10.7580   -0.8470   33.5010 C.3    83  MET83       0.1702
     97  C         10.3150   -2.2620   33.4130 C.2    83  MET83       0.2592
     98  O         10.9750   -3.1500   33.9900 O.2    83  MET83      -0.2718
     99  CB        11.4860   -0.4920   32.2180 C.3    83  MET83       0.0401
    100  CG        11.6950    1.0580   32.0830 C.3    83  MET83       0.0596
    101  SD        12.8560    1.4680   30.8140 S.3    83  MET83      -0.1393
    102  CE        14.3250    0.6770   31.4310 C.3    83  MET83       0.0692
    103  N          9.2030   -2.4820   32.6900 N.am   84  GLU84      -0.1966
    104  CA         8.7780   -3.8500   32.4520 C.3    84  GLU84       0.1733
    105  C          9.9360   -4.6410   31.8550 C.2    84  GLU84       0.2616
    106  O         10.5720   -4.1780   30.9090 O.2    84  GLU84      -0.2715
    107  CB         7.7310   -3.9190   31.3370 C.3    84  GLU84       0.0429
    108  CG         6.3410   -3.6400   31.6040 C.3    84  GLU84       0.1163
    109  CD         5.5380   -3.8400   30.2730 C.2    84  GLU84       0.3649
    110  OE1        5.9590   -3.2080   29.2340 O.co2  84  GLU84      -0.2457
    111  OE2        4.5550   -4.6500   30.2840 O.co2  84  GLU84      -0.2457
    112  N         10.1430   -5.8540   32.3590 N.am   85  TYR85      -0.1960
    113  CA        11.1890   -6.7370   31.8990 C.3    85  TYR85       0.1771
    114  C         10.6200   -7.5340   30.7460 C.2    85  TYR85       0.2619
    115  O          9.5160   -8.1300   30.8740 O.2    85  TYR85      -0.2715
    116  CB        11.6100   -7.6430   33.0840 C.3    85  TYR85       0.0574
    117  CG        12.4000   -8.9040   32.7810 C.ar   85  TYR85      -0.0198
    118  CD1       13.6500   -8.8190   32.1810 C.ar   85  TYR85      -0.0009
    119  CD2       11.9400  -10.1630   33.1940 C.ar   85  TYR85      -0.0009
    120  CE1       14.4040   -9.9350   31.9410 C.ar   85  TYR85       0.0417
    121  CE2       12.7160  -11.3100   32.9540 C.ar   85  TYR85       0.0417
    122  CZ        13.9450  -11.1720   32.3250 C.ar   85  TYR85       0.1957
    123  OH        14.7760  -12.2190   32.0140 O.3    85  TYR85      -0.2866
    124  N         11.3300   -7.4680   29.6150 N.am   86  ALA86      -0.1977
    125  CA        11.0930   -8.2870   28.4180 C.3    86  ALA86       0.1597
    126  C         11.9660   -9.5540   28.5300 C.2    86  ALA86       0.2287
    127  O         13.1470   -9.4980   28.1760 O.2    86  ALA86      -0.2864
    128  CB        11.4310   -7.4610   27.0870 C.3    86  ALA86       0.0319
    129  N         16.3380   -9.5330   22.8990 N.3    90  GLU90      -0.1245
    130  CA        16.3370   -8.5790   21.7510 C.3    90  GLU90       0.1567
    131  C         16.0860   -9.3800   20.5600 C.2    90  GLU90       0.2260
    132  O         16.5800  -10.5410   20.4690 O.2    90  GLU90      -0.2867
    133  CB        17.7320   -7.9060   21.5830 C.3    90  GLU90       0.0388
    134  CG        18.0410   -6.9490   22.6340 C.3    90  GLU90       0.1160
    135  CD        19.5380   -6.4860   22.5630 C.2    90  GLU90       0.3649
    136  OE1       19.9250   -5.6260   23.3480 O.co2  90  GLU90      -0.2457
    137  OE2       20.2550   -6.9120   21.6690 O.co2  90  GLU90      -0.2457
    138  N         18.3540   -4.1330   18.0600 N.3   134  GLU134     -0.1231
    139  CA        18.7770   -4.0470   19.4280 C.3   134  GLU134      0.1699
    140  C         17.7400   -3.3730   20.2950 C.2   134  GLU134      0.2592
    141  O         17.7400   -3.5820   21.5200 O.2   134  GLU134     -0.2718
    142  CB        20.1080   -3.1730   19.5280 C.3   134  GLU134      0.0402
    143  CG        21.3930   -3.8200   18.8920 C.3   134  GLU134      0.1161
    144  CD        21.6120   -3.5120   17.4090 C.2   134  GLU134      0.3649
    145  OE1       20.6160   -3.2360   16.6490 O.co2 134  GLU134     -0.2457
    146  OE2       22.8140   -3.6090   16.9310 O.co2 134  GLU134     -0.2457
    147  N         16.8660   -2.5310   19.7250 N.am  135  ASN135     -0.1974
    148  CA        15.9380   -1.7780   20.5900 C.3   135  ASN135      0.1688
    149  C         14.5440   -2.3970   20.4850 C.2   135  ASN135      0.2292
    150  O         13.5690   -1.6800   20.7660 O.2   135  ASN135     -0.2864
    151  CB        15.7930   -0.3090   20.0770 C.3   135  ASN135      0.1181
    152  CG        17.0300    0.5320   20.4080 C.2   135  ASN135      0.2629
    153  OD1       17.8360    0.0860   21.1450 O.2   135  ASN135     -0.2716
    154  ND2       17.1510    1.7320   19.8770 N.am  135  ASN135     -0.0877
    155  N         12.5910   -5.7510   21.7280 N.3   137  MET137     -0.1245
    156  CA        12.6010   -7.0080   22.5010 C.3   137  MET137      0.1570
    157  C         11.2680   -7.7830   22.4160 C.2   137  MET137      0.2261
    158  O         10.2450   -7.2670   21.9070 O.2   137  MET137     -0.2867
    159  CB        12.9160   -6.6140   23.9240 C.3   137  MET137      0.0387
    160  CG        14.3630   -5.9450   23.9710 C.3   137  MET137      0.0595
    161  SD        14.8400   -5.7240   25.6280 S.3   137  MET137     -0.1393
    162  CE        15.4520   -7.4310   25.8620 C.3   137  MET137      0.0692
    163  N         12.2420   -0.5250   23.2370 N.3   147  THR147     -0.1203
    164  CA        13.0320   -0.0500   24.3800 C.3   147  THR147      0.1994
    165  C         13.8730    1.1640   23.9680 C.2   147  THR147      0.2617
    166  O         14.1570    1.3620   22.7950 O.2   147  THR147     -0.2717
    167  CB        14.0220   -1.1620   24.9190 C.3   147  THR147      0.1784
    168  OG1       14.7720   -1.7380   23.8250 O.3   147  THR147     -0.2211
    169  CG2       13.2020   -2.2450   25.5650 C.3   147  THR147      0.0376
    170  N         14.2840    1.9900   24.9360 N.am  148  ASP148     -0.1973
    171  CA        15.3070    2.9810   24.6790 C.3   148  ASP148      0.1709
    172  C         14.7610    4.1980   23.9100 C.2   148  ASP148      0.2293
    173  O         14.8560    4.2690   22.6620 O.2   148  ASP148     -0.2864
    174  CB        16.6310    2.3010   24.0990 C.3   148  ASP148      0.1436
    175  CG        17.2370    1.2450   25.1140 C.2   148  ASP148      0.3671
    176  OD1       17.5090    1.5960   26.3280 O.co2 148  ASP148     -0.2456
    177  OD2       17.2970    0.0250   24.7560 O.co2 148  ASP148     -0.2456
    178  N         19.4420  -13.6840   26.7740 N.3   293  PHE293     -0.1241
    179  CA        20.3660  -12.5680   26.9000 C.3   293  PHE293      0.1605
    180  C         21.8150  -13.0870   26.7350 C.2   293  PHE293      0.2264
    181  O         22.1510  -14.2310   27.1260 O.2   293  PHE293     -0.2867
    182  CB        20.1710  -11.9290   28.2630 C.3   293  PHE293      0.0534
    183  CG        18.8030  -11.2750   28.4170 C.ar  293  PHE293     -0.0203
    184  CD1       18.6550   -9.9190   28.1890 C.ar  293  PHE293     -0.0042
    185  CD2       17.6710  -12.0420   28.7620 C.ar  293  PHE293     -0.0042
    186  CE1       17.4030   -9.3220   28.3180 C.ar  293  PHE293     -0.0003
    187  CE2       16.4070  -11.4590   28.8570 C.ar  293  PHE293     -0.0003
    188  CZ        16.2740  -10.0870   28.6510 C.ar  293  PHE293     -0.0000
@<TRIPOS>BOND
     1   145   144   ar
     2   146   144   ar
     3   144   143    1
     4   138   139    1
     5   143   142    1
     6   139   142    1
     7   139   140    1
     8   147   140   am
     9   147   148    1
    10   154   152   am
    11   151   152    1
    12   151   148    1
    13   140   141    2
    14   152   153    2
    15   132   131    2
    16   149   148    1
    17   149   150    2
    18   131   130    1
    19   133   130    1
    20   133   134    1
    21   137   135   ar
    22   155   156    1
    23   130   129    1
    24   158   157    2
    25   157   156    1
    26   156   159    1
    27   135   134    1
    28   135   136   ar
    29   173   172    2
    30   166   165    2
    31   163   164    1
    32   168   167    1
    33   172   171    1
    34   159   160    1
    35   165   164    1
    36   165   170   am
    37   160   161    1
    38   174   171    1
    39   174   175    1
    40   164   167    1
    41   171   170    1
    42   177   175   ar
    43   167   169    1
    44   175   176   ar
    45   161   162    1
    46    36    34   ar
    47    36    35   ar
    48    34    32   ar
    49    88    89    1
    50   180   179    1
    51   180   181    2
    52    35    33   ar
    53   178   179    1
    54    93    92    1
    55   179   182    1
    56    32    31   ar
    57   128   125    1
    58    79    80    1
    59    89    92    1
    60    89    90    1
    61    87    85   ar
    62    23    24    1
    63    23    22    1
    64    92    94    1
    65    80    83    1
    66    80    81    1
    67    25    24    2
    68    16    15    2
    69    83    84    1
    70    33    31   ar
    71    85    84    1
    72    85    86   ar
    73    31    30    1
    74    91    90    2
    75   127   126    2
    76    70    69    1
    77   184   186   ar
    78   184   183   ar
    79   182   183    1
    80   186   188   ar
    81   183   185   ar
    82   125   126    1
    83   125   124    1
    84    22    15   am
    85    15    14    1
    86   188   187   ar
    87   185   187   ar
    88     4     3    2
    89    81    82    2
    90    26    27    1
    91   110   109   ar
    92    10    11    1
    93    10     9    1
    94    13    14    1
    95    13    11   am
    96    30    27    1
    97    20    21    1
    98    20    19    1
    99    69    68    1
   100   124   114   am
   101    14    17    1
   102    18    19    1
   103    18    17    1
   104     3     9   am
   105     3     2    1
   106    11    12    2
   107    27    28    1
   108   109   111   ar
   109   109   108    1
   110    56    54    1
   111    68    67    1
   112   114   115    2
   113   114   113    1
   114   101   102    1
   115   101   100    1
   116   106   105    2
   117     5     2    1
   118     5     6    1
   119     2     1    1
   120    37    28   am
   121    37    38    1
   122    40    39    2
   123    28    29    2
   124   107   108    1
   125   107   104    1
   126    54    55    1
   127    54    51    1
   128    67    66    1
   129    78    76    1
   130   105   112   am
   131   105   104    1
   132   113   112    1
   133   113   116    1
   134   120   118   ar
   135   120   122   ar
   136     7     6    1
   137   123   122    1
   138    39    38    1
   139    39    41   am
   140   100    99    1
   141     6     8    1
   142   118   117   ar
   143    99    96    1
   144    77    76    1
   145   122   121   ar
   146   104   103    1
   147    66    63    1
   148    50    51    1
   149    50    43   am
   150   103    97   am
   151    51    52    1
   152    61    58    1
   153    42    41    1
   154    42    43    1
   155    42    45    1
   156   117   116    1
   157   117   119   ar
   158    76    75    1
   159    43    44    2
   160   121   119   ar
   161    53    52    2
   162    97    96    1
   163    97    98    2
   164    96    95    1
   165    75    72    1
   166    63    62    1
   167    63    64    1
   168    45    46    1
   169    58    57    1
   170    58    59    1
   171    60    59    2
   172    72    71    1
   173    72    73    1
   174    64    65    2
   175    46    47    1
   176    73    74    2
   177    47    48    1
   178    48    49    1
