@<TRIPOS>MOLECULE
tmp/3mvjC00.pdb
 148 139 0 0 0
SMALL
GASTEIGER

@<TRIPOS>ATOM
      1  N          3.0250  -14.7060   20.0370 N.3    35  LEU35      -0.1231
      2  CA         1.9930  -13.9500   19.2990 C.3    35  LEU35       0.1693
      3  C          0.7230  -13.6900   20.0790 C.2    35  LEU35       0.2592
      4  O         -0.2160  -13.1120   19.5350 O.2    35  LEU35      -0.2718
      5  CB         1.5680  -14.6980   18.0580 C.3    35  LEU35       0.0284
      6  CG         2.6740  -15.3110   17.2360 C.3    35  LEU35       0.0019
      7  CD1        2.0630  -16.3810   16.3560 C.3    35  LEU35       0.0001
      8  CD2        3.3760  -14.2210   16.4200 C.3    35  LEU35       0.0001
      9  N          0.6770  -14.1350   21.3330 N.am   36  GLY36      -0.1957
     10  CA        -0.5020  -13.9750   22.1850 C.3    36  GLY36       0.1869
     11  C         -0.3940  -14.7850   23.4650 C.2    36  GLY36       0.2309
     12  O          0.2270  -15.8500   23.4680 O.2    36  GLY36      -0.2863
     13  N          0.4470  -18.6290   22.5350 N.3    43  VAL43      -0.1245
     14  CA         0.5830  -19.0040   21.1450 C.3    43  VAL43       0.1561
     15  C          1.8820  -18.4010   20.6240 C.2    43  VAL43       0.2260
     16  O          2.1370  -17.2040   20.8180 O.2    43  VAL43      -0.2867
     17  CB        -0.5910  -18.4600   20.3040 C.3    43  VAL43       0.0252
     18  CG1       -0.5280  -19.0150   18.9050 C.3    43  VAL43       0.0019
     19  CG2       -1.9410  -18.7930   20.9620 C.3    43  VAL43       0.0019
     20  N          1.8930  -21.5750   13.8530 N.3    56  ALA56      -0.1245
     21  CA         1.4650  -21.0430   15.1150 C.3    56  ALA56       0.1562
     22  C          1.2090  -22.2090   16.0620 C.2    56  ALA56       0.2260
     23  O          0.3840  -23.0880   15.7780 O.2    56  ALA56      -0.2867
     24  CB         0.2550  -20.1510   14.9450 C.3    56  ALA56       0.0290
     25  N          0.0530  -23.3470   19.6970 N.3    58  LYS58      -0.1245
     26  CA        -0.6440  -23.1050   20.9630 C.3    58  LYS58       0.1561
     27  C         -0.0480  -24.0570   21.9980 C.2    58  LYS58       0.2260
     28  O          0.1010  -25.2620   21.7400 O.2    58  LYS58      -0.2867
     29  CB        -2.1520  -23.3340   20.8310 C.3    58  LYS58       0.0271
     30  CG        -2.9810  -22.5680   21.8360 C.3    58  LYS58       0.0035
     31  CD        -4.4440  -23.0350   21.9510 C.3    58  LYS58       0.0206
     32  CE        -5.3660  -21.9150   22.4950 C.3    58  LYS58       0.1093
     33  NZ        -6.8390  -22.2750   22.5570 N.3    58  LYS58      -0.1314
     34  N         -8.8750  -22.5680   10.5610 N.3    90  VAL90      -0.1245
     35  CA        -7.4670  -22.9600   10.5780 C.3    90  VAL90       0.1561
     36  C         -7.3430  -24.4800   10.5710 C.2    90  VAL90       0.2260
     37  O         -8.0970  -25.1830   11.2880 O.2    90  VAL90      -0.2867
     38  CB        -6.6800  -22.5450   11.8510 C.3    90  VAL90       0.0252
     39  CG1       -5.7060  -21.4470   11.5490 C.3    90  VAL90       0.0019
     40  CG2       -7.6180  -22.2140   13.0230 C.3    90  VAL90       0.0019
     41  N         -0.6150  -24.9670   14.4340 N.3   106  MET106     -0.1230
     42  CA        -1.5390  -24.6780   13.3490 C.3   106  MET106      0.1702
     43  C         -0.8210  -23.9230   12.2410 C.2   106  MET106      0.2592
     44  O          0.2890  -23.4470   12.4130 O.2   106  MET106     -0.2718
     45  CB        -2.7710  -23.9270   13.9050 C.3   106  MET106      0.0401
     46  CG        -3.5000  -24.7180   15.0040 C.3   106  MET106      0.0596
     47  SD        -4.3950  -23.7900   16.2370 S.3   106  MET106     -0.1393
     48  CE        -3.1730  -23.1780   17.3550 C.3   106  MET106      0.0692
     49  N         -1.4360  -23.8690   11.0790 N.am  107  GLU107     -0.1966
     50  CA        -0.9870  -22.9920   10.0380 C.3   107  GLU107      0.1733
     51  C         -0.7760  -21.5350   10.5750 C.2   107  GLU107      0.2616
     52  O         -1.6570  -20.9450   11.2220 O.2   107  GLU107     -0.2715
     53  CB        -2.0420  -23.0530    8.9440 C.3   107  GLU107      0.0429
     54  CG        -1.6650  -22.4030    7.6070 C.3   107  GLU107      0.1163
     55  CD        -2.6390  -22.8330    6.5100 C.2   107  GLU107      0.3649
     56  OE1       -3.8530  -22.5110    6.6380 O.co2 107  GLU107     -0.2457
     57  OE2       -2.1980  -23.5340    5.5590 O.co2 107  GLU107     -0.2457
     58  N          0.4020  -20.9780   10.3470 N.am  108  TYR108     -0.1960
     59  CA         0.6350  -19.5740   10.6510 C.3   108  TYR108      0.1771
     60  C         -0.2100  -18.7040    9.7210 C.2   108  TYR108      0.2619
     61  O         -0.3490  -18.9990    8.5280 O.2   108  TYR108     -0.2715
     62  CB         2.1260  -19.2250   10.4920 C.3   108  TYR108      0.0574
     63  CG         2.5060  -17.7570   10.7630 C.ar  108  TYR108     -0.0198
     64  CD1        2.0100  -17.0790   11.8910 C.ar  108  TYR108     -0.0009
     65  CD2        3.3910  -17.0720    9.9100 C.ar  108  TYR108     -0.0009
     66  CE1        2.3410  -15.7750   12.1560 C.ar  108  TYR108      0.0417
     67  CE2        3.7490  -15.7570   10.1610 C.ar  108  TYR108      0.0417
     68  CZ         3.2110  -15.1010   11.2890 C.ar  108  TYR108      0.1957
     69  OH         3.5600  -13.7910   11.5720 O.3   108  TYR108     -0.2866
     70  N         -0.7980  -17.6500   10.2740 N.am  109  VAL109     -0.1977
     71  CA        -1.5620  -16.6750    9.4890 C.3   109  VAL109      0.1596
     72  C         -0.9260  -15.2790    9.7110 C.2   109  VAL109      0.2287
     73  O         -1.0600  -14.6790   10.7780 O.2   109  VAL109     -0.2864
     74  CB        -3.0380  -16.6990    9.8550 C.3   109  VAL109      0.0276
     75  CG1       -3.8540  -16.0520    8.7750 C.3   109  VAL109      0.0022
     76  CG2       -3.5110  -18.0960   10.0570 C.3   109  VAL109      0.0022
     77  N         -4.6050  -10.1690   13.5440 N.3   113  GLU113     -0.1245
     78  CA        -5.9670  -10.3010   13.9370 C.3   113  GLU113      0.1567
     79  C         -6.7540   -9.1530   13.3970 C.2   113  GLU113      0.2260
     80  O         -6.2430   -8.0360   13.2910 O.2   113  GLU113     -0.2867
     81  CB        -6.0220  -10.2470   15.4470 C.3   113  GLU113      0.0388
     82  CG        -4.9820  -11.0850   16.1610 C.3   113  GLU113      0.1160
     83  CD        -5.1000  -10.8710   17.6390 C.2   113  GLU113      0.3649
     84  OE1       -5.4170   -9.7100   18.0460 O.co2 113  GLU113     -0.2457
     85  OE2       -4.8960  -11.8500   18.3800 O.co2 113  GLU113     -0.2457
     86  N        -10.5770  -10.2890   17.7340 N.3   156  GLU156     -0.1231
     87  CA        -9.3420  -10.8630   18.2760 C.3   156  GLU156      0.1699
     88  C         -9.1290  -12.3230   17.8660 C.2   156  GLU156      0.2592
     89  O         -8.0210  -12.8420   17.9580 O.2   156  GLU156     -0.2718
     90  CB        -9.3680  -10.8080   19.8230 C.3   156  GLU156      0.0402
     91  CG        -9.3220   -9.4240   20.4680 C.3   156  GLU156      0.1161
     92  CD       -10.7330   -8.8360   20.7650 C.2   156  GLU156      0.3649
     93  OE1      -11.6500   -8.9810   19.9100 O.co2 156  GLU156     -0.2457
     94  OE2      -10.9160   -8.2450   21.8590 O.co2 156  GLU156     -0.2457
     95  N        -10.1770  -13.0200   17.4620 N.am  157  ASN157     -0.1974
     96  CA       -10.0220  -14.4430   17.1530 C.3   157  ASN157      0.1688
     97  C        -10.1990  -14.6940   15.6750 C.2   157  ASN157      0.2292
     98  O        -10.3460  -15.8520   15.2380 O.2   157  ASN157     -0.2864
     99  CB       -11.0440  -15.2990   17.9330 C.3   157  ASN157      0.1181
    100  CG       -10.7940  -15.3010   19.4080 C.2   157  ASN157      0.2629
    101  OD1       -9.7140  -14.9110   19.8780 O.2   157  ASN157     -0.2716
    102  ND2      -11.7860  -15.7610   20.1680 N.am  157  ASN157     -0.0877
    103  N         -8.3390  -14.1560   12.1630 N.3   159  LEU159     -0.1245
    104  CA        -7.0830  -13.7830   11.5510 C.3   159  LEU159      0.1561
    105  C         -7.2970  -13.4770   10.1080 C.2   159  LEU159      0.2260
    106  O         -8.1990  -14.0680    9.4760 O.2   159  LEU159     -0.2867
    107  CB        -6.1160  -14.9420   11.6080 C.3   159  LEU159      0.0270
    108  CG        -5.6820  -15.4290   12.9950 C.3   159  LEU159      0.0019
    109  CD1       -4.7250  -16.5500   12.7210 C.3   159  LEU159      0.0001
    110  CD2       -5.0710  -14.3780   13.9360 C.3   159  LEU159      0.0001
    111  N         -9.8360  -18.9960   14.3820 N.3   169  THR169     -0.1203
    112  CA        -9.1190  -19.7650   15.4030 C.3   169  THR169      0.1994
    113  C         -9.8550  -19.6630   16.7290 C.2   169  THR169      0.2617
    114  O        -10.7970  -18.8430   16.8790 O.2   169  THR169     -0.2717
    115  CB        -7.7220  -19.1990   15.6470 C.3   169  THR169      0.1784
    116  OG1       -7.8070  -17.7950   15.9800 O.3   169  THR169     -0.2211
    117  CG2       -6.8520  -19.3550   14.4050 C.3   169  THR169      0.0376
    118  N         -9.3470  -20.4470   17.6870 N.am  170  ASP170     -0.1973
    119  CA        -9.8260  -20.5430   19.0650 C.3   170  ASP170      0.1709
    120  C        -11.1140  -21.3640   19.0680 C.2   170  ASP170      0.2293
    121  O        -12.2250  -20.8870   18.8530 O.2   170  ASP170     -0.2864
    122  CB        -9.9600  -19.1710   19.7350 C.3   170  ASP170      0.1436
    123  CG        -9.4570  -19.1580   21.2070 C.2   170  ASP170      0.3671
    124  OD1       -9.3070  -20.2580   21.8180 O.co2 170  ASP170     -0.2456
    125  OD2       -9.2190  -18.0490   21.7930 O.co2 170  ASP170     -0.2456
    126  N          1.7150   -8.2180   14.2560 N.3   312  PHE312     -0.1241
    127  CA         1.4560   -8.6780   15.6290 C.3   312  PHE312      0.1605
    128  C          1.9940   -7.7760   16.7580 C.2   312  PHE312      0.2264
    129  O          2.9090   -7.0010   16.5630 O.2   312  PHE312     -0.2867
    130  CB         1.9950  -10.0980   15.7840 C.3   312  PHE312      0.0534
    131  CG         1.1840  -11.1100   15.0790 C.ar  312  PHE312     -0.0203
    132  CD1        0.0750  -11.6890   15.7070 C.ar  312  PHE312     -0.0042
    133  CD2        1.4960  -11.4870   13.7820 C.ar  312  PHE312     -0.0042
    134  CE1       -0.7050  -12.6250   15.0400 C.ar  312  PHE312     -0.0003
    135  CE2        0.7360  -12.4210   13.1280 C.ar  312  PHE312     -0.0003
    136  CZ        -0.3740  -12.9920   13.7520 C.ar  312  PHE312     -0.0000
    137  N          4.7430   -9.3430   23.1070 N.3   315  TYR315     -0.1241
    138  CA         4.4640   -9.8510   24.4440 C.3   315  TYR315      0.1605
    139  C          5.7790  -10.1460   25.1870 C.2   315  TYR315      0.2264
    140  O          6.8590  -10.0870   24.5870 O.2   315  TYR315     -0.2867
    141  CB         3.5570  -11.0740   24.3440 C.3   315  TYR315      0.0534
    142  CG         2.2290  -10.8060   23.6350 C.ar  315  TYR315     -0.0201
    143  CD1        2.1190  -10.9090   22.2370 C.ar  315  TYR315     -0.0009
    144  CD2        1.0780  -10.4540   24.3600 C.ar  315  TYR315     -0.0009
    145  CE1        0.8930  -10.6580   21.5720 C.ar  315  TYR315      0.0417
    146  CE2       -0.1560  -10.2090   23.7130 C.ar  315  TYR315      0.0417
    147  CZ        -0.2410  -10.3200   22.3160 C.ar  315  TYR315      0.1957
    148  OH        -1.4480  -10.0860   21.6660 O.3   315  TYR315     -0.2866
@<TRIPOS>BOND
     1    57    55   ar
     2    55    56   ar
     3    55    54    1
     4    54    53    1
     5    61    60    2
     6    75    74    1
     7    53    50    1
     8   106   105    2
     9    71    72    1
    10    71    74    1
    11    71    70    1
    12    72    73    2
    13    60    70   am
    14    60    59    1
    15    74    76    1
    16    65    67   ar
    17    65    63   ar
    18    50    51    1
    19    50    49    1
    20   105   104    1
    21    67    68   ar
    22    58    51   am
    23    58    59    1
    24    62    59    1
    25    62    63    1
    26    34    35    1
    27    36    35    1
    28    36    37    2
    29    51    52    2
    30    35    38    1
    31    63    64   ar
    32    49    43   am
    33    68    69    1
    34    68    66   ar
    35    39    38    1
    36   104   107    1
    37   104   103    1
    38   107   108    1
    39    38    40    1
    40    64    66   ar
    41    43    44    2
    42    43    42    1
    43   109   108    1
    44   108   110    1
    45   135   136   ar
    46   135   133   ar
    47    80    79    2
    48    42    45    1
    49    42    41    1
    50    79    78    1
    51    77    78    1
    52   136   134   ar
    53   133   131   ar
    54    20    21    1
    55    45    46    1
    56    78    81    1
    57   126   127    1
    58   111   112    1
    59   117   115    1
    60    24    21    1
    61    46    47    1
    62   134   132   ar
    63   131   132   ar
    64   131   130    1
    65    21    22    1
    66    98    97    2
    67   112   115    1
    68   112   113    1
    69    81    82    1
    70   127   130    1
    71   127   128    1
    72   115   116    1
    73    97    96    1
    74    23    22    2
    75    82    83    1
    76    47    48    1
    77     7     6    1
    78     8     6    1
    79   129   128    2
    80   113   114    2
    81   113   118   am
    82    96    95    1
    83    96    99    1
    84     6     5    1
    85    95    88   am
    86    83    84   ar
    87    83    85   ar
    88   118   119    1
    89    86    87    1
    90    88    89    2
    91    88    87    1
    92    99   100    1
    93     5     2    1
    94    87    90    1
    95   121   120    2
    96    18    17    1
    97   119   120    1
    98   119   122    1
    99     2     1    1
   100     2     3    1
   101   100   101    2
   102   100   102   am
   103     4     3    2
   104    25    26    1
   105   122   123    1
   106    90    91    1
   107    93    92   ar
   108     3     9   am
   109    17    19    1
   110    17    14    1
   111    91    92    1
   112    15    16    2
   113    15    14    1
   114    92    94   ar
   115    29    26    1
   116    29    30    1
   117    26    27    1
   118    14    13    1
   119   123   125   ar
   120   123   124   ar
   121     9    10    1
   122   145   143   ar
   123   145   147   ar
   124   148   147    1
   125    28    27    2
   126    30    31    1
   127    31    32    1
   128    10    11    1
   129   143   142   ar
   130   147   146   ar
   131    32    33    1
   132   137   138    1
   133    11    12    2
   134   142   141    1
   135   142   144   ar
   136   146   144   ar
   137   141   138    1
   138   138   139    1
   139   140   139    2
