@<TRIPOS>MOLECULE
tmp/3mvlB00.pdb
 198 185 0 0 0
SMALL
GASTEIGER

@<TRIPOS>ATOM
      1  N         41.2360    6.8120    6.7260 N.3    26  VAL26      -0.1245
      2  CA        39.8730    7.3350    6.8960 C.3    26  VAL26       0.1561
      3  C         38.9150    6.2230    7.3040 C.2    26  VAL26       0.2260
      4  O         37.9450    6.4780    8.0230 O.2    26  VAL26      -0.2867
      5  CB        39.3410    8.1420    5.6780 C.3    26  VAL26       0.0252
      6  CG1       40.0250    9.4990    5.5740 C.3    26  VAL26       0.0019
      7  CG2       39.4470    7.3590    4.3650 C.3    26  VAL26       0.0019
      8  N         37.2200    2.0460    5.9430 N.3    28  SER28      -0.1202
      9  CA        37.0320    0.9860    4.9600 C.3    28  SER28       0.2020
     10  C         35.9490    1.1960    3.9080 C.2    28  SER28       0.2619
     11  O         34.7630    1.3240    4.2300 O.2    28  SER28      -0.2717
     12  CB        36.8910   -0.3760    5.6360 C.3    28  SER28       0.2103
     13  OG        38.1620   -0.9320    5.9360 O.3    28  SER28      -0.2182
     14  N         36.4070    1.2330    2.6550 N.am   29  GLY29      -0.1956
     15  CA        35.6120    1.2750    1.4330 C.3    29  GLY29       0.1869
     16  C         35.6340   -0.1300    0.8560 C.2    29  GLY29       0.2309
     17  O         36.3200   -0.9980    1.4200 O.2    29  GLY29      -0.2863
     18  N         41.0550    2.4240    2.7830 N.3    34  VAL34      -0.1245
     19  CA        41.0640    3.7180    2.1290 C.3    34  VAL34       0.1561
     20  C         41.8970    4.6760    3.0080 C.2    34  VAL34       0.2260
     21  O         41.7940    4.6680    4.2420 O.2    34  VAL34      -0.2867
     22  CB        39.6330    4.2370    1.7840 C.3    34  VAL34       0.0252
     23  CG1       39.6770    5.5060    0.9270 C.3    34  VAL34       0.0019
     24  CG2       38.8070    3.1650    1.0820 C.3    34  VAL34       0.0019
     25  N         42.0300   10.7810   -2.1820 N.3    47  ALA47      -0.1231
     26  CA        41.5590    9.5800   -1.5270 C.3    47  ALA47       0.1694
     27  C         42.2790    8.3970   -2.2110 C.2    47  ALA47       0.2592
     28  O         42.0220    8.0920   -3.3880 O.2    47  ALA47      -0.2718
     29  CB        40.0440    9.4690   -1.6670 C.3    47  ALA47       0.0304
     30  N         43.2440    7.7970   -1.4760 N.am   48  VAL48      -0.1966
     31  CA        44.0900    6.6760   -1.9100 C.3    48  VAL48       0.1727
     32  C         43.5240    5.3400   -1.3750 C.2    48  VAL48       0.2616
     33  O         43.3930    5.1760   -0.1540 O.2    48  VAL48      -0.2715
     34  CB        45.5680    6.8840   -1.4410 C.3    48  VAL48       0.0290
     35  CG1       46.5330    5.9720   -2.2090 C.3    48  VAL48       0.0023
     36  CG2       45.9960    8.3490   -1.5390 C.3    48  VAL48       0.0023
     37  N         43.2450    4.3790   -2.2740 N.am   49  LYS49      -0.1977
     38  CA        42.7500    3.0420   -1.8900 C.3    49  LYS49       0.1596
     39  C         43.8200    1.9960   -2.1950 C.2    49  LYS49       0.2287
     40  O         44.4680    2.0730   -3.2340 O.2    49  LYS49      -0.2864
     41  CB        41.4340    2.6890   -2.6330 C.3    49  LYS49       0.0298
     42  CG        40.5360    1.6540   -1.9230 C.3    49  LYS49       0.0038
     43  CD        39.5380    0.9220   -2.8670 C.3    49  LYS49       0.0206
     44  CE        38.1500    1.5370   -2.9290 C.3    49  LYS49       0.1093
     45  NZ        37.2370    0.8020   -3.8500 N.3    49  LYS49      -0.1314
     46  N         37.0170   -3.0590  -11.5030 N.3    67  GLU67      -0.1245
     47  CA        37.2390   -1.7270  -10.9150 C.3    67  GLU67       0.1567
     48  C         38.0690   -0.8190  -11.8110 C.2    67  GLU67       0.2260
     49  O         37.6970    0.3310  -12.0040 O.2    67  GLU67      -0.2867
     50  CB        37.8820   -1.8410   -9.5280 C.3    67  GLU67       0.0388
     51  CG        37.5990   -0.6390   -8.6410 C.3    67  GLU67       0.1160
     52  CD        37.8100   -0.8140   -7.1580 C.2    67  GLU67       0.3649
     53  OE1       37.9630   -1.9610   -6.6960 O.co2  67  GLU67      -0.2457
     54  OE2       37.7130    0.1950   -6.4370 O.co2  67  GLU67      -0.2457
     55  N         36.0780    0.1220  -14.9930 N.3    70  LEU70      -0.1231
     56  CA        34.9270    1.0260  -14.7510 C.3    70  LEU70       0.1693
     57  C         35.3970    2.4600  -14.5980 C.2    70  LEU70       0.2591
     58  O         34.9450    3.3250  -15.3260 O.2    70  LEU70      -0.2718
     59  CB        34.0540    0.6230  -13.5300 C.3    70  LEU70       0.0284
     60  CG        32.7760   -0.2170  -13.8030 C.3    70  LEU70       0.0019
     61  CD1       32.0670   -0.5690  -12.5250 C.3    70  LEU70       0.0001
     62  CD2       31.7940    0.5010  -14.7110 C.3    70  LEU70       0.0001
     63  N         36.3220    2.6950  -13.6640 N.am   71  LEU71      -0.1980
     64  CA        36.9470    3.9740  -13.3450 C.3    71  LEU71       0.1596
     65  C         37.6970    4.6260  -14.5590 C.2    71  LEU71       0.2287
     66  O         37.5620    5.8370  -14.7980 O.2    71  LEU71      -0.2864
     67  CB        37.8700    3.7630  -12.1360 C.3    71  LEU71       0.0297
     68  CG        37.1890    3.4840  -10.7810 C.3    71  LEU71       0.0022
     69  CD1       38.1170    2.7920   -9.8320 C.3    71  LEU71       0.0001
     70  CD2       36.6410    4.7800  -10.1380 C.3    71  LEU71       0.0001
     71  N         32.0010    8.8850   -9.2760 N.3    80  ILE80      -0.1245
     72  CA        33.4250    8.9890   -8.9270 C.3    80  ILE80       0.1561
     73  C         34.3600    8.6060  -10.1190 C.2    80  ILE80       0.2260
     74  O         34.1620    7.5540  -10.7390 O.2    80  ILE80      -0.2867
     75  CB        33.7760    8.3670   -7.5400 C.3    80  ILE80       0.0252
     76  CG1       34.4140    9.3850   -6.5420 C.3    80  ILE80       0.0019
     77  CG2       34.4860    7.0160   -7.5970 C.3    80  ILE80       0.0019
     78  CD1       35.5730   10.2800   -7.0270 C.3    80  ILE80       0.0001
     79  N         38.3510    8.1650  -12.0160 N.3    82  LEU82      -0.1245
     80  CA        39.7210    7.7060  -11.7700 C.3    82  LEU82       0.1561
     81  C         40.7820    8.7700  -12.0860 C.2    82  LEU82       0.2260
     82  O         41.0190    9.1090  -13.2550 O.2    82  LEU82      -0.2867
     83  CB        39.9970    6.3800  -12.5170 C.3    82  LEU82       0.0270
     84  CG        41.0930    5.3970  -11.9940 C.3    82  LEU82       0.0019
     85  CD1       42.4620    5.8740  -12.3070 C.3    82  LEU82       0.0001
     86  CD2       40.9710    5.0810  -10.4880 C.3    82  LEU82       0.0001
     87  N         44.6350    2.6930   -6.1090 N.3   100  LEU100     -0.1245
     88  CA        43.6980    3.5410   -6.8280 C.3   100  LEU100      0.1561
     89  C         43.6150    4.8610   -6.0880 C.2   100  LEU100      0.2260
     90  O         43.5160    4.8840   -4.8550 O.2   100  LEU100     -0.2867
     91  CB        42.2750    2.9230   -6.9580 C.3   100  LEU100      0.0270
     92  CG        42.1000    1.5240   -7.5410 C.3   100  LEU100      0.0019
     93  CD1       40.6860    1.2590   -7.7720 C.3   100  LEU100      0.0001
     94  CD2       42.7790    1.3730   -8.8650 C.3   100  LEU100      0.0001
     95  N         41.6450    8.6860   -5.9800 N.3   102  THR102     -0.1203
     96  CA        40.4270    9.4380   -6.2960 C.3   102  THR102      0.1994
     97  C         40.3600   10.7760   -5.5150 C.2   102  THR102      0.2618
     98  O         41.1760   10.9730   -4.6200 O.2   102  THR102     -0.2717
     99  CB        39.2090    8.5190   -6.1920 C.3   102  THR102      0.1784
    100  OG1       38.4310    8.6740   -7.3700 O.3   102  THR102     -0.2211
    101  CG2       38.3690    8.7760   -4.9550 C.3   102  THR102      0.0376
    102  N         39.4070   11.6880   -5.8800 N.am  103  HIS103     -0.1961
    103  CA        39.1220   12.9830   -5.2200 C.3   103  HIS103      0.1787
    104  C         38.6840   12.7310   -3.7650 C.2   103  HIS103      0.2620
    105  O         38.0850   11.6870   -3.4770 O.2   103  HIS103     -0.2715
    106  CB        37.9240   13.7270   -5.8860 C.3   103  HIS103      0.0785
    107  CG        37.9660   13.8660   -7.3790 C.ar  103  HIS103      0.0821
    108  ND1       38.3790   15.0490   -7.9860 N.ar  103  HIS103     -0.2267
    109  CD2       37.5840   12.9920   -8.3420 C.ar  103  HIS103      0.1154
    110  CE1       38.2730   14.8400   -9.2910 C.ar  103  HIS103      0.1986
    111  NE2       37.8100   13.6120   -9.5550 N.ar  103  HIS103     -0.2212
    112  N         38.9310   13.6960   -2.8610 N.am  104  LEU104     -0.1963
    113  CA        38.4090   13.5510   -1.5090 C.3   104  LEU104      0.1728
    114  C         37.2720   14.5410   -1.2930 C.2   104  LEU104      0.2616
    115  O         37.4000   15.7240   -1.6180 O.2   104  LEU104     -0.2715
    116  CB        39.4730   13.6100   -0.4000 C.3   104  LEU104      0.0311
    117  CG        39.0370   13.1830    1.0320 C.3   104  LEU104      0.0022
    118  CD1       38.5840   11.7290    1.0910 C.3   104  LEU104      0.0001
    119  CD2       40.1630   13.3760    2.0110 C.3   104  LEU104      0.0001
    120  N         36.1350   14.0230   -0.8190 N.am  105  MET105     -0.1963
    121  CA        34.9310   14.7900   -0.5390 C.3   105  MET105      0.1736
    122  C         34.9140   15.0160    0.9570 C.2   105  MET105      0.2617
    123  O         35.3430   14.1390    1.7070 O.2   105  MET105     -0.2715
    124  CB        33.6830   14.0330   -1.0030 C.3   105  MET105      0.0427
    125  CG        33.7000   13.6830   -2.4870 C.3   105  MET105      0.0599
    126  SD        32.9400   14.9140   -3.5780 S.3   105  MET105     -0.1393
    127  CE        31.3280   14.4600   -3.4770 C.3   105  MET105      0.0692
    128  N         34.4750   16.2020    1.3740 N.am  106  GLY106     -0.1940
    129  CA        34.4270   16.6200    2.7730 C.3   106  GLY106      0.2014
    130  C         34.0040   15.5610    3.7730 C.2   106  GLY106      0.2639
    131  O         34.7510   15.2640    4.7150 O.2   106  GLY106     -0.2714
    132  N         32.7970   14.9800    3.5580 N.am  107  ALA107     -0.1963
    133  CA        32.1630   13.9660    4.4100 C.3   107  ALA107      0.1728
    134  C         31.1470   13.1370    3.6370 C.2   107  ALA107      0.2616
    135  O         30.7150   13.5560    2.5640 O.2   107  ALA107     -0.2715
    136  CB        31.4700   14.6500    5.5840 C.3   107  ALA107      0.0334
    137  N         30.7520   11.9710    4.1900 N.am  108  ASP108     -0.1971
    138  CA        29.7440   11.0890    3.5910 C.3   108  ASP108      0.1709
    139  C         28.3640   11.3710    4.1860 C.2   108  ASP108      0.2293
    140  O         28.2530   11.7770    5.3490 O.2   108  ASP108     -0.2864
    141  CB        30.1450    9.5910    3.6830 C.3   108  ASP108      0.1436
    142  CG        29.8130    8.8510    4.9760 C.2   108  ASP108      0.3671
    143  OD1       28.6510    8.4320    5.1340 O.co2 108  ASP108     -0.2456
    144  OD2       30.7480    8.5750    5.7640 O.co2 108  ASP108     -0.2456
    145  N         26.8600   10.2740    8.0130 N.3   111  ASN111     -0.1240
    146  CA        27.1580   11.0970    9.1910 C.3   111  ASN111      0.1653
    147  C         26.4040   12.4590    9.1050 C.2   111  ASN111      0.2266
    148  O         26.8510   13.4560    9.6870 O.2   111  ASN111     -0.2867
    149  CB        28.6930   11.2970    9.3220 C.3   111  ASN111      0.1155
    150  CG        29.5200   10.0200    9.2940 C.2   111  ASN111      0.2627
    151  OD1       29.3130    9.0840   10.0770 O.2   111  ASN111     -0.2716
    152  ND2       30.5050    9.9630    8.4080 N.am  111  ASN111     -0.0877
    153  N         26.5970    5.7540    3.0610 N.3   150  SER150     -0.1217
    154  CA        28.0550    5.6420    3.2430 C.3   150  SER150      0.1889
    155  C         28.7750    5.7150    1.9020 C.2   150  SER150      0.2288
    156  O         29.8820    6.2360    1.8450 O.2   150  SER150     -0.2866
    157  CB        28.4170    4.3380    3.9530 C.3   150  SER150      0.2089
    158  OG        27.9880    3.2070    3.2100 O.3   150  SER150     -0.2183
    159  N         29.0640   10.3500   -1.0860 N.3   153  ALA153     -0.1245
    160  CA        29.9510   11.3470   -0.4910 C.3   153  ALA153      0.1562
    161  C         29.4360   12.6940   -0.8980 C.2   153  ALA153      0.2260
    162  O         28.9070   12.8330   -2.0030 O.2   153  ALA153     -0.2867
    163  CB        31.3790   11.1520   -0.9820 C.3   153  ALA153      0.0290
    164  N         29.8660    6.4170   -5.0740 N.3   163  LEU163     -0.1231
    165  CA        30.9930    5.5420   -4.6990 C.3   163  LEU163      0.1693
    166  C         30.6010    4.0600   -4.7010 C.2   163  LEU163      0.2592
    167  O         29.4950    3.7300   -4.2620 O.2   163  LEU163     -0.2718
    168  CB        31.3990    5.8300   -3.2400 C.3   163  LEU163      0.0284
    169  CG        32.0630    7.1340   -2.8140 C.3   163  LEU163      0.0019
    170  CD1       32.5210    7.0100   -1.3620 C.3   163  LEU163      0.0001
    171  CD2       33.2850    7.4430   -3.6620 C.3   163  LEU163      0.0001
    172  N         31.5460    3.1690   -5.0720 N.am  164  ASP164     -0.1960
    173  CA        31.4380    1.6910   -5.0490 C.3   164  ASP164      0.1840
    174  C         30.6160    0.9430   -6.1070 C.2   164  ASP164      0.2622
    175  O         30.6220   -0.2990   -6.1110 O.2   164  ASP164     -0.2715
    176  CB        31.1410    1.1440   -3.6380 C.3   164  ASP164      0.1450
    177  CG        32.2330    1.3750   -2.6220 C.2   164  ASP164      0.3671
    178  OD1       33.4240    1.3090   -3.0080 O.co2 164  ASP164     -0.2456
    179  OD2       31.8990    1.5660   -1.4260 O.co2 164  ASP164     -0.2456
    180  N         29.9170    1.6670   -6.9850 N.am  165  PHE165     -0.1974
    181  CA        29.0940    1.0790   -8.0610 C.3   165  PHE165      0.1639
    182  C         29.7550   -0.0420   -8.8770 C.2   165  PHE165      0.2290
    183  O         30.9490    0.0180   -9.1710 O.2   165  PHE165     -0.2864
    184  CB        28.6120    2.1720   -9.0240 C.3   165  PHE165      0.0560
    185  CG        29.7190    3.0190   -9.6140 C.ar  165  PHE165     -0.0200
    186  CD1       30.2080    2.7630  -10.8820 C.ar  165  PHE165     -0.0042
    187  CD2       30.2420    4.1060   -8.9110 C.ar  165  PHE165     -0.0042
    188  CE1       31.2010    3.5690  -11.4350 C.ar  165  PHE165     -0.0003
    189  CE2       31.2470    4.8950   -9.4620 C.ar  165  PHE165     -0.0003
    190  CZ        31.7300    4.6060  -10.7110 C.ar  165  PHE165     -0.0000
    191  N         30.7000   -3.1390   -8.3910 N.3   167  LEU167     -0.1245
    192  CA        31.6540   -4.1180   -7.8680 C.3   167  LEU167      0.1561
    193  C         30.9870   -5.4400   -7.4490 C.2   167  LEU167      0.2260
    194  O         31.4310   -6.5120   -7.8760 O.2   167  LEU167     -0.2867
    195  CB        32.5070   -3.5450   -6.7120 C.3   167  LEU167      0.0270
    196  CG        33.5820   -2.4950   -7.0640 C.3   167  LEU167      0.0019
    197  CD1       34.1270   -1.8070   -5.8080 C.3   167  LEU167      0.0001
    198  CD2       34.7170   -3.0870   -7.8810 C.3   167  LEU167      0.0001
@<TRIPOS>BOND
     1    58    57    2
     2    55    56    1
     3    66    65    2
     4    56    57    1
     5    56    59    1
     6    62    60    1
     7    57    63   am
     8    65    64    1
     9    60    59    1
    10    60    61    1
    11    63    64    1
    12    64    67    1
    13    82    81    2
    14    83    84    1
    15    83    80    1
    16    85    84    1
    17    67    68    1
    18    81    80    1
    19    79    80    1
    20    49    48    2
    21    84    86    1
    22    48    47    1
    23    46    47    1
    24   188   186   ar
    25   188   190   ar
    26    47    50    1
    27   186   185   ar
    28    68    70    1
    29    68    69    1
    30    74    73    2
    31   190   189   ar
    32    73    72    1
    33   185   184    1
    34   185   187   ar
    35   111   110   ar
    36   111   109   ar
    37    50    51    1
    38   189   187   ar
    39   110   108   ar
    40    71    72    1
    41   183   182    2
    42   184   181    1
    43    72    75    1
    44   182   181    1
    45    94    92    1
    46    51    52    1
    47   191   192    1
    48   109   107   ar
    49   181   180    1
    50   108   107   ar
    51   198   196    1
    52   194   193    2
    53   192   193    1
    54   192   195    1
    55    93    92    1
    56    77    75    1
    57    92    91    1
    58    75    76    1
    59   107   106    1
    60   100    99    1
    61    52    53   ar
    62    52    54   ar
    63   196   195    1
    64   196   197    1
    65    78    76    1
    66   180   174   am
    67    91    88    1
    68    88    87    1
    69    88    89    1
    70    96    99    1
    71    96    95    1
    72    96    97    1
    73    99   101    1
    74   175   174    2
    75   174   173    1
    76    89    90    2
    77   106   103    1
    78   102    97   am
    79   102   103    1
    80    97    98    2
    81   103   104    1
    82   164   165    1
    83   172   173    1
    84   172   166   am
    85   173   176    1
    86   166   165    1
    87   166   167    2
    88   165   168    1
    89    45    44    1
    90   104   105    2
    91   104   112   am
    92   171   169    1
    93   176   177    1
    94   126   127    1
    95   126   125    1
    96    28    27    2
    97   168   169    1
    98    40    39    2
    99   178   177   ar
   100    44    43    1
   101    43    42    1
   102   112   113    1
   103   169   170    1
   104    41    42    1
   105    41    38    1
   106   177   179   ar
   107   125   124    1
   108    37    38    1
   109    37    32   am
   110    27    26    1
   111    27    30   am
   112    35    34    1
   113    39    38    1
   114    25    26    1
   115   162   161    2
   116    31    30    1
   117    31    34    1
   118    31    32    1
   119    29    26    1
   120   115   114    2
   121    36    34    1
   122   113   114    1
   123   113   116    1
   124    32    33    2
   125   114   120   am
   126   159   160    1
   127   124   121    1
   128   163   160    1
   129   161   160    1
   130   120   121    1
   131   121   122    1
   132   116   117    1
   133    16    17    2
   134    16    15    1
   135    23    22    1
   136   122   128   am
   137   122   123    2
   138   117   118    1
   139   117   119    1
   140    24    22    1
   141   128   129    1
   142    15    14    1
   143    22    19    1
   144   156   155    2
   145   155   154    1
   146    19    18    1
   147    19    20    1
   148   135   134    2
   149    14    10   am
   150   129   130    1
   151    20    21    2
   152   153   154    1
   153   158   157    1
   154   154   157    1
   155   132   130   am
   156   132   133    1
   157   138   141    1
   158   138   139    1
   159   138   137    1
   160   134   137   am
   161   134   133    1
   162   141   142    1
   163   130   131    2
   164    10    11    2
   165    10     9    1
   166   139   140    2
   167     7     5    1
   168   133   136    1
   169     9    12    1
   170     9     8    1
   171   142   143   ar
   172   142   144   ar
   173     6     5    1
   174    12    13    1
   175     5     2    1
   176     1     2    1
   177     2     3    1
   178     3     4    2
   179   145   146    1
   180   152   150   am
   181   147   146    1
   182   147   148    2
   183   146   149    1
   184   150   149    1
   185   150   151    2
