@<TRIPOS>MOLECULE
tmp/3mvmA00.pdb
 180 169 0 0 0
SMALL
GASTEIGER

@<TRIPOS>ATOM
      1  N         -7.3760    5.5400   29.5960 N.3    27  VAL27      -0.1245
      2  CA        -6.0240    6.0930   29.7060 C.3    27  VAL27       0.1561
      3  C         -4.9980    5.0210   29.3380 C.2    27  VAL27       0.2260
      4  O         -5.1490    3.8740   29.7470 O.2    27  VAL27      -0.2867
      5  CB        -5.7890    6.7040   31.1190 C.3    27  VAL27       0.0252
      6  CG1       -4.3060    6.9540   31.3960 C.3    27  VAL27       0.0019
      7  CG2       -6.5930    7.9830   31.2990 C.3    27  VAL27       0.0019
      8  N         -7.7030    1.4910   33.3920 N.3    30  VAL30      -0.1245
      9  CA        -7.7310    2.8380   33.9700 C.3    30  VAL30       0.1561
     10  C         -8.4370    3.8480   33.0520 C.2    30  VAL30       0.2260
     11  O         -8.1510    3.9010   31.8430 O.2    30  VAL30      -0.2867
     12  CB        -6.3060    3.3310   34.3750 C.3    30  VAL30       0.0252
     13  CG1       -6.3860    4.6820   35.0820 C.3    30  VAL30       0.0019
     14  CG2       -5.5890    2.3050   35.2720 C.3    30  VAL30       0.0019
     15  N         -8.2330    9.5050   38.4230 N.3    43  ALA43      -0.1231
     16  CA        -7.9550    8.2580   37.6760 C.3    43  ALA43       0.1694
     17  C         -8.7820    7.1860   38.3890 C.2    43  ALA43       0.2592
     18  O         -8.7250    7.0950   39.6030 O.2    43  ALA43      -0.2718
     19  CB        -6.4750    7.9020   37.6820 C.3    43  ALA43       0.0304
     20  N         -9.5980    6.4490   37.6410 N.am   44  VAL44      -0.1966
     21  CA       -10.4380    5.3760   38.2030 C.3    44  VAL44       0.1727
     22  C         -9.9110    4.0630   37.6260 C.2    44  VAL44       0.2616
     23  O         -9.8840    3.9000   36.4000 O.2    44  VAL44      -0.2715
     24  CB       -11.9480    5.5870   37.8800 C.3    44  VAL44       0.0290
     25  CG1      -12.8280    4.4580   38.4840 C.3    44  VAL44       0.0023
     26  CG2      -12.4340    6.9720   38.3570 C.3    44  VAL44       0.0023
     27  N         -9.4660    3.1550   38.4900 N.am   45  LYS45      -0.1977
     28  CA        -8.9840    1.8330   38.0650 C.3    45  LYS45       0.1596
     29  C        -10.0150    0.7830   38.4130 C.2    45  LYS45       0.2287
     30  O        -10.4280    0.6850   39.5820 O.2    45  LYS45      -0.2864
     31  CB        -7.6500    1.4690   38.7260 C.3    45  LYS45       0.0298
     32  CG        -7.1680    0.0310   38.3420 C.3    45  LYS45       0.0038
     33  CD        -5.7120   -0.2250   38.6100 C.3    45  LYS45       0.0206
     34  CE        -5.4290   -0.2970   40.0890 C.3    45  LYS45       0.1093
     35  NZ        -4.0040   -0.5660   40.3720 N.3    45  LYS45      -0.1314
     36  N         -3.3930   -4.5080   47.6610 N.3    63  GLU63      -0.1245
     37  CA        -3.4690   -3.1520   47.0940 C.3    63  GLU63       0.1567
     38  C         -4.2010   -2.2190   48.0310 C.2    63  GLU63       0.2260
     39  O         -3.7400   -1.1150   48.3130 O.2    63  GLU63      -0.2867
     40  CB        -4.1760   -3.1560   45.7230 C.3    63  GLU63       0.0388
     41  CG        -4.3280   -1.7760   45.0980 C.3    63  GLU63       0.1160
     42  CD        -4.3860   -1.7480   43.5820 C.2    63  GLU63       0.3649
     43  OE1       -4.0790   -0.6920   42.9920 O.co2  63  GLU63      -0.2457
     44  OE2       -4.7410   -2.7820   42.9810 O.co2  63  GLU63      -0.2457
     45  N         -2.1540   -1.6530   51.2570 N.3    66  LEU66      -0.1231
     46  CA        -1.0280   -0.7280   51.0160 C.3    66  LEU66       0.1693
     47  C         -1.5310    0.7180   50.9030 C.2    66  LEU66       0.2591
     48  O         -1.0280    1.6080   51.6060 O.2    66  LEU66      -0.2718
     49  CB        -0.2240   -1.1150   49.7620 C.3    66  LEU66       0.0284
     50  CG         0.5610   -2.4140   49.7970 C.3    66  LEU66       0.0019
     51  CD1        0.9560   -2.8000   48.4140 C.3    66  LEU66       0.0001
     52  CD2        1.8150   -2.3230   50.6870 C.3    66  LEU66       0.0001
     53  N         -2.5450    0.9400   50.0600 N.am   67  LEU67      -0.1980
     54  CA        -3.1450    2.2610   49.8220 C.3    67  LEU67       0.1596
     55  C         -3.7780    2.9220   51.0390 C.2    67  LEU67       0.2287
     56  O         -3.7240    4.1540   51.1640 O.2    67  LEU67      -0.2864
     57  CB        -4.1560    2.2230   48.6660 C.3    67  LEU67       0.0297
     58  CG        -3.5330    2.1000   47.2660 C.3    67  LEU67       0.0022
     59  CD1       -4.5620    1.7420   46.2670 C.3    67  LEU67       0.0001
     60  CD2       -2.7780    3.3680   46.8610 C.3    67  LEU67       0.0001
     61  N          1.4650    7.7840   45.5700 N.3    76  ILE76      -0.1245
     62  CA         0.0470    8.0100   45.2350 C.3    76  ILE76       0.1561
     63  C         -0.9030    7.6870   46.4270 C.2    76  ILE76       0.2260
     64  O         -0.6820    6.7260   47.1460 O.2    76  ILE76      -0.2867
     65  CB        -0.3840    7.2480   43.9370 C.3    76  ILE76       0.0252
     66  CG1       -1.6710    7.8690   43.2810 C.3    76  ILE76       0.0019
     67  CG2       -0.5560    5.7390   44.2000 C.3    76  ILE76       0.0019
     68  CD1       -1.5340    9.2290   42.6340 C.3    76  ILE76       0.0001
     69  N        -10.9170    1.6780   42.1740 N.3    96  LEU96      -0.1245
     70  CA       -10.0470    2.5000   43.0390 C.3    96  LEU96       0.1561
     71  C         -9.8420    3.8410   42.3640 C.2    96  LEU96       0.2260
     72  O         -9.6230    3.9010   41.1310 O.2    96  LEU96      -0.2867
     73  CB        -8.6890    1.8070   43.2400 C.3    96  LEU96       0.0270
     74  CG        -8.6660    0.4550   43.9700 C.3    96  LEU96       0.0019
     75  CD1       -9.2900   -0.6630   43.1770 C.3    96  LEU96       0.0001
     76  CD2       -7.3190   -0.0690   43.9070 C.3    96  LEU96       0.0001
     77  N         -7.8460    7.7060   42.4050 N.3    98  THR98      -0.1203
     78  CA        -6.7290    8.5520   42.8190 C.3    98  THR98       0.1994
     79  C         -6.8480    9.8520   42.0290 C.2    98  THR98       0.2618
     80  O         -7.6540    9.9270   41.0970 O.2    98  THR98      -0.2717
     81  CB        -5.3470    7.9080   42.5390 C.3    98  THR98       0.1784
     82  OG1       -5.0510    7.9520   41.1540 O.3    98  THR98      -0.2211
     83  CG2       -5.1860    6.5020   43.1390 C.3    98  THR98       0.0376
     84  N         -6.0030   10.8590   42.3590 N.am   99  HIS99      -0.1961
     85  CA        -5.9110   12.0800   41.5870 C.3    99  HIS99       0.1787
     86  C         -5.3380   11.7070   40.2130 C.2    99  HIS99       0.2620
     87  O         -4.5330   10.7750   40.1080 O.2    99  HIS99      -0.2715
     88  CB        -4.9390   13.0710   42.2610 C.3    99  HIS99       0.0785
     89  CG        -5.4930   13.8030   43.4590 C.ar   99  HIS99       0.0821
     90  ND1       -6.5470   14.6600   43.5490 N.ar   99  HIS99      -0.2267
     91  CD2       -4.8710   13.7400   44.6960 C.ar   99  HIS99       0.1154
     92  CE1       -6.6150   15.0850   44.8590 C.ar   99  HIS99       0.1986
     93  NE2       -5.5910   14.5130   45.5050 N.ar   99  HIS99      -0.2212
     94  N         -5.7780   12.3920   39.1620 N.am  100  LEU100     -0.1963
     95  CA        -5.2240   12.2250   37.8200 C.3   100  LEU100      0.1728
     96  C         -4.0220   13.2110   37.7700 C.2   100  LEU100      0.2616
     97  O         -4.1640   14.3770   38.1730 O.2   100  LEU100     -0.2715
     98  CB        -6.2730   12.6500   36.7740 C.3   100  LEU100      0.0311
     99  CG        -6.3320   12.0030   35.3390 C.3   100  LEU100      0.0022
    100  CD1       -6.4440   12.9540   34.2690 C.3   100  LEU100      0.0001
    101  CD2       -5.4130   10.8040   35.0940 C.3   100  LEU100      0.0001
    102  N         -2.8480   12.7320   37.3100 N.am  101  MET101     -0.1963
    103  CA        -1.6210   13.5390   37.1920 C.3   101  MET101      0.1736
    104  C         -1.5080   14.0850   35.7870 C.2   101  MET101      0.2617
    105  O         -2.2150   13.6360   34.8880 O.2   101  MET101     -0.2715
    106  CB        -0.3770   12.6870   37.4910 C.3   101  MET101      0.0427
    107  CG        -0.4960   11.8210   38.7130 C.3   101  MET101      0.0599
    108  SD        -0.2140   12.6690   40.2760 S.3   101  MET101     -0.1393
    109  CE         1.5350   13.0570   40.1890 C.3   101  MET101      0.0692
    110  N         -0.5790   15.0080   35.5860 N.am  102  GLY102     -0.1940
    111  CA        -0.3060   15.5920   34.2740 C.3   102  GLY102      0.2014
    112  C          0.2330   14.6250   33.2320 C.2   102  GLY102      0.2639
    113  O         -0.1780   14.6860   32.0720 O.2   102  GLY102     -0.2714
    114  N          1.1820   13.7380   33.6210 N.am  103  ALA103     -0.1963
    115  CA         1.8130   12.7680   32.7100 C.3   103  ALA103      0.1728
    116  C          2.6790   11.7720   33.4610 C.2   103  ALA103      0.2616
    117  O          3.0740   12.0250   34.5970 O.2   103  ALA103     -0.2715
    118  CB         2.6890   13.4920   31.6810 C.3   103  ALA103      0.0334
    119  N          3.0150   10.6680   32.7950 N.am  104  ASP104     -0.1971
    120  CA         3.9190    9.6610   33.3570 C.3   104  ASP104      0.1709
    121  C          5.3070    9.9790   32.8110 C.2   104  ASP104      0.2293
    122  O          5.4060   10.4270   31.6560 O.2   104  ASP104     -0.2864
    123  CB         3.4620    8.2250   32.9810 C.3   104  ASP104      0.1436
    124  CG         3.7170    7.7990   31.5510 C.2   104  ASP104      0.3671
    125  OD1        3.3330    8.5480   30.6290 O.co2 104  ASP104     -0.2456
    126  OD2        4.2890    6.7130   31.3540 O.co2 104  ASP104     -0.2456
    127  N          6.4620    9.5870   28.6110 N.3   107  ASN107     -0.1240
    128  CA         6.0930   10.6170   27.6280 C.3   107  ASN107      0.1653
    129  C          6.9150   11.9140   27.7310 C.2   107  ASN107      0.2266
    130  O          7.2430   12.5060   26.7020 O.2   107  ASN107     -0.2867
    131  CB         4.5850   10.8970   27.6790 C.3   107  ASN107      0.1155
    132  CG         3.7210    9.6490   27.6420 C.2   107  ASN107      0.2627
    133  OD1        4.1000    8.6060   27.0890 O.2   107  ASN107     -0.2716
    134  ND2        2.5470    9.7210   28.2550 N.am  107  ASN107     -0.0877
    135  N          6.9600    4.4020   33.5910 N.3   146  SER146     -0.1217
    136  CA         5.4870    4.3430   33.4700 C.3   146  SER146      0.1889
    137  C          4.7190    4.3330   34.8090 C.2   146  SER146      0.2288
    138  O          3.5520    4.6890   34.8250 O.2   146  SER146     -0.2866
    139  CB         5.0390    3.2380   32.5220 C.3   146  SER146      0.2089
    140  OG         5.2380    1.9540   33.0900 O.3   146  SER146     -0.2183
    141  N          4.4650    9.1120   38.0940 N.3   149  ALA149     -0.1245
    142  CA         3.5840   10.1480   37.5660 C.3   149  ALA149      0.1562
    143  C          4.0550   11.5280   38.0140 C.2   149  ALA149      0.2260
    144  O          4.4180   11.7240   39.1700 O.2   149  ALA149     -0.2867
    145  CB         2.1680    9.9000   38.0610 C.3   149  ALA149      0.0290
    146  N          3.5890    5.1810   41.7860 N.3   159  LEU159     -0.1231
    147  CA         2.4130    4.3300   41.7120 C.3   159  LEU159      0.1693
    148  C          2.8310    2.8410   41.8140 C.2   159  LEU159      0.2592
    149  O          3.9690    2.4910   41.4900 O.2   159  LEU159     -0.2718
    150  CB         1.7060    4.4930   40.3590 C.3   159  LEU159      0.0284
    151  CG         1.5660    5.8750   39.6970 C.3   159  LEU159      0.0019
    152  CD1        0.7760    5.7390   38.4210 C.3   159  LEU159      0.0001
    153  CD2        0.8250    6.8670   40.5670 C.3   159  LEU159      0.0001
    154  N          1.8620    1.9760   42.2190 N.am  160  ASP160     -0.1960
    155  CA         1.9330    0.5040   42.1980 C.3   160  ASP160      0.1840
    156  C          3.0500   -0.1060   43.0270 C.2   160  ASP160      0.2622
    157  O          3.5500   -1.1710   42.6930 O.2   160  ASP160     -0.2715
    158  CB         2.0310    0.0310   40.7320 C.3   160  ASP160      0.1450
    159  CG         0.8900    0.5060   39.8430 C.2   160  ASP160      0.3671
    160  OD1       -0.1810    0.8970   40.3970 O.co2 160  ASP160     -0.2456
    161  OD2        1.0660    0.5100   38.5970 O.co2 160  ASP160     -0.2456
    162  N          3.4360    0.5520   44.1050 N.am  161  PHE161     -0.1974
    163  CA         4.5300    0.0680   44.9400 C.3   161  PHE161      0.1639
    164  C          4.0500   -1.1530   45.7570 C.2   161  PHE161      0.2290
    165  O          2.9270   -1.1670   46.2350 O.2   161  PHE161     -0.2864
    166  CB         4.9940    1.1950   45.8740 C.3   161  PHE161      0.0560
    167  CG         3.8510    1.8050   46.6700 C.ar  161  PHE161     -0.0200
    168  CD1        3.5070    1.3070   47.9390 C.ar  161  PHE161     -0.0042
    169  CD2        3.0700    2.8320   46.1280 C.ar  161  PHE161     -0.0042
    170  CE1        2.3840    1.8080   48.6420 C.ar  161  PHE161     -0.0003
    171  CE2        1.9590    3.3440   46.8340 C.ar  161  PHE161     -0.0003
    172  CZ         1.6330    2.8370   48.0970 C.ar  161  PHE161     -0.0000
    173  N          2.9840   -3.9920   44.9830 N.3   163  LEU163     -0.1245
    174  CA         1.9460   -4.8360   44.3530 C.3   163  LEU163      0.1561
    175  C          2.4820   -6.0670   43.6920 C.2   163  LEU163      0.2260
    176  O          2.0220   -7.1830   43.9600 O.2   163  LEU163     -0.2867
    177  CB         1.1520   -4.0610   43.2800 C.3   163  LEU163      0.0270
    178  CG        -0.1840   -3.4610   43.5950 C.3   163  LEU163      0.0019
    179  CD1       -0.8410   -2.9690   42.3020 C.3   163  LEU163      0.0001
    180  CD2       -1.1120   -4.4600   44.2880 C.3   163  LEU163      0.0001
@<TRIPOS>BOND
     1   130   129    2
     2   133   132    2
     3   128   131    1
     4   128   129    1
     5   128   127    1
     6   132   131    1
     7   132   134   am
     8     3     2    1
     9     3     4    2
    10     1     2    1
    11     2     5    1
    12   125   124   ar
    13     5     7    1
    14     5     6    1
    15   126   124   ar
    16   124   123    1
    17   122   121    2
    18   118   115    1
    19    11    10    2
    20   113   112    2
    21   139   140    1
    22   139   136    1
    23   115   116    1
    24   115   114    1
    25   119   120    1
    26   119   116   am
    27   121   120    1
    28   123   120    1
    29    10     9    1
    30   112   114   am
    31   112   111    1
    32     8     9    1
    33   116   117    2
    34   136   135    1
    35   136   137    1
    36     9    12    1
    37   100    99    1
    38   111   110    1
    39    12    13    1
    40    12    14    1
    41   137   138    2
    42   105   104    2
    43   101    99    1
    44    99    98    1
    45   110   104   am
    46   104   103    1
    47    23    22    2
    48    98    95    1
    49   103   102    1
    50   103   106    1
    51   102    96   am
    52   106   107    1
    53   142   143    1
    54   142   145    1
    55   142   141    1
    56    22    21    1
    57    22    27   am
    58    20    21    1
    59    20    17   am
    60    16    19    1
    61    16    17    1
    62    16    15    1
    63    96    95    1
    64    96    97    2
    65    95    94    1
    66    24    21    1
    67    24    26    1
    68    24    25    1
    69   143   144    2
    70    28    29    1
    71    28    27    1
    72    28    31    1
    73    32    33    1
    74    32    31    1
    75    17    18    2
    76    29    30    2
    77   152   151    1
    78   161   159   ar
    79    33    34    1
    80   107   108    1
    81    94    86   am
    82   151   150    1
    83   151   153    1
    84   159   160   ar
    85   159   158    1
    86    34    35    1
    87    87    86    2
    88   109   108    1
    89    86    85    1
    90   150   147    1
    91   158   155    1
    92    80    79    2
    93    72    71    2
    94    82    81    1
    95   149   148    2
    96    85    88    1
    97    85    84    1
    98   147   146    1
    99   147   148    1
   100   148   154   am
   101    79    84   am
   102    79    78    1
   103    69    70    1
   104   155   154    1
   105   155   156    1
   106    88    89    1
   107   179   178    1
   108    71    70    1
   109    77    78    1
   110    81    78    1
   111    81    83    1
   112    68    66    1
   113   157   156    2
   114    44    42   ar
   115    43    42   ar
   116   156   162   am
   117    70    73    1
   118    75    74    1
   119    73    74    1
   120   177   178    1
   121   177   174    1
   122    66    65    1
   123    89    90   ar
   124    89    91   ar
   125    90    92   ar
   126    42    41    1
   127   178   180    1
   128   175   176    2
   129   175   174    1
   130    76    74    1
   131    65    67    1
   132    65    62    1
   133   162   163    1
   134   174   173    1
   135    91    93   ar
   136    92    93   ar
   137   163   164    1
   138   163   166    1
   139    41    40    1
   140    62    61    1
   141    62    63    1
   142    40    37    1
   143   164   165    2
   144   166   167    1
   145   169   167   ar
   146   169   171   ar
   147    59    58    1
   148    63    64    2
   149   167   168   ar
   150   171   172   ar
   151    60    58    1
   152    37    36    1
   153    37    38    1
   154    58    57    1
   155   168   170   ar
   156    38    39    2
   157   172   170   ar
   158    51    50    1
   159    57    54    1
   160    49    50    1
   161    49    46    1
   162    50    52    1
   163    54    53    1
   164    54    55    1
   165    53    47   am
   166    47    46    1
   167    47    48    2
   168    46    45    1
   169    55    56    2
