@<TRIPOS>MOLECULE
tmp/3mw1A00.pdb
 178 165 0 0 0
SMALL
GASTEIGER

@<TRIPOS>ATOM
      1  N         24.3570   10.5970   40.5030 N.3    27  VAL27      -0.1231
      2  CA        25.0980   10.7890   39.2730 C.3    27  VAL27       0.1692
      3  C         25.3010   12.2900   39.0740 C.2    27  VAL27       0.2592
      4  O         26.4360   12.7480   38.9170 O.2    27  VAL27      -0.2718
      5  CB        24.3470   10.1700   38.0680 C.3    27  VAL27       0.0266
      6  CG1       24.9370   10.6700   36.7340 C.3    27  VAL27       0.0020
      7  CG2       24.3780    8.6460   38.1500 C.3    27  VAL27       0.0020
      8  N         24.1910   13.0370   39.0990 N.am   28  GLY28      -0.1957
      9  CA        24.2140   14.4910   38.9620 C.3    28  GLY28       0.1869
     10  C         23.1290   15.1560   39.7760 C.2    28  GLY28       0.2309
     11  O         22.9840   16.3710   39.7330 O.2    28  GLY28      -0.2863
     12  N         20.0190   13.7480   38.6600 N.3    30  VAL30      -0.1245
     13  CA        19.8430   12.4760   37.9500 C.3    30  VAL30       0.1561
     14  C         20.3120   11.2720   38.7930 C.2    30  VAL30       0.2260
     15  O         21.1910   11.3980   39.6600 O.2    30  VAL30      -0.2867
     16  CB        20.5990   12.4800   36.5940 C.3    30  VAL30       0.0252
     17  CG1       20.3730   11.1830   35.8330 C.3    30  VAL30       0.0019
     18  CG2       20.1610   13.6650   35.7560 C.3    30  VAL30       0.0019
     19  N         21.1640    6.8520   38.3580 N.3    32  ALA32      -0.1245
     20  CA        21.1290    5.4860   37.8400 C.3    32  ALA32       0.1562
     21  C         20.1010    4.7250   38.6610 C.2    32  ALA32       0.2260
     22  O         19.8910    5.0160   39.8400 O.2    32  ALA32      -0.2867
     23  CB        22.4890    4.8220   37.9780 C.3    32  ALA32       0.0290
     24  N         18.2880    5.7580   33.5050 N.3    43  ALA43      -0.1231
     25  CA        18.5710    7.0550   34.1040 C.3    43  ALA43       0.1694
     26  C         17.2460    7.7290   34.4560 C.2    43  ALA43       0.2592
     27  O         16.2750    7.6150   33.7220 O.2    43  ALA43      -0.2718
     28  CB        19.3590    7.9010   33.1590 C.3    43  ALA43       0.0304
     29  N         17.2110    8.4120   35.5950 N.am   44  VAL44      -0.1966
     30  CA        15.9900    9.0120   36.1290 C.3    44  VAL44       0.1727
     31  C         16.2800   10.4630   36.4800 C.2    44  VAL44       0.2616
     32  O         17.2720   10.7480   37.1400 O.2    44  VAL44      -0.2715
     33  CB        15.5280    8.2900   37.4140 C.3    44  VAL44       0.0290
     34  CG1       14.2150    8.8910   37.9350 C.3    44  VAL44       0.0023
     35  CG2       15.3910    6.7850   37.1720 C.3    44  VAL44       0.0023
     36  N         15.4120   11.3760   36.0570 N.am   45  LYS45      -0.1977
     37  CA        15.6530   12.7980   36.2570 C.3    45  LYS45       0.1596
     38  C         14.4690   13.4750   36.9180 C.2    45  LYS45       0.2287
     39  O         13.3460   13.3670   36.4430 O.2    45  LYS45      -0.2864
     40  CB        15.9380   13.4620   34.9180 C.3    45  LYS45       0.0298
     41  CG        16.1650   14.9600   35.0260 C.3    45  LYS45       0.0038
     42  CD        17.0600   15.5010   33.9100 C.3    45  LYS45       0.0206
     43  CE        16.3190   15.7990   32.6370 C.3    45  LYS45       0.1093
     44  NZ        16.9840   16.9470   31.9700 N.3    45  LYS45      -0.1314
     45  N         10.2940   20.4710   27.5130 N.3    63  GLU63      -0.1245
     46  CA        11.2040   19.3360   27.6530 C.3    63  GLU63       0.1567
     47  C         10.4390   18.0210   27.5570 C.2    63  GLU63       0.2260
     48  O         10.8220   17.1180   26.8010 O.2    63  GLU63      -0.2867
     49  CB        12.0030   19.3960   28.9550 C.3    63  GLU63       0.0388
     50  CG        13.1380   18.3730   28.9670 C.3    63  GLU63       0.1160
     51  CD        14.0640   18.4670   30.1710 C.2    63  GLU63       0.3649
     52  OE1       13.8070   19.2970   31.0660 O.co2  63  GLU63      -0.2457
     53  OE2       15.0560   17.7060   30.2110 O.co2  63  GLU63      -0.2457
     54  N         10.9200   15.0890   24.8190 N.3    67  LEU67      -0.1245
     55  CA        11.1510   13.7170   25.2340 C.3    67  LEU67       0.1561
     56  C          9.9830   12.7860   24.8480 C.2    67  LEU67       0.2260
     57  O         10.2100   11.6350   24.4620 O.2    67  LEU67      -0.2867
     58  CB        11.4150   13.6820   26.7420 C.3    67  LEU67       0.0270
     59  CG        12.8780   13.7840   27.2050 C.3    67  LEU67       0.0019
     60  CD1       13.8220   14.2930   26.1150 C.3    67  LEU67       0.0001
     61  CD2       13.0110   14.6240   28.4690 C.3    67  LEU67       0.0001
     62  N         17.5140   10.4680   22.6950 N.3    76  ILE76      -0.1245
     63  CA        17.1120   10.2180   24.0810 C.3    76  ILE76       0.1561
     64  C         15.5890   10.0980   24.1950 C.2    76  ILE76       0.2260
     65  O         14.8630   11.0230   23.8550 O.2    76  ILE76      -0.2867
     66  CB        17.6500   11.3360   25.0260 C.3    76  ILE76       0.0252
     67  CG1       17.4770   10.9550   26.4960 C.3    76  ILE76       0.0019
     68  CG2       16.9660   12.6840   24.7440 C.3    76  ILE76       0.0019
     69  CD1       16.0740   11.2000   27.0290 C.3    76  ILE76       0.0001
     70  N         11.8250    8.4340   26.2080 N.3    78  LEU78      -0.1245
     71  CA        11.1670    8.2450   27.4940 C.3    78  LEU78       0.1561
     72  C         10.6100    6.8430   27.5640 C.2    78  LEU78       0.2260
     73  O          9.6780    6.4980   26.8220 O.2    78  LEU78      -0.2867
     74  CB        10.0080    9.2300   27.6900 C.3    78  LEU78       0.0270
     75  CG        10.2710   10.5950   28.3180 C.3    78  LEU78       0.0019
     76  CD1        9.0020   11.4020   28.2430 C.3    78  LEU78       0.0001
     77  CD2       10.7360   10.4970   29.7540 C.3    78  LEU78       0.0001
     78  N         11.6120   11.9300   34.9770 N.3    96  LEU96      -0.1245
     79  CA        11.7210   11.5280   33.5820 C.3    96  LEU96       0.1561
     80  C         12.6810   10.3590   33.4660 C.2    96  LEU96       0.2260
     81  O         13.8560   10.5000   33.7940 O.2    96  LEU96      -0.2867
     82  CB        12.2390   12.6960   32.7450 C.3    96  LEU96       0.0270
     83  CG        11.3210   13.9080   32.6780 C.3    96  LEU96       0.0019
     84  CD1       12.1220   15.1610   32.3630 C.3    96  LEU96       0.0001
     85  CD2       10.2270   13.6620   31.6690 C.3    96  LEU96       0.0001
     86  N         14.7300    7.3340   31.3950 N.3    98  THR98      -0.1203
     87  CA        15.3350    7.0090   30.1100 C.3    98  THR98       0.1994
     88  C         16.2880    5.8320   30.2800 C.2    98  THR98       0.2618
     89  O         16.6630    5.4850   31.3950 O.2    98  THR98      -0.2717
     90  CB        16.1700    8.2060   29.5640 C.3    98  THR98       0.1784
     91  OG1       15.4660    9.4280   29.7770 O.3    98  THR98      -0.2211
     92  CG2       16.4380    8.0560   28.0840 C.3    98  THR98       0.0376
     93  N         16.6870    5.2380   29.1600 N.am   99  HIS99      -0.1961
     94  CA        17.7740    4.2750   29.1420 C.3    99  HIS99       0.1787
     95  C         19.0080    4.8380   29.8020 C.2    99  HIS99       0.2620
     96  O         19.2640    6.0270   29.6850 O.2    99  HIS99      -0.2715
     97  CB        18.1400    3.9280   27.7140 C.3    99  HIS99       0.0785
     98  CG        17.0550    3.2270   26.9810 C.ar   99  HIS99       0.0821
     99  ND1       16.2120    3.8810   26.1120 N.ar   99  HIS99      -0.2267
    100  CD2       16.6550    1.9350   27.0050 C.ar   99  HIS99       0.1154
    101  CE1       15.3450    3.0150   25.6160 C.ar   99  HIS99       0.1986
    102  NE2       15.5930    1.8270   26.1420 N.ar   99  HIS99      -0.2212
    103  N         19.7580    3.9740   30.4920 N.am  100  LEU100     -0.1963
    104  CA        21.0630    4.3240   31.0550 C.3   100  LEU100      0.1728
    105  C         22.1120    4.0500   30.0090 C.2   100  LEU100      0.2616
    106  O         22.0820    3.0040   29.3590 O.2   100  LEU100     -0.2715
    107  CB        21.3760    3.4850   32.2890 C.3   100  LEU100      0.0311
    108  CG        22.7740    3.6540   32.8900 C.3   100  LEU100      0.0022
    109  CD1       22.9040    4.9970   33.6040 C.3   100  LEU100      0.0001
    110  CD2       23.0780    2.4980   33.8430 C.3   100  LEU100      0.0001
    111  N         23.0390    4.9890   29.8500 N.am  101  MET101     -0.1963
    112  CA        24.0950    4.8840   28.8490 C.3   101  MET101      0.1736
    113  C         25.4470    4.8520   29.5420 C.2   101  MET101      0.2617
    114  O         26.2730    3.9850   29.2480 O.2   101  MET101     -0.2715
    115  CB        24.0100    6.0410   27.8520 C.3   101  MET101      0.0427
    116  CG        22.7430    6.0460   27.0180 C.3   101  MET101      0.0599
    117  SD        22.7630    4.8810   25.6320 S.3   101  MET101     -0.1393
    118  CE        22.0360    3.4230   26.3730 C.3   101  MET101      0.0692
    119  N         25.6740    5.8020   30.4450 N.am  102  GLY102     -0.1940
    120  CA        26.7680    5.6990   31.4070 C.3   102  GLY102      0.2014
    121  C         27.9150    6.6620   31.2320 C.2   102  GLY102      0.2639
    122  O         28.5390    7.0670   32.2120 O.2   102  GLY102     -0.2714
    123  N         28.2120    7.0030   29.9840 N.am  103  ALA103     -0.1963
    124  CA        29.2100    8.0280   29.6740 C.3   103  ALA103      0.1728
    125  C         28.7160    8.9420   28.5550 C.2   103  ALA103      0.2616
    126  O         27.6000    8.7780   28.0420 O.2   103  ALA103     -0.2715
    127  CB        30.5290    7.3770   29.2790 C.3   103  ALA103      0.0334
    128  N         29.5420    9.9190   28.2070 N.am  104  ASP104     -0.1971
    129  CA        29.3860   10.6250   26.9450 C.3   104  ASP104      0.1709
    130  C         30.6970   10.5740   26.1680 C.2   104  ASP104      0.2293
    131  O         31.6770    9.9830   26.6310 O.2   104  ASP104     -0.2864
    132  CB        28.8910   12.0640   27.1620 C.3   104  ASP104      0.1436
    133  CG        29.7450   12.8450   28.1140 C.2   104  ASP104      0.3671
    134  OD1       30.9800   12.7370   28.0320 O.co2 104  ASP104     -0.2456
    135  OD2       29.1730   13.5880   28.9360 O.co2 104  ASP104     -0.2456
    136  N         33.9180   11.6120   28.1120 N.3   107  ASN107     -0.1240
    137  CA        34.4170   10.5430   28.9810 C.3   107  ASN107      0.1653
    138  C         34.7850    9.2670   28.2140 C.2   107  ASN107      0.2266
    139  O         34.7040    8.1740   28.7870 O.2   107  ASN107     -0.2867
    140  CB        33.3800   10.1590   30.0580 C.3   107  ASN107      0.1155
    141  CG        32.7590   11.3580   30.7420 C.2   107  ASN107      0.2627
    142  OD1       33.4600   12.2390   31.2440 O.2   107  ASN107     -0.2716
    143  ND2       31.4300   11.3950   30.7700 N.am  107  ASN107     -0.0877
    144  N         29.3430   16.4290   24.9650 N.3   146  SER146     -0.1202
    145  CA        28.7140   16.2020   26.2630 C.3   146  SER146      0.2020
    146  C         27.2240   15.9080   26.1460 C.2   146  SER146      0.2618
    147  O         26.6140   15.4590   27.0990 O.2   146  SER146     -0.2717
    148  CB        28.9300   17.4050   27.1920 C.3   146  SER146      0.2103
    149  OG        27.9770   18.4460   26.9620 O.3   146  SER146     -0.2182
    150  N         26.6380   16.1880   24.9890 N.am  147  ASN147     -0.1974
    151  CA        25.2220   15.9400   24.7490 C.3   147  ASN147      0.1688
    152  C         25.0240   14.6920   23.8830 C.2   147  ASN147      0.2292
    153  O         24.0020   14.5370   23.2140 O.2   147  ASN147     -0.2864
    154  CB        24.5880   17.1760   24.0850 C.3   147  ASN147      0.1181
    155  CG        24.3920   18.3560   25.0610 C.2   147  ASN147      0.2629
    156  OD1       23.8140   19.3830   24.6840 O.2   147  ASN147     -0.2716
    157  ND2       24.8680   18.2160   26.3080 N.am  147  ASN147     -0.0877
    158  N         25.3250   10.6690   24.5630 N.3   149  ALA149     -0.1245
    159  CA        25.5650    9.5750   25.5030 C.3   149  ALA149      0.1562
    160  C         26.0260    8.3250   24.7610 C.2   149  ALA149      0.2260
    161  O         25.3640    7.8860   23.8250 O.2   149  ALA149     -0.2867
    162  CB        24.3040    9.2780   26.3060 C.3   149  ALA149      0.0290
    163  N         21.2320   13.7700   23.1420 N.3   159  LEU159     -0.1231
    164  CA        20.7400   14.1920   24.4380 C.3   159  LEU159      0.1693
    165  C         20.5360   15.7120   24.4600 C.2   159  LEU159      0.2592
    166  O         20.9720   16.4060   23.5480 O.2   159  LEU159     -0.2718
    167  CB        21.8000   13.8200   25.4740 C.3   159  LEU159      0.0284
    168  CG        21.3860   13.3130   26.8460 C.3   159  LEU159      0.0019
    169  CD1       21.3180   11.7920   26.8450 C.3   159  LEU159      0.0001
    170  CD2       22.3720   13.7920   27.8920 C.3   159  LEU159      0.0001
    171  N         19.8530   16.1930   25.4990 N.am  160  ASP160     -0.1974
    172  CA        19.8870   17.6020   25.9450 C.3   160  ASP160      0.1709
    173  C         19.7930   18.6640   24.8520 C.2   160  ASP160      0.2293
    174  O         20.7890   19.3070   24.5130 O.2   160  ASP160     -0.2864
    175  CB        21.1600   17.8750   26.7720 C.3   160  ASP160      0.1436
    176  CG        21.0900   17.3000   28.1700 C.2   160  ASP160      0.3671
    177  OD1       19.9840   17.2030   28.7350 O.co2 160  ASP160     -0.2456
    178  OD2       22.1570   16.9500   28.7120 O.co2 160  ASP160     -0.2456
@<TRIPOS>BOND
     1    62    63    1
     2   163   164    1
     3   153   152    2
     4   166   165    2
     5   161   160    2
     6    65    64    2
     7   152   151    1
     8    63    64    1
     9    63    66    1
    10   154   151    1
    11   154   155    1
    12   164   165    1
    13   164   167    1
    14   165   171   am
    15    57    56    2
    16   174   173    2
    17   158   159    1
    18   156   155    2
    19    68    66    1
    20   151   150    1
    21   160   159    1
    22    54    55    1
    23    56    55    1
    24   173   172    1
    25   144   145    1
    26   150   146   am
    27    66    67    1
    28   155   157   am
    29    55    58    1
    30   167   168    1
    31   171   172    1
    32   159   162    1
    33   101    99   ar
    34   101   102   ar
    35   117   118    1
    36   117   116    1
    37   172   175    1
    38    99    98   ar
    39    60    59    1
    40   102   100   ar
    41   146   145    1
    42   146   147    2
    43   130   131    2
    44   130   129    1
    45    70    71    1
    46   145   148    1
    47    67    69    1
    48    58    59    1
    49   175   176    1
    50    48    47    2
    51    73    72    2
    52   169   168    1
    53   168   170    1
    54   129   132    1
    55   129   128    1
    56   149   148    1
    57    98   100   ar
    58    98    97    1
    59   116   115    1
    60   132   133    1
    61    59    61    1
    62    71    72    1
    63    71    74    1
    64    45    46    1
    65    47    46    1
    66    46    49    1
    67    74    75    1
    68    97    94    1
    69   115   112    1
    70   134   133   ar
    71   126   125    2
    72    92    90    1
    73   136   137    1
    74   133   135   ar
    75   176   178   ar
    76   176   177   ar
    77   128   125   am
    78   138   139    2
    79   138   137    1
    80    76    75    1
    81    75    77    1
    82   125   124    1
    83   112   113    1
    84   112   111    1
    85    49    50    1
    86    50    51    1
    87   137   140    1
    88    94    93    1
    89    94    95    1
    90    93    88   am
    91   114   113    2
    92   127   124    1
    93   106   105    2
    94   113   119   am
    95    90    91    1
    96    90    87    1
    97   124   123    1
    98    96    95    2
    99    95   103   am
   100   111   105   am
   101   123   121   am
   102   105   104    1
   103   140   141    1
   104    87    88    1
   105    87    86    1
   106    51    53   ar
   107    51    52   ar
   108    88    89    2
   109   119   120    1
   110   103   104    1
   111   141   143   am
   112   141   142    2
   113   104   107    1
   114   121   120    1
   115   121   122    2
   116    85    83    1
   117    44    43    1
   118   107   108    1
   119    84    83    1
   120    43    42    1
   121    83    82    1
   122    82    79    1
   123   108   109    1
   124   108   110    1
   125    28    25    1
   126    80    79    1
   127    80    81    2
   128    24    25    1
   129    79    78    1
   130    27    26    2
   131    42    41    1
   132    25    26    1
   133    26    29   am
   134    40    41    1
   135    40    37    1
   136    29    30    1
   137    18    16    1
   138    17    16    1
   139    36    37    1
   140    36    31   am
   141    30    31    1
   142    30    33    1
   143    37    38    1
   144    39    38    2
   145    31    32    2
   146    16    13    1
   147     6     5    1
   148    35    33    1
   149    33    34    1
   150    20    23    1
   151    20    19    1
   152    20    21    1
   153    13    12    1
   154    13    14    1
   155     5     7    1
   156     5     2    1
   157    21    22    2
   158    14    15    2
   159     4     3    2
   160     9     8    1
   161     9    10    1
   162     3     8   am
   163     3     2    1
   164     2     1    1
   165    11    10    2
