@<TRIPOS>MOLECULE
tmp/3mw2B00.pdb
 87 85 0 0 0
SMALL
GASTEIGER

@<TRIPOS>ATOM
      1  N         27.1220   -9.7980   47.5680 N.3    26  ARG26      -0.1245
      2  CA        27.9140   -9.5780   46.3760 C.3    26  ARG26       0.1563
      3  C         27.1550  -10.1270   45.1610 C.2    26  ARG26       0.2260
      4  O         27.4170   -9.7440   44.0250 O.2    26  ARG26      -0.2867
      5  CB        29.2880  -10.2290   46.5920 C.3    26  ARG26       0.0307
      6  CG        29.7950  -11.1960   45.5270 C.3    26  ARG26       0.0489
      7  CD        30.5560  -12.3640   46.1750 C.3    26  ARG26       0.2205
      8  NE        31.1540  -12.0080   47.4650 N.pl3  26  ARG26      -0.0865
      9  CZ        32.3830  -11.5190   47.6260 C.cat  26  ARG26       0.5346
     10  NH1       33.1740  -11.3220   46.5770 N.pl3  26  ARG26       0.1354
     11  NH2       32.8240  -11.2250   48.8440 N.pl3  26  ARG26       0.1354
     12  N         25.4460  -10.3420   39.9210 N.3    98  SER98      -0.1202
     13  CA        26.7610  -10.6180   40.4730 C.3    98  SER98       0.2020
     14  C         27.5830   -9.3570   40.2700 C.2    98  SER98       0.2619
     15  O         27.9600   -9.0300   39.1380 O.2    98  SER98      -0.2717
     16  CB        27.4210  -11.8070   39.7700 C.3    98  SER98       0.2103
     17  OG        28.7240  -12.0700   40.2850 O.3    98  SER98      -0.2182
     18  N         27.8430   -8.6410   41.3610 N.am   99  GLY99      -0.1942
     19  CA        28.5560   -7.3770   41.2950 C.3    99  GLY99       0.2014
     20  C         27.7940   -6.3770   40.4540 C.2    99  GLY99       0.2639
     21  O         26.6530   -6.0480   40.7670 O.2    99  GLY99      -0.2714
     22  N         28.4370   -5.9070   39.3830 N.am  100  GLY100     -0.1939
     23  CA        27.8250   -4.9860   38.4250 C.3   100  GLY100      0.2014
     24  C         27.1780   -5.6880   37.2390 C.2   100  GLY100      0.2638
     25  O         26.5180   -5.0480   36.4190 O.2   100  GLY100     -0.2714
     26  N         27.3780   -7.0020   37.1520 N.am  101  ASN101     -0.1972
     27  CA        26.7420   -7.8380   36.1480 C.3   101  ASN101      0.1688
     28  C         25.3720   -8.2980   36.5900 C.2   101  ASN101      0.2292
     29  O         25.1420   -8.5370   37.7710 O.2   101  ASN101     -0.2864
     30  CB        27.5940   -9.0630   35.8630 C.3   101  ASN101      0.1181
     31  CG        29.0240   -8.7180   35.6200 C.2   101  ASN101      0.2629
     32  OD1       29.3270   -7.6250   35.1400 O.2   101  ASN101     -0.2716
     33  ND2       29.9260   -9.6460   35.9640 N.am  101  ASN101     -0.0877
     34  N         26.9470   -7.2640   31.1890 N.3   136  TRP136     -0.1227
     35  CA        28.2620   -7.3840   31.8000 C.3   136  TRP136      0.1737
     36  C         29.0280   -6.0640   31.7390 C.2   136  TRP136      0.2595
     37  O         29.0000   -5.3800   30.7180 O.2   136  TRP136     -0.2718
     38  CB        29.0840   -8.4590   31.0820 C.3   136  TRP136      0.0564
     39  CG        28.3220   -9.7100   30.6910 C.ar  136  TRP136      0.0003
     40  CD1       27.5400   -9.8890   29.5760 C.ar  136  TRP136      0.0946
     41  CD2       28.3050  -10.9590   31.3930 C.ar  136  TRP136      0.0152
     42  NE1       27.0300  -11.1670   29.5490 N.ar  136  TRP136     -0.2442
     43  CE2       27.4810  -11.8460   30.6520 C.ar  136  TRP136      0.0810
     44  CE3       28.9020  -11.4150   32.5780 C.ar  136  TRP136      0.0012
     45  CZ2       27.2320  -13.1610   31.0640 C.ar  136  TRP136      0.0191
     46  CZ3       28.6610  -12.7220   32.9840 C.ar  136  TRP136      0.0001
     47  CH2       27.8300  -13.5810   32.2280 C.ar  136  TRP136      0.0015
     48  N         29.7050   -5.7160   32.8340 N.am  137  LEU137     -0.1966
     49  CA        30.7120   -4.6480   32.8320 C.3   137  LEU137      0.1728
     50  C         32.1140   -5.1940   32.5970 C.2   137  LEU137      0.2616
     51  O         32.6000   -6.0120   33.3740 O.2   137  LEU137     -0.2715
     52  CB        30.7080   -3.8570   34.1420 C.3   137  LEU137      0.0311
     53  CG        29.8950   -2.5680   34.1700 C.3   137  LEU137      0.0022
     54  CD1       28.4970   -2.8240   34.7350 C.3   137  LEU137      0.0001
     55  CD2       30.6160   -1.5400   34.9940 C.3   137  LEU137      0.0001
     56  N         32.7500   -4.7420   31.5190 N.am  138  LEU138     -0.1963
     57  CA        34.1600   -5.0230   31.2770 C.3   138  LEU138      0.1728
     58  C         34.9650   -3.8590   31.8180 C.2   138  LEU138      0.2616
     59  O         35.7390   -3.2200   31.1060 O.2   138  LEU138     -0.2715
     60  CB        34.4550   -5.2250   29.7920 C.3   138  LEU138      0.0311
     61  CG        33.6540   -6.2010   28.9310 C.3   138  LEU138      0.0022
     62  CD1       34.4170   -6.3980   27.6190 C.3   138  LEU138      0.0001
     63  CD2       33.3920   -7.5400   29.6240 C.3   138  LEU138      0.0001
     64  N         34.7270   -3.5680   33.0880 N.am  139  ASP139     -0.1957
     65  CA        35.5040   -2.6020   33.8220 C.3   139  ASP139      0.1840
     66  C         36.6370   -3.3880   34.4680 C.2   139  ASP139      0.2621
     67  O         36.4380   -4.5450   34.8580 O.2   139  ASP139     -0.2715
     68  CB        34.6300   -1.9570   34.8940 C.3   139  ASP139      0.1450
     69  CG        35.1650   -0.6190   35.3530 C.2   139  ASP139      0.3671
     70  OD1       36.3720   -0.3570   35.1700 O.co2 139  ASP139     -0.2456
     71  OD2       34.3690    0.1720   35.8990 O.co2 139  ASP139     -0.2456
     72  N         37.8140   -2.7780   34.5840 N.am  140  LYS140     -0.1977
     73  CA        38.9560   -3.4360   35.2240 C.3   140  LYS140      0.1596
     74  C         38.6560   -3.5250   36.7340 C.2   140  LYS140      0.2287
     75  O         39.4650   -3.1020   37.5710 O.2   140  LYS140     -0.2864
     76  CB        40.2540   -2.6360   35.0000 C.3   140  LYS140      0.0298
     77  CG        40.5850   -2.2890   33.5360 C.3   140  LYS140      0.0038
     78  CD        41.5030   -3.3120   32.8740 C.3   140  LYS140      0.0206
     79  CE        42.0850   -2.7800   31.5610 C.3   140  LYS140      0.1093
     80  NZ        43.2070   -1.7990   31.7480 N.3   140  LYS140     -0.1314
     81  N         30.9100   -3.7560   44.3480 N.3   145  THR145     -0.1218
     82  CA        30.0660   -4.8850   43.9470 C.3   145  THR145      0.1862
     83  C         29.0990   -5.3640   45.0440 C.2   145  THR145      0.2287
     84  O         28.4860   -6.4270   44.9050 O.2   145  THR145     -0.2866
     85  CB        30.9230   -6.1020   43.4750 C.3   145  THR145      0.1770
     86  OG1       31.5160   -6.7560   44.6050 O.3   145  THR145     -0.2211
     87  CG2       32.0150   -5.6810   42.4970 C.3   145  THR145      0.0375
@<TRIPOS>BOND
     1    62    61    1
     2    61    63    1
     3    61    60    1
     4    42    40   ar
     5    42    43   ar
     6    40    39   ar
     7    60    57    1
     8    43    45   ar
     9    43    41   ar
    10    39    38    1
    11    39    41   ar
    12    37    36    2
    13    45    47   ar
    14    38    35    1
    15    59    58    2
    16    34    35    1
    17    57    56    1
    18    57    58    1
    19    41    44   ar
    20    56    50   am
    21    79    80    1
    22    79    78    1
    23    36    35    1
    24    36    48   am
    25    58    64   am
    26    47    46   ar
    27    44    46   ar
    28    50    49    1
    29    50    51    2
    30    49    48    1
    31    49    52    1
    32    78    77    1
    33    64    65    1
    34    77    76    1
    35    65    66    1
    36    65    68    1
    37    52    53    1
    38    53    54    1
    39    53    55    1
    40    66    72   am
    41    66    67    2
    42    72    73    1
    43    68    69    1
    44    76    73    1
    45    32    31    2
    46    70    69   ar
    47    73    74    1
    48    69    71   ar
    49    31    30    1
    50    31    33   am
    51    30    27    1
    52    27    28    1
    53    27    26    1
    54    25    24    2
    55    28    29    2
    56    74    75    2
    57    26    24   am
    58    24    23    1
    59    23    22    1
    60    15    14    2
    61    22    20   am
    62    16    17    1
    63    16    13    1
    64    12    13    1
    65    14    13    1
    66    14    18   am
    67    20    21    2
    68    20    19    1
    69    19    18    1
    70    87    85    1
    71    85    82    1
    72    85    86    1
    73    82    81    1
    74    82    83    1
    75     4     3    2
    76    84    83    2
    77     3     2    1
    78     6     7    1
    79     6     5    1
    80     7     8    1
    81     2     5    1
    82     2     1    1
    83    10     9    1
    84     8     9    2
    85     9    11    1
