@<TRIPOS>MOLECULE
tmp/3mw3A00.pdb
 102 100 0 0 0
SMALL
GASTEIGER

@<TRIPOS>ATOM
      1  N         -4.0220    2.3000    0.4880 N.3    26  ARG26      -0.1245
      2  CA        -4.5240    2.1250    1.8510 C.3    26  ARG26       0.1563
      3  C         -3.4480    2.3770    2.9080 C.2    26  ARG26       0.2260
      4  O         -3.7530    2.7930    4.0330 O.2    26  ARG26      -0.2867
      5  CB        -5.0470    0.7030    2.0400 C.3    26  ARG26       0.0307
      6  CG        -5.7140    0.5380    3.3870 C.3    26  ARG26       0.0489
      7  CD        -6.8290   -0.4430    3.3250 C.3    26  ARG26       0.2205
      8  NE        -7.0490   -1.0740    4.6280 N.pl3  26  ARG26      -0.0865
      9  CZ        -8.1820   -1.6630    4.9840 C.cat  26  ARG26       0.5346
     10  NH1       -9.2030   -1.7000    4.1370 N.pl3  26  ARG26       0.1354
     11  NH2       -8.2960   -2.2110    6.1890 N.pl3  26  ARG26       0.1354
     12  N         -2.2180    3.8040    7.8070 N.3    98  SER98      -0.1202
     13  CA        -3.0890    2.6820    7.4470 C.3    98  SER98       0.2020
     14  C         -4.5600    3.1120    7.5650 C.2    98  SER98       0.2619
     15  O         -5.1720    3.0480    8.6670 O.2    98  SER98      -0.2717
     16  CB        -2.7640    1.4910    8.3180 C.3    98  SER98       0.2103
     17  OG        -3.7900    0.5260    8.2160 O.3    98  SER98      -0.2182
     18  N         -5.1450    3.5440    6.4440 N.am   99  GLY99      -0.1942
     19  CA        -6.5040    4.0760    6.4750 C.3    99  GLY99       0.2014
     20  C         -6.3990    5.4360    7.1730 C.2    99  GLY99       0.2639
     21  O         -5.5740    6.2720    6.7740 O.2    99  GLY99      -0.2714
     22  N         -7.2230    5.6230    8.2120 N.am  100  GLY100     -0.1939
     23  CA        -7.1810    6.7750    9.0890 C.3   100  GLY100      0.2014
     24  C         -6.3040    6.6020   10.3350 C.2   100  GLY100      0.2638
     25  O         -6.2580    7.4620   11.1940 O.2   100  GLY100     -0.2714
     26  N         -5.6120    5.4850   10.4310 N.am  101  ASN101     -0.1972
     27  CA        -4.6270    5.2420   11.4740 C.3   101  ASN101      0.1688
     28  C         -3.2180    5.5730   11.0140 C.2   101  ASN101      0.2292
     29  O         -2.9280    5.6110    9.8170 O.2   101  ASN101     -0.2864
     30  CB        -4.6640    3.7800   11.8470 C.3   101  ASN101      0.1181
     31  CG        -6.0300    3.3100   12.2260 C.2   101  ASN101      0.2629
     32  OD1       -6.9070    4.0720   12.6600 O.2   101  ASN101     -0.2716
     33  ND2       -6.2170    2.0320   12.1010 N.am  101  ASN101     -0.0877
     34  N         -5.1730    5.6960   16.2440 N.3   127  TRP127     -0.1227
     35  CA        -6.2190    4.8400   15.7010 C.3   127  TRP127      0.1737
     36  C         -7.6040    5.4760   15.7030 C.2   127  TRP127      0.2595
     37  O         -7.9770    6.2080   16.6070 O.2   127  TRP127     -0.2718
     38  CB        -6.3270    3.5360   16.4820 C.3   127  TRP127      0.0564
     39  CG        -5.1670    2.6200   16.3350 C.ar  127  TRP127      0.0003
     40  CD1       -4.9110    1.7360   15.3050 C.ar  127  TRP127      0.0946
     41  CD2       -4.0860    2.5030   17.2430 C.ar  127  TRP127      0.0152
     42  NE1       -3.7220    1.0650   15.5390 N.ar  127  TRP127     -0.2442
     43  CE2       -3.1990    1.5190   16.7210 C.ar  127  TRP127      0.0810
     44  CE3       -3.7890    3.1150   18.4580 C.ar  127  TRP127      0.0012
     45  CZ2       -2.0340    1.1320   17.3900 C.ar  127  TRP127      0.0191
     46  CZ3       -2.6410    2.7420   19.1200 C.ar  127  TRP127      0.0001
     47  CH2       -1.7680    1.7550   18.5850 C.ar  127  TRP127      0.0015
     48  N         -8.3730    5.1370   14.6830 N.am  128  LEU128     -0.1966
     49  CA        -9.7540    5.5610   14.5680 C.3   128  LEU128      0.1728
     50  C        -10.6890    4.3970   14.8960 C.2   128  LEU128      0.2616
     51  O        -10.6870    3.3810   14.2070 O.2   128  LEU128     -0.2715
     52  CB        -9.9810    6.1300   13.1620 C.3   128  LEU128      0.0311
     53  CG       -11.3570    6.6520   12.7440 C.3   128  LEU128      0.0022
     54  CD1      -11.7680    7.8920   13.5500 C.3   128  LEU128      0.0001
     55  CD2      -11.3390    6.9470   11.2340 C.3   128  LEU128      0.0001
     56  N        -11.4500    4.5280   15.9790 N.am  129  LEU129     -0.1963
     57  CA       -12.4470    3.5200   16.3310 C.3   129  LEU129      0.1728
     58  C        -13.8120    3.9890   15.8330 C.2   129  LEU129      0.2616
     59  O        -14.6440    4.5070   16.6000 O.2   129  LEU129     -0.2715
     60  CB       -12.4750    3.2020   17.8390 C.3   129  LEU129      0.0311
     61  CG       -11.1780    2.8980   18.6030 C.3   129  LEU129      0.0022
     62  CD1      -11.4790    2.2850   19.9640 C.3   129  LEU129      0.0001
     63  CD2      -10.3250    1.9650   17.8300 C.3   129  LEU129      0.0001
     64  N        -14.0170    3.8260   14.5280 N.am  130  ASP130     -0.1957
     65  CA       -15.2750    4.1970   13.8870 C.3   130  ASP130      0.1840
     66  C        -15.9600    2.9430   13.3190 C.2   130  ASP130      0.2622
     67  O        -15.4230    2.3010   12.4260 O.2   130  ASP130     -0.2715
     68  CB       -14.9990    5.2410   12.7950 C.3   130  ASP130      0.1450
     69  CG       -16.1770    6.1920   12.5630 C.2   130  ASP130      0.3671
     70  OD1      -17.2450    6.0040   13.1960 O.co2 130  ASP130     -0.2456
     71  OD2      -16.0270    7.1440   11.7520 O.co2 130  ASP130     -0.2456
     72  N        -17.1270    2.5780   13.8480 N.am  131  LYS131     -0.1963
     73  CA       -17.8230    1.3590   13.3930 C.3   131  LYS131      0.1728
     74  C        -18.0350    1.3620   11.8810 C.2   131  LYS131      0.2617
     75  O        -18.5170    2.3470   11.3000 O.2   131  LYS131     -0.2715
     76  CB       -19.1490    1.1390   14.1360 C.3   131  LYS131      0.0311
     77  CG       -20.0320   -0.0120   13.5960 C.3   131  LYS131      0.0038
     78  CD       -19.3170   -1.3720   13.6100 C.3   131  LYS131      0.0206
     79  CE       -20.2260   -2.4910   13.0890 C.3   131  LYS131      0.1093
     80  NZ       -19.4680   -3.7710   12.8980 N.3   131  LYS131     -0.1314
     81  N        -17.6470    0.2600   11.2450 N.am  132  GLY132     -0.1940
     82  CA       -17.7410    0.1590    9.8020 C.3   132  GLY132      0.2014
     83  C        -16.5280    0.7730    9.1420 C.2   132  GLY132      0.2638
     84  O        -15.7020    1.4260    9.7880 O.2   132  GLY132     -0.2714
     85  N        -16.4310    0.5620    7.8380 N.am  133  ARG133     -0.1977
     86  CA       -15.2870    1.0090    7.0620 C.3   133  ARG133      0.1597
     87  C        -15.4670    2.4670    6.6270 C.2   133  ARG133      0.2287
     88  O        -16.4880    2.8260    6.0380 O.2   133  ARG133     -0.2864
     89  CB       -15.0820    0.0580    5.8680 C.3   133  ARG133      0.0334
     90  CG       -14.8550   -1.4130    6.3010 C.3   133  ARG133      0.0492
     91  CD       -15.1450   -2.4220    5.1950 C.3   133  ARG133      0.2205
     92  NE       -14.7060   -3.7710    5.5660 N.pl3 133  ARG133     -0.0865
     93  CZ       -15.5170   -4.7520    5.9580 C.cat 133  ARG133      0.5346
     94  NH1      -16.8280   -4.5550    6.0160 N.pl3 133  ARG133      0.1354
     95  NH2      -15.0210   -5.9450    6.2770 N.pl3 133  ARG133      0.1354
     96  N        -10.4960    5.2140    3.4420 N.3   136  THR136     -0.1218
     97  CA        -9.2280    4.6240    3.8520 C.3   136  THR136      0.1862
     98  C         -8.1690    4.8570    2.7660 C.2   136  THR136      0.2287
     99  O         -6.9820    4.6530    3.0120 O.2   136  THR136     -0.2866
    100  CB        -9.3650    3.0730    4.1050 C.3   136  THR136      0.1770
    101  OG1       -9.9780    2.4620    2.9680 O.3   136  THR136     -0.2211
    102  CG2      -10.2200    2.7400    5.3360 C.3   136  THR136      0.0375
@<TRIPOS>BOND
     1     1     2    1
     2     2     5    1
     3     2     3    1
     4     5     6    1
     5    98    99    2
     6    98    97    1
     7     3     4    2
     8   101   100    1
     9     7     6    1
    10     7     8    1
    11    96    97    1
    12    97   100    1
    13   100   102    1
    14    10     9    1
    15     8     9    2
    16     9    11    1
    17    91    92    1
    18    91    90    1
    19    92    93    2
    20    89    90    1
    21    89    86    1
    22    93    94    1
    23    93    95    1
    24    88    87    2
    25    18    19    1
    26    18    14   am
    27    19    20    1
    28    87    86    1
    29    21    20    2
    30    86    85    1
    31    20    22   am
    32    13    14    1
    33    13    12    1
    34    13    16    1
    35    14    15    2
    36    85    83   am
    37    22    23    1
    38    17    16    1
    39    23    24    1
    40    83    84    2
    41    83    82    1
    42    82    81    1
    43    29    28    2
    44    24    26   am
    45    24    25    2
    46    26    27    1
    47    28    27    1
    48    55    53    1
    49    81    74   am
    50    75    74    2
    51    27    30    1
    52    71    69   ar
    53    30    31    1
    54    74    73    1
    55    33    31   am
    56    31    32    2
    57    67    66    2
    58    69    68    1
    59    69    70   ar
    60    53    52    1
    61    53    54    1
    62    68    65    1
    63    80    79    1
    64    79    78    1
    65    52    49    1
    66    66    72   am
    67    66    65    1
    68    73    72    1
    69    73    76    1
    70    77    78    1
    71    77    76    1
    72    65    64    1
    73    51    50    2
    74    64    58   am
    75    49    48    1
    76    49    50    1
    77    48    36   am
    78    50    56   am
    79    40    42   ar
    80    40    39   ar
    81    42    43   ar
    82    35    36    1
    83    35    34    1
    84    35    38    1
    85    36    37    2
    86    58    57    1
    87    58    59    2
    88    56    57    1
    89    57    60    1
    90    39    38    1
    91    39    41   ar
    92    43    41   ar
    93    43    45   ar
    94    41    44   ar
    95    45    47   ar
    96    63    61    1
    97    60    61    1
    98    44    46   ar
    99    47    46   ar
   100    61    62    1
