@<TRIPOS>MOLECULE
tmp/3mwaB00.pdb
 155 145 0 0 0
SMALL
GASTEIGER

@<TRIPOS>ATOM
      1  N         33.4370  -12.4040  -17.5360 N.3    24  ASP24      -0.1239
      2  CA        32.4920  -12.2110  -18.6380 C.3    24  ASP24       0.1674
      3  C         33.2110  -11.4990  -19.7880 C.2    24  ASP24       0.2266
      4  O         32.9610  -10.3220  -20.0290 O.2    24  ASP24      -0.2867
      5  CB        31.3280  -11.3010  -18.2140 C.3    24  ASP24       0.1410
      6  CG        30.4630  -11.8670  -17.0970 C.2    24  ASP24       0.3668
      7  OD1       30.5570  -13.0810  -16.7910 O.co2  24  ASP24      -0.2456
      8  OD2       29.6720  -11.0560  -16.5450 O.co2  24  ASP24      -0.2456
      9  N         32.4960  -16.3760  -10.9540 N.3   103  LYS103     -0.1245
     10  CA        31.2010  -16.5300  -11.6040 C.3   103  LYS103      0.1561
     11  C         31.3850  -16.2520  -13.1010 C.2   103  LYS103      0.2260
     12  O         31.9010  -15.2090  -13.4870 O.2   103  LYS103     -0.2867
     13  CB        30.2040  -15.5380  -11.0200 C.3   103  LYS103      0.0271
     14  CG        28.8260  -15.5980  -11.6900 C.3   103  LYS103      0.0035
     15  CD        27.7130  -14.8720  -10.9250 C.3   103  LYS103      0.0206
     16  CE        27.7770  -13.3470  -11.0840 C.3   103  LYS103      0.1093
     17  NZ        27.6900  -12.9240  -12.5360 N.3   103  LYS103     -0.1314
     18  N         29.4410  -15.8250  -16.7070 N.3   105  ASN105     -0.1240
     19  CA        28.1200  -15.6760  -17.3260 C.3   105  ASN105      0.1653
     20  C         28.1080  -16.3450  -18.6900 C.2   105  ASN105      0.2266
     21  O         28.8700  -15.9610  -19.5850 O.2   105  ASN105     -0.2867
     22  CB        27.6550  -14.2150  -17.4290 C.3   105  ASN105      0.1155
     23  CG        26.1870  -14.1340  -17.7790 C.2   105  ASN105      0.2627
     24  OD1       25.7600  -14.6930  -18.7920 O.2   105  ASN105     -0.2716
     25  ND2       25.3960  -13.5000  -16.9200 N.am  105  ASN105     -0.0877
     26  N         28.4040  -14.8390  -22.4620 N.3   108  PHE108     -0.1241
     27  CA        29.6400  -14.3950  -23.0890 C.3   108  PHE108      0.1605
     28  C         30.3670  -15.5020  -23.8490 C.2   108  PHE108      0.2264
     29  O         31.2590  -15.2240  -24.6380 O.2   108  PHE108     -0.2867
     30  CB        30.5460  -13.6970  -22.0560 C.3   108  PHE108      0.0534
     31  CG        29.9110  -12.4350  -21.5120 C.ar  108  PHE108     -0.0203
     32  CD1       30.2250  -11.2000  -22.0600 C.ar  108  PHE108     -0.0042
     33  CD2       28.9680  -12.4950  -20.4970 C.ar  108  PHE108     -0.0042
     34  CE1       29.6060  -10.0250  -21.6050 C.ar  108  PHE108     -0.0003
     35  CE2       28.3260  -11.3470  -20.0510 C.ar  108  PHE108     -0.0003
     36  CZ        28.6510  -10.1060  -20.5980 C.ar  108  PHE108     -0.0000
     37  N         26.5100  -18.3540  -14.2110 N.3   137  ASP137     -0.1239
     38  CA        25.4100  -17.4080  -14.2610 C.3   137  ASP137      0.1674
     39  C         24.7110  -17.5630  -15.5960 C.2   137  ASP137      0.2266
     40  O         25.2490  -17.1990  -16.6510 O.2   137  ASP137     -0.2867
     41  CB        25.9750  -15.9850  -14.1120 C.3   137  ASP137      0.1410
     42  CG        24.9130  -14.9760  -13.7060 C.2   137  ASP137      0.3668
     43  OD1       23.7240  -15.3360  -13.6320 O.co2 137  ASP137     -0.2456
     44  OD2       25.2850  -13.8240  -13.4210 O.co2 137  ASP137     -0.2456
     45  N         20.9030  -17.8370  -15.3910 N.3   139  LYS139     -0.1245
     46  CA        19.5360  -17.3690  -15.1260 C.3   139  LYS139      0.1561
     47  C         18.4920  -18.2830  -15.7990 C.2   139  LYS139      0.2260
     48  O         17.4950  -17.8470  -16.4110 O.2   139  LYS139     -0.2867
     49  CB        19.4150  -15.8790  -15.4950 C.3   139  LYS139      0.0271
     50  CG        20.1360  -15.0390  -14.4170 C.3   139  LYS139      0.0035
     51  CD        20.7400  -13.7250  -14.9220 C.3   139  LYS139      0.0206
     52  CE        21.4120  -12.9720  -13.7570 C.3   139  LYS139      0.1093
     53  NZ        22.3400  -11.8120  -14.0880 N.3   139  LYS139     -0.1314
     54  N         16.9120   -7.5970   -9.0480 N.3   195  THR195     -0.1203
     55  CA        17.9680   -7.4540  -10.0670 C.3   195  THR195      0.1994
     56  C         18.4160   -6.0050  -10.2710 C.2   195  THR195      0.2619
     57  O         17.7360   -5.0570   -9.8350 O.2   195  THR195     -0.2717
     58  CB        17.5990   -8.1770  -11.3940 C.3   195  THR195      0.1784
     59  OG1       16.3780   -7.6470  -11.9470 O.3   195  THR195     -0.2211
     60  CG2       17.3490   -9.6800  -11.0860 C.3   195  THR195      0.0376
     61  N         19.5580   -5.8340  -10.9370 N.am  196  THR196     -0.1938
     62  CA        20.2250   -4.5330  -10.9760 C.3   196  THR196      0.2028
     63  C         19.7650   -3.6580  -12.1320 C.2   196  THR196      0.2642
     64  O         20.1130   -2.4780  -12.1590 O.2   196  THR196     -0.2714
     65  CB        21.7610   -4.6680  -11.0970 C.3   196  THR196      0.1808
     66  OG1       22.0700   -5.4340  -12.2790 O.3   196  THR196     -0.2208
     67  CG2       22.3480   -5.3700   -9.8610 C.3   196  THR196      0.0379
     68  N         19.0050   -4.2080  -13.0770 N.am  197  ASN197     -0.1971
     69  CA        18.6150   -3.3980  -14.2370 C.3   197  ASN197      0.1688
     70  C         17.7490   -2.2140  -13.8200 C.2   197  ASN197      0.2292
     71  O         17.0250   -2.2950  -12.8250 O.2   197  ASN197     -0.2864
     72  CB        17.8750   -4.2240  -15.2740 C.3   197  ASN197      0.1181
     73  CG        16.8720   -5.1350  -14.6460 C.2   197  ASN197      0.2629
     74  OD1       17.2360   -6.1180  -13.9780 O.2   197  ASN197     -0.2716
     75  ND2       15.6050   -4.8450  -14.8790 N.am  197  ASN197     -0.0877
     76  N         19.7580  -13.8390   -5.6090 N.3   241  VAL241     -0.1245
     77  CA        20.4550  -12.7380   -6.2750 C.3   241  VAL241      0.1561
     78  C         19.7730  -11.4320   -5.8580 C.2   241  VAL241      0.2260
     79  O         18.5820  -11.2210   -6.1310 O.2   241  VAL241     -0.2867
     80  CB        20.4680  -12.8820   -7.8120 C.3   241  VAL241      0.0252
     81  CG1       21.2600  -11.6970   -8.4350 C.3   241  VAL241      0.0019
     82  CG2       21.0500  -14.2300   -8.2070 C.3   241  VAL241      0.0019
     83  N         20.5690   -7.2780   -5.9910 N.3   243  GLY243     -0.1225
     84  CA        21.4320   -6.2700   -6.6030 C.3   243  GLY243      0.1811
     85  C         22.1530   -5.4050   -5.5830 C.2   243  GLY243      0.2280
     86  O         21.6020   -5.1170   -4.5090 O.2   243  GLY243     -0.2866
     87  N         25.4670   -8.8230   -7.5530 N.3   265  PRO265     -0.2102
     88  CA        26.1180   -8.1560   -8.6820 C.3   265  PRO265      0.1504
     89  C         25.7330   -6.6840   -8.6800 C.2   265  PRO265      0.2576
     90  O         24.7670   -6.3070   -7.9950 O.2   265  PRO265     -0.2718
     91  CB        25.5380   -8.8940   -9.8990 C.3   265  PRO265      0.0282
     92  CG        24.1390   -9.1970   -9.4570 C.3   265  PRO265      0.0208
     93  CD        24.2170   -9.5000   -7.9630 C.3   265  PRO265      0.0893
     94  N         26.5110   -5.8560   -9.3690 N.am  266  GLY266     -0.1943
     95  CA        26.1360   -4.4490   -9.5280 C.3   266  GLY266      0.2014
     96  C         27.1240   -3.3650   -9.1230 C.2   266  GLY266      0.2638
     97  O         26.9080   -2.1960   -9.4490 O.2   266  GLY266     -0.2714
     98  N         28.1870   -3.7630   -8.4210 N.am  267  ILE267     -0.1977
     99  CA        29.3320   -2.8980   -8.0940 C.3   267  ILE267      0.1596
    100  C         30.2640   -2.7220   -9.2890 C.2   267  ILE267      0.2287
    101  O         30.5760   -3.6910   -9.9860 O.2   267  ILE267     -0.2864
    102  CB        30.1830   -3.4800   -6.9260 C.3   267  ILE267      0.0276
    103  CG1       29.3410   -3.7160   -5.6680 C.3   267  ILE267      0.0022
    104  CG2       31.3810   -2.5690   -6.5740 C.3   267  ILE267      0.0022
    105  CD1       28.6680   -2.4980   -5.1170 C.3   267  ILE267      0.0001
    106  N         30.8940   -1.6170  -12.7440 N.3   269  ALA269     -0.1231
    107  CA        30.2940   -1.1990  -14.0070 C.3   269  ALA269      0.1694
    108  C         28.8960   -0.6040  -13.8380 C.2   269  ALA269      0.2591
    109  O         28.5490    0.3420  -14.5620 O.2   269  ALA269     -0.2718
    110  CB        30.2560   -2.3760  -14.9950 C.3   269  ALA269      0.0304
    111  N         28.0960   -1.1450  -12.9190 N.am  270  GLN270     -0.1979
    112  CA        26.7270   -0.6590  -12.7010 C.3   270  GLN270      0.1601
    113  C         26.5650    0.2780  -11.5070 C.2   270  GLN270      0.2287
    114  O         25.4400    0.5570  -11.0660 O.2   270  GLN270     -0.2864
    115  CB        25.7310   -1.8240  -12.6120 C.3   270  GLN270      0.0394
    116  CG        25.8870   -2.8150  -13.7590 C.3   270  GLN270      0.0908
    117  CD        24.9510   -4.0070  -13.5860 C.2   270  GLN270      0.2608
    118  OE1       23.7240   -3.8290  -13.5600 O.2   270  GLN270     -0.2717
    119  NE2       25.5160   -5.2270  -13.5120 N.am  270  GLN270     -0.0878
    120  N         29.8770   -9.6110   -6.2120 N.3   292  ASN292     -0.1225
    121  CA        30.3750   -9.9380   -7.5390 C.3   292  ASN292      0.1785
    122  C         30.9240   -8.6950   -8.2180 C.2   292  ASN292      0.2597
    123  O         30.2310   -7.6760   -8.3060 O.2   292  ASN292     -0.2718
    124  CB        29.2810  -10.5290   -8.4270 C.3   292  ASN292      0.1169
    125  CG        29.7870  -10.8360   -9.8110 C.2   292  ASN292      0.2627
    126  OD1       30.5850  -11.7510  -10.0060 O.2   292  ASN292     -0.2716
    127  ND2       29.3520  -10.0480  -10.7840 N.am  292  ASN292     -0.0877
    128  N         32.1450   -8.8100   -8.7250 N.am  293  ILE293     -0.1966
    129  CA        32.7200   -7.7690   -9.5650 C.3   293  ILE293      0.1727
    130  C         33.2390   -8.3920  -10.8540 C.2   293  ILE293      0.2617
    131  O         34.1830   -9.1800  -10.8140 O.2   293  ILE293     -0.2715
    132  CB        33.9240   -7.0820   -8.8470 C.3   293  ILE293      0.0290
    133  CG1       33.5690   -6.7070   -7.4040 C.3   293  ILE293      0.0022
    134  CG2       34.4450   -5.9150   -9.6990 C.3   293  ILE293      0.0023
    135  CD1       32.6830   -5.4950   -7.2750 C.3   293  ILE293      0.0001
    136  N         32.6510   -8.0070  -11.9850 N.am  294  GLY294     -0.1940
    137  CA        33.0280   -8.5180  -13.3120 C.3   294  GLY294      0.2014
    138  C         33.8320   -7.4970  -14.0900 C.2   294  GLY294      0.2639
    139  O         35.0650   -7.4780  -13.9990 O.2   294  GLY294     -0.2714
    140  N         33.1460   -6.6000  -14.7900 N.am  295  ARG295     -0.1963
    141  CA        33.8220   -5.6740  -15.6960 C.3   295  ARG295      0.1729
    142  C         34.8490   -4.7640  -15.0070 C.2   295  ARG295      0.2616
    143  O         35.8750   -4.4370  -15.6130 O.2   295  ARG295     -0.2715
    144  CB        32.8030   -4.8240  -16.4490 C.3   295  ARG295      0.0348
    145  CG        32.1820   -5.5690  -17.6440 C.3   295  ARG295      0.0492
    146  CD        30.9830   -4.8080  -18.1590 C.3   295  ARG295      0.2205
    147  NE        29.8560   -4.8910  -17.2310 N.pl3 295  ARG295     -0.0865
    148  CZ        28.7090   -4.2450  -17.4160 C.cat 295  ARG295      0.5346
    149  NH1       28.5510   -3.4380  -18.4590 N.pl3 295  ARG295      0.1354
    150  NH2       27.7150   -4.3740  -16.5450 N.pl3 295  ARG295      0.1354
    151  N         34.5920   -4.3720  -13.7610 N.am  296  ALA296     -0.1977
    152  CA        35.5190   -3.4630  -13.0500 C.3   296  ALA296      0.1597
    153  C         36.8650   -4.1320  -12.7690 C.2   296  ALA296      0.2287
    154  O         37.8340   -3.4600  -12.3750 O.2   296  ALA296     -0.2864
    155  CB        34.9080   -2.9500  -11.7480 C.3   296  ALA296      0.0319
@<TRIPOS>BOND
     1    29    28    2
     2    28    27    1
     3    27    26    1
     4    27    30    1
     5    32    34   ar
     6    32    31   ar
     7    30    31    1
     8    34    36   ar
     9    31    33   ar
    10    36    35   ar
    11    33    35   ar
    12     4     3    2
    13     3     2    1
    14    21    20    2
    15    24    23    2
    16    20    19    1
    17     2     5    1
    18     2     1    1
    19   149   148    1
    20     5     6    1
    21   146   145    1
    22   146   147    1
    23    23    22    1
    24    23    25   am
    25   145   144    1
    26    22    19    1
    27   148   147    2
    28   148   150    1
    29    19    18    1
    30     6     7   ar
    31     6     8   ar
    32    40    39    2
    33   144   141    1
    34    48    47    2
    35    47    46    1
    36   141   142    1
    37   141   140    1
    38   143   142    2
    39    39    38    1
    40    49    46    1
    41    49    50    1
    42    45    46    1
    43    72    73    1
    44    72    69    1
    45   142   151   am
    46   110   107    1
    47    51    50    1
    48    51    52    1
    49    75    73   am
    50   140   138   am
    51    73    74    2
    52   109   108    2
    53    38    37    1
    54    38    41    1
    55    69    70    1
    56    69    68    1
    57    41    42    1
    58   138   139    2
    59   138   137    1
    60    53    52    1
    61   107   108    1
    62   107   106    1
    63   108   111   am
    64    70    71    2
    65   151   152    1
    66   116   117    1
    67   116   115    1
    68    42    43   ar
    69    42    44   ar
    70   117   118    2
    71   117   119   am
    72    12    11    2
    73   137   136    1
    74    11    10    1
    75    68    63   am
    76   152   153    1
    77   152   155    1
    78   111   112    1
    79   153   154    2
    80   112   115    1
    81   112   113    1
    82    17    16    1
    83    66    65    1
    84    64    63    2
    85    63    62    1
    86   136   130   am
    87    59    58    1
    88    14    13    1
    89    14    15    1
    90    10    13    1
    91    10     9    1
    92   113   114    2
    93    58    60    1
    94    58    55    1
    95    65    62    1
    96    65    67    1
    97    16    15    1
    98    62    61    1
    99    61    56   am
   100   130   131    2
   101   130   129    1
   102   127   125   am
   103    56    55    1
   104    56    57    2
   105    55    54    1
   106   126   125    2
   107   101   100    2
   108    91    92    1
   109    91    88    1
   110   125   124    1
   111   134   132    1
   112   129   132    1
   113   129   128    1
   114    95    94    1
   115    95    96    1
   116    92    93    1
   117    97    96    2
   118    94    89   am
   119   100    99    1
   120    96    98   am
   121   132   133    1
   122   128   122   am
   123    88    89    1
   124    88    87    1
   125    89    90    2
   126    81    80    1
   127   124   121    1
   128    98    99    1
   129   123   122    2
   130   122   121    1
   131    82    80    1
   132    99   102    1
   133    93    87    1
   134    80    77    1
   135   121   120    1
   136   133   135    1
   137   102   104    1
   138   102   103    1
   139    84    83    1
   140    84    85    1
   141    77    78    1
   142    77    76    1
   143    79    78    2
   144   103   105    1
   145    85    86    2
