@<TRIPOS>MOLECULE
tmp/3mwbA01.pdb
 79 78 0 0 0
SMALL
GASTEIGER

@<TRIPOS>ATOM
      1  N         43.0600   42.4640   57.0360 N.3   199  LEU199     -0.1245
      2  CA        43.4680   43.1960   58.2160 C.3   199  LEU199      0.1561
      3  C         44.9060   43.7010   58.0580 C.2   199  LEU199      0.2260
      4  O         45.8280   42.9010   57.8760 O.2   199  LEU199     -0.2867
      5  CB        43.3340   42.2940   59.4460 C.3   199  LEU199      0.0270
      6  CG        43.5620   42.8980   60.8220 C.3   199  LEU199      0.0019
      7  CD1       42.5050   43.9470   61.1630 C.3   199  LEU199      0.0001
      8  CD2       43.5600   41.7970   61.8370 C.3   199  LEU199      0.0001
      9  N         47.0020   43.9170   63.5390 N.3   202  ASP202     -0.1225
     10  CA        46.1950   43.2110   64.5280 C.3   202  ASP202      0.1805
     11  C         46.2720   43.8750   65.9050 C.2   202  ASP202      0.2598
     12  O         47.3140   43.8250   66.5610 O.2   202  ASP202     -0.2718
     13  CB        46.6420   41.7470   64.6330 C.3   202  ASP202      0.1424
     14  CG        45.5680   40.8460   65.2190 C.2   202  ASP202      0.3668
     15  OD1       44.3750   41.0380   64.9250 O.co2 202  ASP202     -0.2456
     16  OD2       45.9120   39.9270   65.9610 O.co2 202  ASP202     -0.2456
     17  N         45.1810   44.5110   66.3270 N.am  203  HIS203     -0.1962
     18  CA        45.0930   45.0910   67.6840 C.3   203  HIS203      0.1772
     19  C         43.6250   45.1070   68.1190 C.2   203  HIS203      0.2462
     20  O         42.7440   45.0000   67.2620 O.2   203  HIS203     -0.2730
     21  CB        45.7250   46.5010   67.7600 C.3   203  HIS203      0.0785
     22  CG        45.1760   47.4690   66.7530 C.ar  203  HIS203      0.0821
     23  ND1       43.8940   47.9790   66.8250 N.ar  203  HIS203     -0.2267
     24  CD2       45.7360   48.0130   65.6460 C.ar  203  HIS203      0.1154
     25  CE1       43.6870   48.7870   65.8030 C.ar  203  HIS203      0.1986
     26  NE2       44.7830   48.8170   65.0670 N.ar  203  HIS203     -0.2212
     27  N         43.3550   45.2210   69.4440 N.am  204  PRO204     -0.2716
     28  CA        41.9480   45.2900   69.8500 C.3   204  PRO204      0.1536
     29  C         41.2260   46.4600   69.1730 C.2   204  PRO204      0.2599
     30  O         41.7920   47.5610   69.0310 O.2   204  PRO204     -0.2715
     31  CB        42.0200   45.5120   71.3660 C.3   204  PRO204      0.0310
     32  CG        43.3230   44.8800   71.7760 C.3   204  PRO204      0.0237
     33  CD        44.2620   45.1580   70.6120 C.3   204  PRO204      0.0939
     34  N         39.9900   46.2160   68.7720 N.am  205  GLY205     -0.1941
     35  CA        39.1980   47.2180   68.0640 C.3   205  GLY205      0.2014
     36  C         39.5130   47.4010   66.5870 C.2   205  GLY205      0.2639
     37  O         38.9600   48.3020   65.9620 O.2   205  GLY205     -0.2714
     38  N         40.3860   46.5660   66.0160 N.am  206  ALA206     -0.1963
     39  CA        40.7810   46.7430   64.5960 C.3   206  ALA206      0.1728
     40  C         39.6180   46.4200   63.6630 C.2   206  ALA206      0.2616
     41  O         39.3480   47.1340   62.6710 O.2   206  ALA206     -0.2715
     42  CB        41.9940   45.8870   64.2490 C.3   206  ALA206      0.0334
     43  N         38.9280   45.3390   63.9940 N.am  207  LEU207     -0.1977
     44  CA        37.7470   44.9460   63.2640 C.3   207  LEU207      0.1596
     45  C         36.6590   46.0010   63.4550 C.2   207  LEU207      0.2287
     46  O         35.9740   46.3690   62.4960 O.2   207  LEU207     -0.2864
     47  CB        37.2530   43.5730   63.7220 C.3   207  LEU207      0.0297
     48  CG        35.9030   43.1390   63.1260 C.3   207  LEU207      0.0022
     49  CD1       35.9250   43.1430   61.5970 C.3   207  LEU207      0.0001
     50  CD2       35.5120   41.7580   63.6350 C.3   207  LEU207      0.0001
     51  N         35.8220   35.9430   59.9590 N.3   225  SER225     -0.1217
     52  CA        37.2650   36.0620   59.8990 C.3   225  SER225      0.1889
     53  C         37.9040   34.7440   59.4320 C.2   225  SER225      0.2288
     54  O         37.4080   33.6490   59.7160 O.2   225  SER225     -0.2866
     55  CB        37.8100   36.4920   61.2620 C.3   225  SER225      0.2089
     56  OG        37.4810   35.5210   62.2470 O.3   225  SER225     -0.2183
     57  N         44.8190   38.1900   58.9470 N.3   235  TYR235     -0.1241
     58  CA        43.4360   37.7850   58.7210 C.3   235  TYR235      0.1605
     59  C         42.8200   38.5170   57.5490 C.2   235  TYR235      0.2264
     60  O         43.2840   39.5880   57.1590 O.2   235  TYR235     -0.2867
     61  CB        42.5640   38.0740   59.9590 C.3   235  TYR235      0.0534
     62  CG        42.9920   37.3660   61.2160 C.ar  235  TYR235     -0.0201
     63  CD1       42.5180   36.0920   61.5200 C.ar  235  TYR235     -0.0009
     64  CD2       43.8820   37.9750   62.1080 C.ar  235  TYR235     -0.0009
     65  CE1       42.9170   35.4420   62.6760 C.ar  235  TYR235      0.0417
     66  CE2       44.2900   37.3340   63.2670 C.ar  235  TYR235      0.0417
     67  CZ        43.8010   36.0740   63.5460 C.ar  235  TYR235      0.1957
     68  OH        44.2150   35.4450   64.6930 O.3   235  TYR235     -0.2866
     69  N         38.5430   39.5260   56.5670 N.3   237  PHE237     -0.1241
     70  CA        37.1430   39.4470   56.9430 C.3   237  PHE237      0.1605
     71  C         36.2770   39.3710   55.6870 C.2   237  PHE237      0.2264
     72  O         36.3900   40.2020   54.7830 O.2   237  PHE237     -0.2867
     73  CB        36.7580   40.6340   57.8120 C.3   237  PHE237      0.0534
     74  CG        37.6830   40.8410   58.9760 C.ar  237  PHE237     -0.0203
     75  CD1       37.6010   40.0190   60.0850 C.ar  237  PHE237     -0.0042
     76  CD2       38.6480   41.8560   58.9500 C.ar  237  PHE237     -0.0042
     77  CE1       38.4780   40.2040   61.1800 C.ar  237  PHE237     -0.0003
     78  CE2       39.5080   42.0730   60.0410 C.ar  237  PHE237     -0.0003
     79  CZ        39.4340   41.2250   61.1520 C.ar  237  PHE237     -0.0000
@<TRIPOS>BOND
     1    72    71    2
     2    71    70    1
     3    69    70    1
     4    70    73    1
     5     1     2    1
     6    60    59    2
     7    59    58    1
     8    73    74    1
     9     4     3    2
    10     3     2    1
    11     2     5    1
    12    58    57    1
    13    58    61    1
    14    76    74   ar
    15    76    78   ar
    16    74    75   ar
    17    53    54    2
    18    53    52    1
    19     5     6    1
    20    52    51    1
    21    52    55    1
    22    61    62    1
    23    78    79   ar
    24    75    77   ar
    25     6     7    1
    26     6     8    1
    27    79    77   ar
    28    62    63   ar
    29    62    64   ar
    30    55    56    1
    31    63    65   ar
    32    49    48    1
    33    64    66   ar
    34    46    45    2
    35    41    40    2
    36    65    67   ar
    37    48    50    1
    38    48    47    1
    39    44    45    1
    40    44    47    1
    41    44    43    1
    42    66    67   ar
    43     9    10    1
    44    67    68    1
    45    40    43   am
    46    40    39    1
    47    42    39    1
    48    10    13    1
    49    10    11    1
    50    39    38    1
    51    13    14    1
    52    15    14   ar
    53    26    24   ar
    54    26    25   ar
    55    14    16   ar
    56    24    22   ar
    57    25    23   ar
    58    11    17   am
    59    11    12    2
    60    37    36    2
    61    38    36   am
    62    17    18    1
    63    36    35    1
    64    22    23   ar
    65    22    21    1
    66    20    19    2
    67    18    21    1
    68    18    19    1
    69    35    34    1
    70    19    27   am
    71    34    29   am
    72    30    29    2
    73    29    28    1
    74    27    28    1
    75    27    33    1
    76    28    31    1
    77    33    32    1
    78    31    32    1
