@<TRIPOS>MOLECULE
tmp/3mwfA00.pdb
 174 169 0 0 0
SMALL
GASTEIGER

@<TRIPOS>ATOM
      1  N          9.4320    3.5230  -12.9800 N.3    45  TRP45      -0.1241
      2  CA         8.0600    3.7730  -12.6320 C.3    45  TRP45       0.1605
      3  C          7.0830    2.8970  -13.4150 C.2    45  TRP45       0.2264
      4  O          6.0070    2.5230  -12.9080 O.2    45  TRP45      -0.2867
      5  CB         7.7010    5.2270  -12.9350 C.3    45  TRP45       0.0550
      6  CG         8.2760    6.2640  -12.0060 C.ar   45  TRP45       0.0003
      7  CD1        9.1740    7.2360  -12.3370 C.ar   45  TRP45       0.0946
      8  CD2        7.9670    6.4440  -10.6220 C.ar   45  TRP45       0.0152
      9  NE1        9.4770    8.0090  -11.2230 N.ar   45  TRP45      -0.2442
     10  CE2        8.7290    7.5620  -10.1660 C.ar   45  TRP45       0.0810
     11  CE3        7.1150    5.7910   -9.7280 C.ar   45  TRP45       0.0012
     12  CZ2        8.6700    8.0350   -8.8440 C.ar   45  TRP45       0.0191
     13  CZ3        7.0570    6.2490   -8.3940 C.ar   45  TRP45       0.0001
     14  CH2        7.8260    7.3760   -7.9720 C.ar   45  TRP45       0.0015
     15  N          9.6360    6.1860   -4.1330 N.3    68  PRO68      -0.2116
     16  CA         9.1310    6.9100   -2.9550 C.3    68  PRO68       0.1372
     17  C          9.6640    6.4070   -1.6080 C.2    68  PRO68       0.2244
     18  O          9.5450    7.1200   -0.6090 O.2    68  PRO68      -0.2868
     19  CB         7.6330    6.6470   -3.0120 C.3    68  PRO68       0.0268
     20  CG         7.3660    6.4910   -4.4880 C.3    68  PRO68       0.0207
     21  CD         8.5260    5.6760   -4.9590 C.3    68  PRO68       0.0892
     22  N         13.5260   15.7350   -2.3620 N.3    88  VAL88      -0.1231
     23  CA        12.1170   15.4270   -2.4910 C.3    88  VAL88       0.1692
     24  C         11.7470   13.9770   -2.0840 C.2    88  VAL88       0.2591
     25  O         10.7380   13.7560   -1.4080 O.2    88  VAL88      -0.2718
     26  CB        11.5550   15.8330   -3.8730 C.3    88  VAL88       0.0266
     27  CG1       12.1670   15.0040   -4.9860 C.3    88  VAL88       0.0020
     28  CG2       10.0490   15.7050   -3.8350 C.3    88  VAL88       0.0020
     29  N         12.5580   12.9970   -2.4700 N.am   89  ARG89      -0.1980
     30  CA        12.2390   11.6180   -2.1100 C.3    89  ARG89       0.1597
     31  C         12.7950   11.2060   -0.7530 C.2    89  ARG89       0.2287
     32  O         12.1480   10.4560   -0.0300 O.2    89  ARG89      -0.2864
     33  CB        12.7880   10.6340   -3.1410 C.3    89  ARG89       0.0334
     34  CG        12.3530   10.8960   -4.6010 C.3    89  ARG89       0.0492
     35  CD        10.8710   10.8930   -4.7540 C.3    89  ARG89       0.2205
     36  NE        10.5600   11.0010   -6.1740 N.pl3  89  ARG89      -0.0865
     37  CZ         9.3810   11.3700   -6.6510 C.cat  89  ARG89       0.5346
     38  NH1        8.3950   11.6970   -5.8260 N.pl3  89  ARG89       0.1354
     39  NH2        9.1960   11.4100   -7.9690 N.pl3  89  ARG89       0.1354
     40  N         15.5040   18.1470   -6.3820 N.3   108  THR108     -0.1203
     41  CA        14.4250   17.3180   -6.9330 C.3   108  THR108      0.1994
     42  C         14.9520   16.3400   -7.9680 C.2   108  THR108      0.2618
     43  O         16.1470   16.1310   -8.0850 O.2   108  THR108     -0.2717
     44  CB        13.2520   18.1460   -7.5050 C.3   108  THR108      0.1784
     45  OG1       12.0800   17.3030   -7.7930 O.3   108  THR108     -0.2211
     46  CG2       13.7340   18.8860   -8.7300 C.3   108  THR108      0.0376
     47  N         14.0220   15.7490   -8.7110 N.am  109  VAL109     -0.1965
     48  CA        14.3730   14.5910   -9.5210 C.3   109  VAL109      0.1727
     49  C         14.4530   14.9130  -11.0060 C.2   109  VAL109      0.2616
     50  O         14.8720   14.0610  -11.7800 O.2   109  VAL109     -0.2715
     51  CB        13.3770   13.4100   -9.3030 C.3   109  VAL109      0.0290
     52  CG1       13.3630   12.9850   -7.8280 C.3   109  VAL109      0.0023
     53  CG2       11.9440   13.7840   -9.8170 C.3   109  VAL109      0.0023
     54  N         13.9680   16.0920  -11.3950 N.am  110  PHE110     -0.1974
     55  CA        13.7610   16.3500  -12.8400 C.3   110  PHE110      0.1639
     56  C         14.7140   17.3760  -13.4440 C.2   110  PHE110      0.2290
     57  O         14.6750   17.6050  -14.6830 O.2   110  PHE110     -0.2864
     58  CB        12.2910   16.7360  -13.1390 C.3   110  PHE110      0.0560
     59  CG        11.8050   17.9220  -12.3560 C.ar  110  PHE110     -0.0200
     60  CD1       12.2380   19.2280  -12.6820 C.ar  110  PHE110     -0.0042
     61  CD2       10.9240   17.7470  -11.2930 C.ar  110  PHE110     -0.0042
     62  CE1       11.7970   20.3320  -11.9220 C.ar  110  PHE110     -0.0003
     63  CE2       10.4530   18.8130  -10.5440 C.ar  110  PHE110     -0.0003
     64  CZ        10.8840   20.1360  -10.8620 C.ar  110  PHE110     -0.0000
     65  N         -4.2310   12.0800  -15.2210 N.3   165  ARG165     -0.1245
     66  CA        -3.9320   11.0230  -14.2240 C.3   165  ARG165      0.1563
     67  C         -5.2240   10.2970  -13.9110 C.2   165  ARG165      0.2260
     68  O         -6.2500   10.5670  -14.5240 O.2   165  ARG165     -0.2867
     69  CB        -3.3380   11.6260  -12.9600 C.3   165  ARG165      0.0307
     70  CG        -2.0100   12.3700  -13.2000 C.3   165  ARG165      0.0489
     71  CD        -0.9600   12.0100  -12.1070 C.3   165  ARG165      0.2205
     72  NE         0.3590   12.2100  -12.6820 N.pl3 165  ARG165     -0.0865
     73  CZ         1.4360   11.5150  -12.4100 C.cat 165  ARG165      0.5346
     74  NH1        1.4310   10.4830  -11.5310 N.pl3 165  ARG165      0.1354
     75  NH2        2.5330   11.8560  -13.0440 N.pl3 165  ARG165      0.1354
     76  N         -2.7960   17.2550  -14.3440 N.3   170  ARG170     -0.1245
     77  CA        -1.6850   18.1510  -14.0040 C.3   170  ARG170      0.1563
     78  C         -1.2310   19.0080  -15.1770 C.2   170  ARG170      0.2260
     79  O         -1.3930   18.6270  -16.3260 O.2   170  ARG170     -0.2867
     80  CB        -0.4840   17.3300  -13.5250 C.3   170  ARG170      0.0307
     81  CG        -0.7380   16.6680  -12.1410 C.3   170  ARG170      0.0489
     82  CD         0.4470   15.7790  -11.8300 C.3   170  ARG170      0.2205
     83  NE         0.2320   15.0790  -10.5520 N.pl3 170  ARG170     -0.0865
     84  CZ         1.2260   14.5040   -9.8770 C.cat 170  ARG170      0.5346
     85  NH1        2.4560   14.4880  -10.4000 N.pl3 170  ARG170      0.1354
     86  NH2        0.9740   13.8890   -8.7090 N.pl3 170  ARG170      0.1354
     87  N          2.4570   20.3410  -16.3280 N.3   172  TYR172     -0.1241
     88  CA         3.8900   20.3520  -16.0300 C.3   172  TYR172      0.1605
     89  C          4.4240   21.6520  -16.6120 C.2   172  TYR172      0.2264
     90  O          4.9680   21.6690  -17.7020 O.2   172  TYR172     -0.2867
     91  CB         4.6060   19.0970  -16.5900 C.3   172  TYR172      0.0534
     92  CG         4.3650   17.9130  -15.7110 C.ar  172  TYR172     -0.0201
     93  CD1        3.1030   17.3210  -15.6490 C.ar  172  TYR172     -0.0009
     94  CD2        5.3980   17.3960  -14.9090 C.ar  172  TYR172     -0.0009
     95  CE1        2.8450   16.2440  -14.7770 C.ar  172  TYR172      0.0417
     96  CE2        5.1620   16.3240  -14.0480 C.ar  172  TYR172      0.0417
     97  CZ         3.8840   15.7500  -13.9860 C.ar  172  TYR172      0.1957
     98  OH         3.6010   14.6960  -13.1470 O.3   172  TYR172     -0.2866
     99  N          9.9160   18.1890  -15.4630 N.3   176  TYR176     -0.1241
    100  CA        10.8640   17.6980  -16.4570 C.3   176  TYR176      0.1605
    101  C         10.6450   18.3290  -17.8320 C.2   176  TYR176      0.2264
    102  O         11.5910   18.9340  -18.3850 O.2   176  TYR176     -0.2867
    103  CB        10.7610   16.1710  -16.6000 C.3   176  TYR176      0.0534
    104  CG        11.8550   15.6520  -17.4920 C.ar  176  TYR176     -0.0201
    105  CD1       13.1890   15.6080  -17.0320 C.ar  176  TYR176     -0.0009
    106  CD2       11.5740   15.2310  -18.7980 C.ar  176  TYR176     -0.0009
    107  CE1       14.1990   15.1580  -17.8620 C.ar  176  TYR176      0.0417
    108  CE2       12.6120   14.7770  -19.6370 C.ar  176  TYR176      0.0417
    109  CZ        13.8960   14.7490  -19.1570 C.ar  176  TYR176      0.1957
    110  OH        14.9210   14.2830  -19.9390 O.3   176  TYR176     -0.2866
    111  N          5.9120   24.3180   -9.9950 N.3   201  ASP201     -0.1225
    112  CA         6.5190   23.5530  -11.0920 C.3   201  ASP201      0.1805
    113  C          5.4170   22.6830  -11.7340 C.2   201  ASP201      0.2597
    114  O          5.2080   22.6870  -12.9590 O.2   201  ASP201     -0.2718
    115  CB         7.5820   22.5620  -10.5760 C.3   201  ASP201      0.1424
    116  CG         8.7630   23.2100   -9.8650 C.2   201  ASP201      0.3668
    117  OD1        9.3770   24.1700  -10.3900 O.co2 201  ASP201     -0.2456
    118  OD2        9.1090   22.7000   -8.7690 O.co2 201  ASP201     -0.2456
    119  N          4.7150   21.9240  -10.8950 N.am  202  ILE202     -0.1980
    120  CA         3.7420   20.9530  -11.3860 C.3   202  ILE202      0.1595
    121  C          2.4440   21.3310  -10.7190 C.2   202  ILE202      0.2287
    122  O          2.3660   21.3440   -9.4810 O.2   202  ILE202     -0.2864
    123  CB         4.1680   19.5130  -11.0030 C.3   202  ILE202      0.0276
    124  CG1        5.5020   19.1850  -11.6940 C.3   202  ILE202      0.0022
    125  CG2        3.0360   18.4950  -11.3840 C.3   202  ILE202      0.0022
    126  CD1        6.2720   17.9790  -11.1240 C.3   202  ILE202      0.0001
    127  N         -1.4070   20.7280   -9.8550 N.3   204  GLN204     -0.1245
    128  CA        -2.4440   19.7110   -9.8110 C.3   204  GLN204      0.1566
    129  C         -3.7540   20.4290   -9.9460 C.2   204  GLN204      0.2260
    130  O         -3.9650   21.4640   -9.2800 O.2   204  GLN204     -0.2867
    131  CB        -2.4080   18.9720   -8.4810 C.3   204  GLN204      0.0367
    132  CG        -1.1730   18.1900   -8.3230 C.3   204  GLN204      0.0905
    133  CD        -1.3220   17.0820   -7.2720 C.2   204  GLN204      0.2608
    134  OE1       -0.5000   16.1820   -7.2280 O.2   204  GLN204     -0.2717
    135  NE2       -2.3880   17.1480   -6.4260 N.am  204  GLN204     -0.0878
    136  N          0.0840    7.7540  -14.9540 N.3   225  ASP225     -0.1225
    137  CA        -0.1570    7.6810  -13.5100 C.3   225  ASP225      0.1790
    138  C          0.3770    6.3220  -13.0330 C.2   225  ASP225      0.2440
    139  O         -0.3910    5.3280  -12.9360 O.2   225  ASP225     -0.2733
    140  CB        -1.6520    7.8680  -13.1660 C.3   225  ASP225      0.1423
    141  CG        -1.9060    8.0650  -11.6780 C.2   225  ASP225      0.3668
    142  OD1       -1.0200    7.7400  -10.8580 O.co2 225  ASP225     -0.2456
    143  OD2       -3.0210    8.4940  -11.2940 O.co2 225  ASP225     -0.2456
    144  N          1.6950    6.2630  -12.7590 N.am  226  PRO226     -0.2718
    145  CA         2.3540    4.9590  -12.6040 C.3   226  PRO226      0.1535
    146  C          1.7770    4.1150  -11.4970 C.2   226  PRO226      0.2598
    147  O          1.6840    2.8800  -11.6370 O.2   226  PRO226     -0.2715
    148  CB         3.7880    5.3420  -12.2320 C.3   226  PRO226      0.0310
    149  CG         4.0090    6.5820  -13.1010 C.3   226  PRO226      0.0237
    150  CD         2.6840    7.3500  -12.9520 C.3   226  PRO226      0.0939
    151  N          1.4280    4.7580  -10.4010 N.am  227  ASN227     -0.1973
    152  CA         0.9350    4.0050   -9.2560 C.3   227  ASN227      0.1688
    153  C         -0.5840    3.7980   -9.1440 C.2   227  ASN227      0.2292
    154  O         -1.0680    3.2000   -8.1610 O.2   227  ASN227     -0.2864
    155  CB         1.6020    4.5390   -8.0050 C.3   227  ASN227      0.1181
    156  CG         3.0610    4.0670   -7.9110 C.2   227  ASN227      0.2629
    157  OD1        3.8500    4.5880   -7.1240 O.2   227  ASN227     -0.2716
    158  ND2        3.4100    3.0600   -8.7090 N.am  227  ASN227     -0.0877
    159  N          8.3410   12.4280  -19.1360 N.3   268  ASN268     -0.1225
    160  CA         8.3760   12.7000  -17.7120 C.3   268  ASN268      0.1785
    161  C          9.0960   11.6780  -16.8360 C.2   268  ASN268      0.2597
    162  O          9.8210   12.0550  -15.8890 O.2   268  ASN268     -0.2718
    163  CB         6.9470   12.8490  -17.1470 C.3   268  ASN268      0.1169
    164  CG         6.9660   13.4130  -15.7440 C.2   268  ASN268      0.2627
    165  OD1        7.5950   14.4510  -15.4950 O.2   268  ASN268     -0.2716
    166  ND2        6.2880   12.7380  -14.8250 N.am  268  ASN268     -0.0877
    167  N          8.8760   10.3950  -17.1070 N.am  269  LEU269     -0.1980
    168  CA         9.2950    9.4060  -16.0760 C.3   269  LEU269      0.1596
    169  C         10.7860    9.1750  -15.9820 C.2   269  LEU269      0.2287
    170  O         11.2930    9.0090  -14.8630 O.2   269  LEU269     -0.2864
    171  CB         8.5680    8.0740  -16.2630 C.3   269  LEU269      0.0297
    172  CG         7.0450    8.1280  -16.1760 C.3   269  LEU269      0.0022
    173  CD1        6.4270    6.7290  -16.4300 C.3   269  LEU269      0.0001
    174  CD2        6.4540    8.7560  -14.8850 C.3   269  LEU269      0.0001
@<TRIPOS>BOND
     1   110   109    1
     2   108   109   ar
     3   108   106   ar
     4   109   107   ar
     5   159   160    1
     6   106   104   ar
     7   102   101    2
     8   107   105   ar
     9   101   100    1
    10   160   163    1
    11   160   161    1
    12    90    89    2
    13   104   105   ar
    14   104   103    1
    15   163   164    1
    16   167   161   am
    17   167   168    1
    18   161   162    2
    19    89    88    1
    20   103   100    1
    21    91    88    1
    22    91    92    1
    23   100    99    1
    24   173   172    1
    25    87    88    1
    26    79    78    2
    27   171   172    1
    28   171   168    1
    29   172   174    1
    30   168   169    1
    31   169   170    2
    32   164   165    2
    33   164   166   am
    34    92    93   ar
    35    92    94   ar
    36    93    95   ar
    37    65    66    1
    38    78    77    1
    39   136   137    1
    40    94    96   ar
    41    95    97   ar
    42    57    56    2
    43    68    67    2
    44    76    77    1
    45    66    67    1
    46    66    69    1
    47    96    97   ar
    48    77    80    1
    49    97    98    1
    50    80    81    1
    51   137   140    1
    52   137   138    1
    53    56    55    1
    54     3     4    2
    55     3     2    1
    56    70    69    1
    57    70    71    1
    58   140   141    1
    59    58    55    1
    60    58    59    1
    61   149   150    1
    62   149   148    1
    63    75    73    1
    64   138   139    2
    65   138   144   am
    66     1     2    1
    67   114   113    2
    68   150   144    1
    69     5     2    1
    70     5     6    1
    71    55    54    1
    72   144   145    1
    73    60    59   ar
    74    60    62   ar
    75    72    73    2
    76    72    71    1
    77   145   148    1
    78   145   146    1
    79    73    74    1
    80    59    61   ar
    81     7     6   ar
    82     7     9   ar
    83    81    82    1
    84     6     8   ar
    85    62    64   ar
    86    82    83    1
    87    50    49    2
    88   113   112    1
    89   113   119   am
    90   124   126    1
    91   124   123    1
    92   141   143   ar
    93   141   142   ar
    94   147   146    2
    95   146   151   am
    96    54    49   am
    97   120   123    1
    98   120   119    1
    99   120   121    1
   100   125   123    1
   101    61    63   ar
   102     9    10   ar
   103   112   115    1
   104   112   111    1
   105    49    48    1
   106    64    63   ar
   107   121   122    2
   108     8    10   ar
   109     8    11   ar
   110   115   116    1
   111    83    84    2
   112   151   152    1
   113    85    84    1
   114   117   116   ar
   115    10    12   ar
   116   129   128    1
   117   129   130    2
   118    84    86    1
   119   116   118   ar
   120   127   128    1
   121    53    51    1
   122   128   131    1
   123    11    13   ar
   124    48    51    1
   125    48    47    1
   126    51    52    1
   127   152   153    1
   128   152   155    1
   129   153   154    2
   130    12    14   ar
   131    46    44    1
   132    47    42   am
   133   158   156   am
   134   131   132    1
   135    13    14   ar
   136   132   133    1
   137    43    42    2
   138   155   156    1
   139    39    37    1
   140    42    41    1
   141   156   157    2
   142    45    44    1
   143    44    41    1
   144   133   134    2
   145   133   135   am
   146    41    40    1
   147    37    36    2
   148    37    38    1
   149    36    35    1
   150    27    26    1
   151    21    20    1
   152    21    15    1
   153    35    34    1
   154    34    33    1
   155    20    19    1
   156    15    16    1
   157    26    28    1
   158    26    23    1
   159    33    30    1
   160    19    16    1
   161    16    17    1
   162    23    22    1
   163    23    24    1
   164    29    30    1
   165    29    24   am
   166    30    31    1
   167    24    25    2
   168    17    18    2
   169    31    32    2
