@<TRIPOS>MOLECULE
tmp/3mwiA00.pdb
 120 120 0 0 0
SMALL
GASTEIGER

@<TRIPOS>ATOM
      1  N        -27.2950   -8.2970    4.2810 N.3    46  HIS46      -0.1241
      2  CA       -26.6650   -8.3070    5.6150 C.3    46  HIS46       0.1621
      3  C        -25.2670   -8.9390    5.6380 C.2    46  HIS46       0.2264
      4  O        -24.4990   -8.7290    6.5750 O.2    46  HIS46      -0.2867
      5  CB       -27.5890   -8.9440    6.6740 C.3    46  HIS46       0.0745
      6  CG       -27.3800  -10.4200    6.8900 C.ar   46  HIS46       0.0817
      7  ND1      -28.2360  -11.3780    6.3800 N.ar   46  HIS46      -0.2268
      8  CD2      -26.4450  -11.0950    7.6060 C.ar   46  HIS46       0.1154
      9  CE1      -27.8290  -12.5780    6.7630 C.ar   46  HIS46       0.1986
     10  NE2      -26.7480  -12.4320    7.5090 N.ar   46  HIS46      -0.2212
     11  N        -31.9490  -27.4490    9.7260 N.3   192  ASP192     -0.1225
     12  CA       -32.1410  -26.0170    9.5980 C.3   192  ASP192      0.1805
     13  C        -30.9140  -25.3820    8.9540 C.2   192  ASP192      0.2598
     14  O        -29.8400  -26.0080    8.8560 O.2   192  ASP192     -0.2718
     15  CB       -32.3360  -25.4150   11.0000 C.3   192  ASP192      0.1424
     16  CG       -33.1470  -24.1290   10.9950 C.2   192  ASP192      0.3668
     17  OD1      -33.5020  -23.6240    9.9000 O.co2 192  ASP192     -0.2456
     18  OD2      -33.4340  -23.6230   12.1090 O.co2 192  ASP192     -0.2456
     19  N        -31.0720  -24.1310    8.5350 N.am  193  SER193     -0.1938
     20  CA       -29.9230  -23.2950    8.2230 C.3   193  SER193      0.2055
     21  C        -29.3500  -22.7890    9.5500 C.2   193  SER193      0.2643
     22  O        -30.0440  -22.7890   10.5710 O.2   193  SER193     -0.2714
     23  CB       -30.3410  -22.1330    7.3430 C.3   193  SER193      0.2130
     24  OG       -31.4350  -21.4800    7.9370 O.3   193  SER193     -0.2179
     25  N        -28.0770  -22.3960    9.5370 N.am  194  CYS194     -0.1953
     26  CA       -27.4230  -21.8170   10.7160 C.3   194  CYS194      0.1843
     27  C        -26.3780  -20.7780   10.2970 C.2   194  CYS194      0.2625
     28  O        -26.2550  -20.4690    9.1080 O.2   194  CYS194     -0.2714
     29  CB       -26.7780  -22.9100   11.5790 C.3   194  CYS194      0.0997
     30  SG       -26.5940  -22.4820   13.3570 S.3   194  CYS194     -0.0797
     31  N        -25.6380  -20.2390   11.2730 N.am  195  GLN195     -0.1963
     32  CA       -24.6200  -19.2270   11.0210 C.3   195  GLN195      0.1733
     33  C        -23.6810  -19.6130    9.8700 C.2   195  GLN195      0.2616
     34  O        -23.1730  -20.7270    9.8110 O.2   195  GLN195     -0.2715
     35  CB       -23.8310  -18.9000   12.3060 C.3   195  GLN195      0.0408
     36  CG       -22.8900  -17.7170   12.1270 C.3   195  GLN195      0.0908
     37  CD       -21.9650  -17.4760   13.2940 C.2   195  GLN195      0.2608
     38  OE1      -22.2560  -17.8470   14.4290 O.2   195  GLN195     -0.2717
     39  NE2      -20.8450  -16.8300   13.0220 N.am  195  GLN195     -0.0878
     40  N        -23.4870  -18.6930    8.9340 N.am  196  GLY196     -0.1955
     41  CA       -22.7060  -18.9970    7.7430 C.3   196  GLY196      0.1869
     42  C        -23.5060  -19.4410    6.5280 C.2   196  GLY196      0.2309
     43  O        -22.9850  -19.4320    5.4130 O.2   196  GLY196     -0.2863
     44  N        -26.2050  -17.8770    5.4290 N.3   198  SER198     -0.1217
     45  CA       -26.9030  -16.7070    4.8750 C.3   198  SER198      0.1889
     46  C        -26.5090  -16.4320    3.4250 C.2   198  SER198      0.2288
     47  O        -25.4200  -16.7810    2.9910 O.2   198  SER198     -0.2866
     48  CB       -26.6450  -15.4810    5.7530 C.3   198  SER198      0.2089
     49  OG       -27.2680  -15.6480    7.0180 O.3   198  SER198     -0.2183
     50  N        -31.4250  -17.4470    2.1470 N.3   216  VAL216     -0.1231
     51  CA       -31.2350  -17.5640    3.6040 C.3   216  VAL216      0.1692
     52  C        -30.9870  -16.1600    4.1960 C.2   216  VAL216      0.2593
     53  O        -30.1050  -15.4260    3.7210 O.2   216  VAL216     -0.2718
     54  CB       -30.0480  -18.4890    3.9580 C.3   216  VAL216      0.0266
     55  CG1      -30.0470  -18.8180    5.4350 C.3   216  VAL216      0.0020
     56  CG2      -30.0640  -19.7860    3.1290 C.3   216  VAL216      0.0020
     57  N        -31.7580  -15.7920    5.2220 N.am  217  SER217     -0.1938
     58  CA       -31.7040  -14.4290    5.7580 C.3   217  SER217      0.2055
     59  C        -31.4840  -14.3210    7.2740 C.2   217  SER217      0.2643
     60  O        -30.5160  -13.7030    7.7140 O.2   217  SER217     -0.2714
     61  CB       -32.9490  -13.6300    5.3410 C.3   217  SER217      0.2130
     62  OG       -32.9090  -12.3010    5.8410 O.3   217  SER217     -0.2179
     63  N        -32.3950  -14.8710    8.0700 N.am  218  TRP218     -0.1959
     64  CA       -32.2580  -14.8050    9.5360 C.3   218  TRP218      0.1771
     65  C        -33.0200  -15.9230   10.2410 C.2   218  TRP218      0.2620
     66  O        -33.8410  -16.6180    9.6350 O.2   218  TRP218     -0.2715
     67  CB       -32.7240  -13.4440   10.0560 C.3   218  TRP218      0.0590
     68  CG       -34.1670  -13.1080    9.7150 C.ar  218  TRP218      0.0006
     69  CD1      -34.6330  -12.5630    8.5500 C.ar  218  TRP218      0.0946
     70  CD2      -35.3080  -13.2610   10.5690 C.ar  218  TRP218      0.0152
     71  NE1      -35.9940  -12.3870    8.6220 N.ar  218  TRP218     -0.2442
     72  CE2      -36.4330  -12.8140    9.8470 C.ar  218  TRP218      0.0810
     73  CE3      -35.4870  -13.7460   11.8710 C.ar  218  TRP218      0.0012
     74  CZ2      -37.7210  -12.8380   10.3820 C.ar  218  TRP218      0.0191
     75  CZ3      -36.7570  -13.7650   12.3930 C.ar  218  TRP218      0.0001
     76  CH2      -37.8620  -13.3070   11.6540 C.ar  218  TRP218      0.0015
     77  N        -32.7370  -16.1060   11.5190 N.am  219  GLY219     -0.1954
     78  CA       -33.5310  -17.0160   12.3270 C.3   219  GLY219      0.1869
     79  C        -33.1350  -16.8640   13.7690 C.2   219  GLY219      0.2309
     80  O        -32.0220  -16.4100   14.0520 O.2   219  GLY219     -0.2863
     81  N        -31.5940  -18.6580   16.6690 N.3   221  GLY221     -0.1210
     82  CA       -30.9020  -19.9060   16.8610 C.3   221  GLY221      0.1956
     83  C        -30.8590  -20.7670   15.5880 C.2   221  GLY221      0.2612
     84  O        -30.9540  -20.2060   14.4940 O.2   221  GLY221     -0.2717
     85  N        -30.7400  -22.0840   15.7430 N.am  222  CYS222     -0.1970
     86  CA       -30.8140  -23.0000   14.6240 C.3   222  CYS222      0.1712
     87  C        -31.4710  -24.2790   15.1090 C.2   222  CYS222      0.2296
     88  O        -31.1360  -24.7980   16.1870 O.2   222  CYS222     -0.2864
     89  CB       -29.4080  -23.2850   14.1090 C.3   222  CYS222      0.0983
     90  SG       -28.4200  -21.7930   13.8930 S.3   222  CYS222     -0.0798
     91  N        -38.4240  -21.0580   13.1070 N.3   228  PRO228     -0.2102
     92  CA       -37.9260  -21.5100   11.8050 C.3   228  PRO228      0.1504
     93  C        -36.7980  -20.6460   11.2220 C.2   228  PRO228      0.2576
     94  O        -36.4640  -19.5770   11.7510 O.2   228  PRO228     -0.2718
     95  CB       -39.1740  -21.4950   10.8960 C.3   228  PRO228      0.0282
     96  CG       -40.1830  -20.6220   11.5810 C.3   228  PRO228      0.0208
     97  CD       -39.8310  -20.6070   13.0640 C.3   228  PRO228      0.0893
     98  N        -36.2000  -21.1470   10.1510 N.am  229  GLY229     -0.1943
     99  CA       -35.3820  -20.3290    9.2690 C.3   229  GLY229      0.2014
    100  C        -36.2780  -19.3990    8.4720 C.2   229  GLY229      0.2639
    101  O        -37.3940  -19.7720    8.1100 O.2   229  GLY229     -0.2714
    102  N        -35.7860  -18.1770    8.2500 N.am  230  VAL230     -0.1963
    103  CA       -36.4460  -17.1650    7.4330 C.3   230  VAL230      0.1727
    104  C        -35.6080  -16.7950    6.1970 C.2   230  VAL230      0.2616
    105  O        -34.3710  -16.6940    6.2430 O.2   230  VAL230     -0.2715
    106  CB       -36.8710  -15.9100    8.2310 C.3   230  VAL230      0.0290
    107  CG1      -37.7900  -15.0330    7.3730 C.3   230  VAL230      0.0023
    108  CG2      -37.5970  -16.3060    9.5180 C.3   230  VAL230      0.0023
    109  N        -36.3290  -16.5900    5.0920 N.am  231  TYR231     -0.1974
    110  CA       -35.7690  -16.5140    3.7540 C.3   231  TYR231      0.1639
    111  C        -36.3540  -15.3080    3.0430 C.2   231  TYR231      0.2290
    112  O        -37.5150  -14.9620    3.2290 O.2   231  TYR231     -0.2864
    113  CB       -36.0830  -17.8150    2.9740 C.3   231  TYR231      0.0560
    114  CG       -35.4820  -19.0340    3.6550 C.ar  231  TYR231     -0.0198
    115  CD1      -36.1220  -19.6530    4.7440 C.ar  231  TYR231     -0.0009
    116  CD2      -34.2650  -19.5520    3.2270 C.ar  231  TYR231     -0.0009
    117  CE1      -35.5490  -20.7530    5.3960 C.ar  231  TYR231      0.0417
    118  CE2      -33.6890  -20.6440    3.8620 C.ar  231  TYR231      0.0417
    119  CZ       -34.3320  -21.2470    4.9420 C.ar  231  TYR231      0.1957
    120  OH       -33.7380  -22.3340    5.5480 O.3   231  TYR231     -0.2866
@<TRIPOS>BOND
     1    50    51    1
     2   113   114    1
     3   113   110    1
     4    47    46    2
     5   111   112    2
     6   111   110    1
     7    56    54    1
     8   116   114   ar
     9   116   118   ar
    10    46    45    1
    11    51    54    1
    12    51    52    1
    13   114   115   ar
    14    53    52    2
    15   110   109    1
    16   118   119   ar
    17    54    55    1
    18    52    57   am
    19     1     2    1
    20   115   117   ar
    21    45    44    1
    22    45    48    1
    23   119   117   ar
    24   119   120    1
    25   109   104   am
    26    57    58    1
    27    61    58    1
    28    61    62    1
    29    43    42    2
    30     2     3    1
    31     2     5    1
    32     3     4    2
    33    48    49    1
    34    58    59    1
    35   104   105    2
    36   104   103    1
    37     7     9   ar
    38     7     6   ar
    39    42    41    1
    40     5     6    1
    41     9    10   ar
    42     6     8   ar
    43    59    60    2
    44    59    63   am
    45    23    24    1
    46    23    20    1
    47   107   106    1
    48   103   106    1
    49   103   102    1
    50    10     8   ar
    51    41    40    1
    52    63    64    1
    53   101   100    2
    54    20    19    1
    55    20    21    1
    56   106   108    1
    57   102   100   am
    58   100    99    1
    59    19    13   am
    60    69    71   ar
    61    69    68   ar
    62    71    72   ar
    63    14    13    2
    64    40    33   am
    65    13    12    1
    66    28    27    2
    67    99    98    1
    68    64    67    1
    69    64    65    1
    70    25    21   am
    71    25    26    1
    72    21    22    2
    73    12    11    1
    74    12    15    1
    75    66    65    2
    76    68    67    1
    77    68    70   ar
    78    34    33    2
    79    72    74   ar
    80    72    70   ar
    81    33    32    1
    82    17    16   ar
    83    98    93   am
    84    65    77   am
    85    27    26    1
    86    27    31   am
    87    74    76   ar
    88    70    73   ar
    89    26    29    1
    90    95    96    1
    91    95    92    1
    92    16    15    1
    93    16    18   ar
    94    32    31    1
    95    32    35    1
    96    93    94    2
    97    93    92    1
    98    77    78    1
    99    29    30    1
   100    96    97    1
   101    76    75   ar
   102    92    91    1
   103    73    75   ar
   104    36    35    1
   105    36    37    1
   106    78    79    1
   107    39    37   am
   108    97    91    1
   109    37    38    2
   110    30    90    1
   111    79    80    2
   112    90    89    1
   113    89    86    1
   114    84    83    2
   115    86    87    1
   116    86    85    1
   117    87    88    2
   118    83    85   am
   119    83    82    1
   120    81    82    1
