@<TRIPOS>MOLECULE
tmp/3mwlB00.pdb
 110 104 0 0 0
SMALL
GASTEIGER

@<TRIPOS>ATOM
      1  N          1.2320   11.6490   23.0460 N.3     3  PHE3       -0.1241
      2  CA         1.8430   11.6350   21.7260 C.3     3  PHE3        0.1605
      3  C          0.8110   11.3050   20.6400 C.2     3  PHE3        0.2264
      4  O          0.8900   11.8390   19.5300 O.2     3  PHE3       -0.2867
      5  CB         3.0360   10.6740   21.6860 C.3     3  PHE3        0.0534
      6  CG         4.2510   11.1860   22.4220 C.ar    3  PHE3       -0.0203
      7  CD1        4.8170   12.4020   22.0790 C.ar    3  PHE3       -0.0042
      8  CD2        4.8220   10.4510   23.4510 C.ar    3  PHE3       -0.0042
      9  CE1        5.9340   12.8820   22.7480 C.ar    3  PHE3       -0.0003
     10  CE2        5.9410   10.9240   24.1280 C.ar    3  PHE3       -0.0003
     11  CZ         6.4970   12.1370   23.7750 C.ar    3  PHE3       -0.0000
     12  N          6.6610    2.2120   25.5980 N.3    20  GLY20      -0.1210
     13  CA         6.1470    2.8260   26.8070 C.3    20  GLY20       0.1956
     14  C          6.3430    4.3330   26.8250 C.2    20  GLY20       0.2612
     15  O          6.4330    4.9410   27.8900 O.2    20  GLY20      -0.2717
     16  N          6.4280    4.9320   25.6420 N.am   21  LEU21      -0.1965
     17  CA         6.4860    6.3860   25.5180 C.3    21  LEU21       0.1728
     18  C          5.1100    6.9060   25.1300 C.2    21  LEU21       0.2617
     19  O          4.6400    6.6630   24.0180 O.2    21  LEU21      -0.2715
     20  CB         7.5190    6.8000   24.4710 C.3    21  LEU21       0.0311
     21  CG         8.9790    6.4310   24.7540 C.3    21  LEU21       0.0022
     22  CD1        9.8540    6.7500   23.5530 C.3    21  LEU21       0.0001
     23  CD2        9.5020    7.1440   25.9940 C.3    21  LEU21       0.0001
     24  N          4.4630    7.6190   26.0480 N.am   22  THR22      -0.1937
     25  CA         3.0940    8.0720   25.8360 C.3    22  THR22       0.2028
     26  C          2.9280    9.5630   26.0750 C.2    22  THR22       0.2642
     27  O          2.0900   10.2000   25.4490 O.2    22  THR22      -0.2714
     28  CB         2.1300    7.3900   26.8040 C.3    22  THR22       0.1808
     29  OG1        2.4560    7.7870   28.1430 O.3    22  THR22      -0.2208
     30  CG2        2.2220    5.8680   26.6810 C.3    22  THR22       0.0379
     31  N          3.7160   10.1040   26.9980 N.am   23  THR23      -0.1950
     32  CA         3.5030   11.4620   27.4820 C.3    23  THR23       0.1897
     33  C          4.6940   12.3710   27.2380 C.2    23  THR23       0.2313
     34  O          5.7870   12.1200   27.7460 O.2    23  THR23      -0.2863
     35  CB         3.2040   11.4710   28.9890 C.3    23  THR23       0.1794
     36  OG1        2.1210   10.5770   29.2660 O.3    23  THR23      -0.2208
     37  CG2        2.8310   12.8790   29.4480 C.3    23  THR23       0.0378
     38  N          7.1380   15.3700   27.8840 N.3    25  THR25      -0.1218
     39  CA         7.4660   16.2460   28.9910 C.3    25  THR25       0.1862
     40  C          6.9990   17.6480   28.6040 C.2    25  THR25       0.2287
     41  O          6.7210   17.9070   27.4290 O.2    25  THR25      -0.2866
     42  CB         8.9730   16.2600   29.2570 C.3    25  THR25       0.1770
     43  OG1        9.6470   16.7660   28.1020 O.3    25  THR25      -0.2211
     44  CG2        9.4740   14.8450   29.5600 C.3    25  THR25       0.0375
     45  N          8.7400   19.1360   25.5870 N.3    28  GLU28      -0.1245
     46  CA         8.3130   18.4480   24.3740 C.3    28  GLU28       0.1567
     47  C          6.9110   18.8750   23.9450 C.2    28  GLU28       0.2260
     48  O          6.6710   19.1140   22.7640 O.2    28  GLU28      -0.2867
     49  CB         8.3700   16.9410   24.5980 C.3    28  GLU28       0.0388
     50  CG         9.7950   16.4360   24.7400 C.3    28  GLU28       0.1160
     51  CD         9.8730   14.9890   25.1770 C.2    28  GLU28       0.3649
     52  OE1        8.8630   14.4490   25.6850 O.co2  28  GLU28      -0.2457
     53  OE2       10.9600   14.3960   25.0210 O.co2  28  GLU28      -0.2457
     54  N         19.5070   16.8080   32.0820 N.3    48  GLY48      -0.1210
     55  CA        18.9870   15.5010   32.4330 C.3    48  GLY48       0.1956
     56  C         17.4990   15.3600   32.1760 C.2    48  GLY48       0.2613
     57  O         16.9920   14.2460   32.0350 O.2    48  GLY48      -0.2717
     58  N         16.7930   16.4860   32.1190 N.am   49  THR49      -0.1938
     59  CA        15.3650   16.4690   31.8120 C.3    49  THR49       0.2028
     60  C         15.1370   15.8780   30.4240 C.2    49  THR49       0.2643
     61  O         15.9200   16.1120   29.5020 O.2    49  THR49      -0.2714
     62  CB        14.7410   17.8780   31.8750 C.3    49  THR49       0.1808
     63  OG1       13.3110   17.7720   31.9080 O.3    49  THR49      -0.2208
     64  CG2       15.1500   18.6940   30.6660 C.3    49  THR49       0.0379
     65  N         14.0730   15.0990   30.2800 N.am   50  GLY50      -0.1939
     66  CA        13.7960   14.4430   29.0170 C.3    50  GLY50       0.2014
     67  C         13.3150   15.4380   27.9850 C.2    50  GLY50       0.2639
     68  O         12.3150   16.1210   28.2040 O.2    50  GLY50      -0.2714
     69  N         14.0250   15.5280   26.8620 N.am   51  LYS51      -0.1963
     70  CA        13.6060   16.4100   25.7740 C.3    51  LYS51       0.1728
     71  C         13.9130   15.8010   24.4090 C.2    51  LYS51       0.2617
     72  O         13.7540   16.4420   23.3850 O.2    51  LYS51      -0.2715
     73  CB        14.2470   17.7980   25.9130 C.3    51  LYS51       0.0311
     74  CG        15.7740   17.8160   25.9750 C.3    51  LYS51       0.0038
     75  CD        16.3930   17.5810   24.6050 C.3    51  LYS51       0.0206
     76  CE        17.9080   17.7730   24.6320 C.3    51  LYS51       0.1093
     77  NZ        18.6130   16.7480   25.4870 N.3    51  LYS51      -0.1314
     78  N         14.3590   14.5550   24.3930 N.am   52  THR52      -0.1937
     79  CA        14.8330   13.9730   23.1500 C.3    52  THR52       0.2028
     80  C         13.7690   13.9230   22.0600 C.2    52  THR52       0.2642
     81  O         14.0580   14.1270   20.8810 O.2    52  THR52      -0.2714
     82  CB        15.3990   12.5690   23.3870 C.3    52  THR52       0.1808
     83  OG1       16.5350   12.6700   24.2510 O.3    52  THR52      -0.2208
     84  CG2       15.8170   11.9380   22.0730 C.3    52  THR52       0.0379
     85  N         12.5350   13.6590   22.4600 N.am   53  LEU53      -0.1977
     86  CA        11.4510   13.5210   21.5030 C.3    53  LEU53       0.1596
     87  C         11.0500   14.8630   20.8900 C.2    53  LEU53       0.2287
     88  O         10.3370   14.9050   19.8850 O.2    53  LEU53      -0.2864
     89  CB        10.2630   12.8250   22.1680 C.3    53  LEU53       0.0297
     90  CG        10.6850   11.4250   22.6190 C.3    53  LEU53       0.0022
     91  CD1        9.6490   10.7500   23.5010 C.3    53  LEU53       0.0001
     92  CD2       11.0190   10.5670   21.4140 C.3    53  LEU53       0.0001
     93  N         23.4900    7.2360   23.1630 N.3    87  GLN87      -0.1245
     94  CA        22.1710    7.2740   23.7890 C.3    87  GLN87       0.1566
     95  C         21.1290    7.9210   22.8760 C.2    87  GLN87       0.2260
     96  O         20.0310    7.3840   22.6800 O.2    87  GLN87      -0.2867
     97  CB        22.2440    7.9900   25.1420 C.3    87  GLN87       0.0367
     98  CG        20.9170    8.1160   25.8750 C.3    87  GLN87       0.0905
     99  CD        20.3370    6.7760   26.2950 C.2    87  GLN87       0.2608
    100  OE1       20.8850    5.7170   25.9810 O.2    87  GLN87      -0.2717
    101  NE2       19.2190    6.8170   27.0110 N.am   87  GLN87      -0.0878
    102  N         17.7970    6.2080   20.8070 N.3    91  GLU91      -0.1245
    103  CA        16.4120    6.6390   20.9520 C.3    91  GLU91       0.1567
    104  C         15.8130    7.0750   19.6230 C.2    91  GLU91       0.2260
    105  O         14.6520    6.8060   19.3470 O.2    91  GLU91      -0.2867
    106  CB        16.3030    7.7550   21.9910 C.3    91  GLU91       0.0388
    107  CG        16.6920    7.3040   23.3880 C.3    91  GLU91       0.1160
    108  CD        16.7050    8.4390   24.3890 C.2    91  GLU91       0.3649
    109  OE1       15.9980    9.4440   24.1600 O.co2  91  GLU91      -0.2457
    110  OE2       17.4200    8.3250   25.4060 O.co2  91  GLU91      -0.2457
@<TRIPOS>BOND
     1   105   104    2
     2     4     3    2
     3   104   103    1
     4    88    87    2
     5     3     2    1
     6   102   103    1
     7    81    80    2
     8    87    86    1
     9   103   106    1
    10    92    90    1
    11    86    89    1
    12    86    85    1
    13     5     2    1
    14     5     6    1
    15     2     1    1
    16   106   107    1
    17    80    85   am
    18    80    79    1
    19    84    82    1
    20     7     6   ar
    21     7     9   ar
    22    89    90    1
    23     6     8   ar
    24    90    91    1
    25    96    95    2
    26     9    11   ar
    27    48    47    2
    28    95    94    1
    29    79    82    1
    30    79    78    1
    31    93    94    1
    32    72    71    2
    33    82    83    1
    34   107   108    1
    35     8    10   ar
    36    22    21    1
    37    11    10   ar
    38    94    97    1
    39    47    46    1
    40    19    18    2
    41   109   108   ar
    42    46    49    1
    43    46    45    1
    44   108   110   ar
    45    78    71   am
    46    71    70    1
    47    20    21    1
    48    20    17    1
    49    49    50    1
    50    75    76    1
    51    75    74    1
    52    76    77    1
    53    50    51    1
    54    21    23    1
    55    53    51   ar
    56    18    17    1
    57    18    24   am
    58    97    98    1
    59    51    52   ar
    60    27    26    2
    61    17    16    1
    62    12    13    1
    63    16    14   am
    64    70    73    1
    65    70    69    1
    66    25    24    1
    67    25    26    1
    68    25    28    1
    69    98    99    1
    70    73    74    1
    71   100    99    2
    72    26    31   am
    73    99   101   am
    74    30    28    1
    75    28    29    1
    76    13    14    1
    77    14    15    2
    78    69    67   am
    79    31    32    1
    80    33    32    1
    81    33    34    2
    82    41    40    2
    83    32    35    1
    84    38    39    1
    85    67    68    2
    86    67    66    1
    87    43    42    1
    88    40    39    1
    89    35    36    1
    90    35    37    1
    91    39    42    1
    92    66    65    1
    93    42    44    1
    94    61    60    2
    95    65    60   am
    96    60    59    1
    97    64    62    1
    98    59    62    1
    99    59    58    1
   100    62    63    1
   101    57    56    2
   102    54    55    1
   103    58    56   am
   104    56    55    1
