@<TRIPOS>MOLECULE
tmp/3mwsB00.pdb
 112 105 0 0 0
SMALL
GASTEIGER

@<TRIPOS>ATOM
      1  N         -4.9850   13.1900    6.0040 N.3     8  ARG8       -0.1245
      2  CA        -3.8640   14.0100    5.5360 C.3     8  ARG8        0.1563
      3  C         -3.6470   15.2370    6.3860 C.2     8  ARG8        0.2260
      4  O         -4.6350   15.8760    6.7570 O.2     8  ARG8       -0.2867
      5  CB        -4.1250   14.5010    4.1170 C.3     8  ARG8        0.0307
      6  CG        -4.0800   13.4150    3.0740 C.3     8  ARG8        0.0489
      7  CD        -4.0690   14.0750    1.6760 C.3     8  ARG8        0.2205
      8  NE        -3.9260   12.9930    0.7010 N.pl3   8  ARG8       -0.0865
      9  CZ        -3.7930   13.1960   -0.5940 C.cat   8  ARG8        0.5346
     10  NH1       -3.7730   14.4640   -1.0820 N.pl3   8  ARG8        0.1354
     11  NH2       -3.6750   12.0980   -1.3640 N.pl3   8  ARG8        0.1354
     12  N         -0.4150   20.7570    2.4610 N.3    23  LEU23      -0.1245
     13  CA        -0.1070   19.4690    3.0960 C.3    23  LEU23       0.1561
     14  C          1.2550   19.5550    3.7920 C.2    23  LEU23       0.2260
     15  O          2.2530   19.8180    3.1100 O.2    23  LEU23      -0.2867
     16  CB        -0.0900   18.4270    1.9970 C.3    23  LEU23       0.0270
     17  CG         0.2320   17.0010    2.3640 C.3    23  LEU23       0.0019
     18  CD1       -0.8120   16.4450    3.2870 C.3    23  LEU23       0.0001
     19  CD2        0.2230   16.1310    1.0790 C.3    23  LEU23       0.0001
     20  N          4.3940   18.1040    4.7740 N.3    25  ASP25      -0.1239
     21  CA         4.9580   16.9270    4.1140 C.3    25  ASP25       0.1674
     22  C          6.4200   16.6860    4.4750 C.2    25  ASP25       0.2266
     23  O          7.3180   17.2960    3.8990 O.2    25  ASP25      -0.2867
     24  CB         4.8100   17.1870    2.6180 C.3    25  ASP25       0.1410
     25  CG         5.1230   15.9860    1.8070 C.2    25  ASP25       0.3668
     26  OD1        5.6640   14.9970    2.3710 O.co2  25  ASP25      -0.2456
     27  OD2        4.8820   15.9820    0.5800 O.co2  25  ASP25      -0.2456
     28  N          8.2210   14.2890    3.6960 N.3    27  GLY27      -0.1210
     29  CA         8.9010   13.6720    2.5520 C.3    27  GLY27       0.1956
     30  C          9.2770   14.6650    1.4910 C.2    27  GLY27       0.2612
     31  O          9.8700   14.2460    0.4970 O.2    27  GLY27      -0.2717
     32  N          8.9480   15.9320    1.6620 N.am   28  ALA28      -0.1965
     33  CA         9.2730   16.9830    0.6780 C.3    28  ALA28       0.1728
     34  C         10.4220   17.8260    1.1710 C.2    28  ALA28       0.2616
     35  O         10.3570   18.3860    2.2770 O.2    28  ALA28      -0.2715
     36  CB         8.0470   17.8580    0.4420 C.3    28  ALA28       0.0334
     37  N         11.4720   17.9760    0.3920 N.am   29  ASP29      -0.1957
     38  CA        12.5610   18.8590    0.7850 C.3    29  ASP29       0.1840
     39  C         12.1200   20.3150    0.7670 C.2    29  ASP29       0.2622
     40  O         12.5910   21.1250    1.5800 O.2    29  ASP29      -0.2715
     41  CB        13.7330   18.6930   -0.1670 C.3    29  ASP29       0.1450
     42  CG        14.3690   17.3360   -0.1480 C.2    29  ASP29       0.3671
     43  OD1       14.1560   16.5030    0.7580 O.co2  29  ASP29      -0.2456
     44  OD2       15.1580   17.0310   -1.0750 O.co2  29  ASP29      -0.2456
     45  N         11.2750   20.6210   -0.2010 N.am   30  ASP30      -0.1971
     46  CA        10.9620   21.9790   -0.5870 C.3    30  ASP30       0.1709
     47  C          9.4270   22.2010   -0.5450 C.2    30  ASP30       0.2293
     48  O          8.6900   21.2120   -0.5180 O.2    30  ASP30      -0.2864
     49  CB        11.4100   22.1810   -2.0380 C.3    30  ASP30       0.1436
     50  CG        12.7480   21.6850   -2.5090 C.2    30  ASP30       0.3671
     51  OD1       13.6880   22.0600   -1.7650 O.co2  30  ASP30      -0.2456
     52  OD2       12.9170   20.9980   -3.5950 O.co2  30  ASP30      -0.2456
     53  N          6.0780   23.6150   -2.2640 N.3    32  VAL32      -0.1245
     54  CA         5.6430   23.7580   -3.6610 C.3    32  VAL32       0.1561
     55  C          4.1690   24.1480   -3.6110 C.2    32  VAL32       0.2260
     56  O          3.3510   23.4820   -2.9610 O.2    32  VAL32      -0.2867
     57  CB         5.8220   22.4600   -4.4730 C.3    32  VAL32       0.0252
     58  CG1        5.6510   22.7110   -5.9780 C.3    32  VAL32       0.0019
     59  CG2        7.1780   21.8080   -4.2350 C.3    32  VAL32       0.0019
     60  N         12.1730   20.0010  -10.3810 N.3    47  ILE47      -0.1231
     61  CA        12.1950   19.0990   -9.2310 C.3    47  ILE47       0.1692
     62  C         11.5410   17.7930   -9.6530 C.2    47  ILE47       0.2593
     63  O         10.7230   17.7410  -10.5340 O.2    47  ILE47      -0.2718
     64  CB        11.4980   19.6990   -7.9930 C.3    47  ILE47       0.0266
     65  CG1       10.0160   19.9660   -8.2580 C.3    47  ILE47       0.0019
     66  CG2       12.2820   20.9210   -7.5270 C.3    47  ILE47       0.0020
     67  CD1        9.2000   20.3250   -7.0410 C.3    47  ILE47       0.0001
     68  N         11.9000   16.7500   -8.9480 N.am   48  GLY48      -0.1942
     69  CA        11.3280   15.4570   -9.2780 C.3    48  GLY48       0.2014
     70  C         10.5930   14.8710   -8.0840 C.2    48  GLY48       0.2639
     71  O         10.8930   15.1210   -6.9370 O.2    48  GLY48      -0.2714
     72  N          9.6370   14.0450   -8.4440 N.am   49  GLY49      -0.1939
     73  CA         8.8260   13.3750   -7.4360 C.3    49  GLY49       0.2014
     74  C          8.5690   11.9830   -7.9490 C.2    49  GLY49       0.2638
     75  O          9.3370   11.5520   -8.7770 O.2    49  GLY49      -0.2714
     76  N          7.5160   11.2590   -7.5630 N.am   50  ILE50      -0.1977
     77  CA         6.9330   10.0150   -8.0450 C.3    50  ILE50       0.1596
     78  C          6.1960   10.3160   -9.3680 C.2    50  ILE50       0.2287
     79  O          5.4240   11.2700   -9.4020 O.2    50  ILE50      -0.2864
     80  CB         5.9490    9.2980   -7.1130 C.3    50  ILE50       0.0276
     81  CG1        6.6490    8.3860   -6.0830 C.3    50  ILE50       0.0022
     82  CG2        4.8880    8.4900   -7.8650 C.3    50  ILE50       0.0022
     83  CD1        5.6060    7.7150   -5.2100 C.3    50  ILE50       0.0001
     84  N          2.1990   21.3320   -9.0290 N.3    80  THR80      -0.1204
     85  CA         2.0860   20.2150   -8.1040 C.3    80  THR80       0.1979
     86  C          0.6250   19.8300   -7.9930 C.2    80  THR80       0.2460
     87  O         -0.2680   20.7030   -8.0150 O.2    80  THR80      -0.2732
     88  CB         2.6460   20.6780   -6.7500 C.3    80  THR80       0.1783
     89  OG1        2.4740   19.6190   -5.8190 O.3    80  THR80      -0.2211
     90  CG2        1.9840   21.9330   -6.2410 C.3    80  THR80       0.0376
     91  N          0.3060   18.5420   -7.8290 N.am   81  PRO81      -0.2717
     92  CA        -1.1100   18.1370   -7.6680 C.3    81  PRO81       0.1535
     93  C         -1.7700   18.7800   -6.4460 C.2    81  PRO81       0.2598
     94  O         -2.9060   19.1880   -6.5600 O.2    81  PRO81      -0.2715
     95  CB        -1.0610   16.6240   -7.5330 C.3    81  PRO81       0.0310
     96  CG         0.2980   16.2050   -7.9570 C.3    81  PRO81       0.0237
     97  CD         1.2380   17.3720   -7.8610 C.3    81  PRO81       0.0939
     98  N         -1.0400   18.8840   -5.3220 N.am   82  VAL82      -0.1978
     99  CA        -1.5700   19.5350   -4.1220 C.3    82  VAL82       0.1596
    100  C         -0.4900   20.4280   -3.5630 C.2    82  VAL82       0.2287
    101  O          0.7040   20.1630   -3.7430 O.2    82  VAL82      -0.2864
    102  CB        -2.1220   18.6060   -3.0220 C.3    82  VAL82       0.0276
    103  CG1       -3.2340   17.7710   -3.6230 C.3    82  VAL82       0.0022
    104  CG2       -1.0160   17.7600   -2.4190 C.3    82  VAL82       0.0022
    105  N          2.1280   21.7900   -1.0260 N.3    84  ILE84      -0.1245
    106  CA         2.8770   21.0520    0.0320 C.3    84  ILE84       0.1561
    107  C          3.8460   22.0060    0.7300 C.2    84  ILE84       0.2260
    108  O          4.5210   22.8340    0.1060 O.2    84  ILE84      -0.2867
    109  CB         3.6020   19.8310   -0.5180 C.3    84  ILE84       0.0252
    110  CG1        4.6120   20.1260   -1.6420 C.3    84  ILE84       0.0019
    111  CG2        2.6400   18.7490   -1.0390 C.3    84  ILE84       0.0019
    112  CD1        5.0240   18.8910   -2.3820 C.3    84  ILE84       0.0001
@<TRIPOS>BOND
     1    63    62    2
     2    60    61    1
     3    62    61    1
     4    62    68   am
     5    79    78    2
     6    78    77    1
     7    69    68    1
     8    69    70    1
     9    61    64    1
    10    84    85    1
    11    75    74    2
    12    72    70   am
    13    72    73    1
    14    65    64    1
    15    65    67    1
    16    85    86    1
    17    85    88    1
    18    70    71    2
    19    77    76    1
    20    77    80    1
    21    87    86    2
    22    86    91   am
    23    64    66    1
    24    96    97    1
    25    96    95    1
    26    74    76   am
    27    74    73    1
    28    82    80    1
    29    97    91    1
    30    91    92    1
    31    92    95    1
    32    92    93    1
    33    80    81    1
    34    88    90    1
    35    88    89    1
    36    94    93    2
    37    93    98   am
    38    81    83    1
    39    58    57    1
    40    98    99    1
    41    57    59    1
    42    57    54    1
    43    99   100    1
    44    99   102    1
    45   101   100    2
    46    54    55    1
    47    54    53    1
    48   103   102    1
    49    55    56    2
    50    52    50   ar
    51   102   104    1
    52    50    49    1
    53    50    51   ar
    54   112   110    1
    55    49    46    1
    56   110   109    1
    57    11     9    1
    58    10     9    1
    59    44    42   ar
    60   111   109    1
    61   105   106    1
    62     9     8    2
    63    46    47    1
    64    46    45    1
    65    47    48    2
    66   109   106    1
    67    45    39   am
    68    41    42    1
    69    41    38    1
    70    42    43   ar
    71   106   107    1
    72   108   107    2
    73    37    38    1
    74    37    34   am
    75    36    33    1
    76    31    30    2
    77    27    25   ar
    78    33    34    1
    79    33    32    1
    80     8     7    1
    81    39    38    1
    82    39    40    2
    83    19    17    1
    84    34    35    2
    85    30    32   am
    86    30    29    1
    87     7     6    1
    88    25    26   ar
    89    25    24    1
    90    16    17    1
    91    16    13    1
    92    17    18    1
    93    12    13    1
    94    29    28    1
    95    24    21    1
    96     6     5    1
    97    13    14    1
    98    15    14    2
    99    23    22    2
   100    21    22    1
   101    21    20    1
   102     5     2    1
   103     2     1    1
   104     2     3    1
   105     3     4    2
