@<TRIPOS>MOLECULE
tmp/3mwuA00.pdb
 185 173 0 0 0
SMALL
GASTEIGER

@<TRIPOS>ATOM
      1  N         30.6590    7.8960   -1.5130 N.3    17  LEU17      -0.1231
      2  CA        29.6080    7.0340   -0.9410 C.3    17  LEU17       0.1693
      3  C         28.1820    7.3430   -1.4420 C.2    17  LEU17       0.2592
      4  O         27.3350    6.4530   -1.4840 O.2    17  LEU17      -0.2718
      5  CB        29.5950    7.1440    0.5890 C.3    17  LEU17       0.0284
      6  CG        30.7460    6.4860    1.3480 C.3    17  LEU17       0.0019
      7  CD1       30.6350    6.8040    2.8190 C.3    17  LEU17       0.0001
      8  CD2       30.7300    4.9800    1.0910 C.3    17  LEU17       0.0001
      9  N         27.9040    8.5970   -1.7880 N.am   18  GLY18      -0.1957
     10  CA        26.5490    8.9960   -2.1630 C.3    18  GLY18       0.1869
     11  C         26.5120   10.4490   -2.5720 C.2    18  GLY18       0.2309
     12  O         27.4280   11.2100   -2.2600 O.2    18  GLY18      -0.2863
     13  N         28.5230   12.6900   -0.2450 N.3    25  VAL25      -0.1245
     14  CA        29.0200   11.9990    0.9460 C.3    25  VAL25       0.1561
     15  C         30.2040   11.1150    0.5150 C.2    25  VAL25       0.2260
     16  O         30.1110   10.3450   -0.4570 O.2    25  VAL25      -0.2867
     17  CB        27.9290   11.1610    1.6810 C.3    25  VAL25       0.0252
     18  CG1       28.5490   10.4330    2.8440 C.3    25  VAL25       0.0019
     19  CG2       26.8020   12.0370    2.2330 C.3    25  VAL25       0.0019
     20  N         32.4420    9.1170    7.6380 N.3    38  ALA38      -0.1231
     21  CA        31.7020    9.6700    6.5100 C.3    38  ALA38       0.1694
     22  C         31.7780   11.1980    6.6110 C.2    38  ALA38       0.2592
     23  O         31.7860   11.7470    7.7110 O.2    38  ALA38      -0.2718
     24  CB        30.2560    9.1830    6.5230 C.3    38  ALA38       0.0304
     25  N         31.9090   11.8610    5.4640 N.am   39  VAL39      -0.1966
     26  CA        31.9690   13.3100    5.4190 C.3    39  VAL39       0.1727
     27  C         31.0270   13.7980    4.3360 C.2    39  VAL39       0.2616
     28  O         31.0800   13.3300    3.2180 O.2    39  VAL39      -0.2715
     29  CB        33.4130   13.8660    5.2050 C.3    39  VAL39       0.0290
     30  CG1       34.0380   13.4000    3.8900 C.3    39  VAL39       0.0023
     31  CG2       33.3990   15.4120    5.2460 C.3    39  VAL39       0.0023
     32  N         30.1590   14.7350    4.6960 N.am   40  LYS40      -0.1977
     33  CA        29.3040   15.3960    3.7370 C.3    40  LYS40       0.1596
     34  C         29.9560   16.7030    3.3450 C.2    40  LYS40       0.2287
     35  O         30.3200   17.5250    4.1980 O.2    40  LYS40      -0.2864
     36  CB        27.9080   15.6880    4.3180 C.3    40  LYS40       0.0298
     37  CG        26.9310   16.1950    3.2530 C.3    40  LYS40       0.0038
     38  CD        25.5560   16.3910    3.8450 C.3    40  LYS40       0.0206
     39  CE        24.8310   15.0850    3.9950 C.3    40  LYS40       0.1093
     40  NZ        23.3840   15.3470    4.2530 N.3    40  LYS40      -0.1314
     41  N         23.5190   20.2760   16.1560 N.3    62  LEU62      -0.1245
     42  CA        23.4160   18.9210   15.6390 C.3    62  LEU62       0.1561
     43  C         24.5360   18.0300   16.2050 C.2    62  LEU62       0.2260
     44  O         24.2930   16.8560   16.5210 O.2    62  LEU62      -0.2867
     45  CB        23.3990   18.9000   14.1200 C.3    62  LEU62       0.0270
     46  CG        22.3180   19.7320   13.4350 C.3    62  LEU62       0.0019
     47  CD1       22.5870   19.7170   11.9290 C.3    62  LEU62       0.0001
     48  CD2       20.9310   19.1900   13.7570 C.3    62  LEU62       0.0001
     49  N         22.2010    9.9280   13.9510 N.3    71  MET71      -0.1245
     50  CA        23.5030   10.1530   13.3090 C.3    71  MET71       0.1570
     51  C         24.4220   10.9190   14.2490 C.2    71  MET71       0.2261
     52  O         24.0330   11.9540   14.7520 O.2    71  MET71      -0.2867
     53  CB        23.2720   10.9540   12.0110 C.3    71  MET71       0.0387
     54  CG        24.4970   11.5910   11.3050 C.3    71  MET71       0.0595
     55  SD        25.2030   10.6100    9.9640 S.3    71  MET71      -0.1393
     56  CE        26.6900   10.0660   10.8140 C.3    71  MET71       0.0692
     57  N         27.5120   13.3120   14.6660 N.3    73  LEU73      -0.1245
     58  CA        28.3810   14.2370   13.9140 C.3    73  LEU73       0.1561
     59  C         29.4990   14.6670   14.8300 C.2    73  LEU73       0.2260
     60  O         29.2480   14.9850   15.9590 O.2    73  LEU73      -0.2867
     61  CB        27.6170   15.4540   13.4200 C.3    73  LEU73       0.0270
     62  CG        26.4130   15.2060   12.5430 C.3    73  LEU73       0.0019
     63  CD1       25.8390   16.5330   12.0610 C.3    73  LEU73       0.0001
     64  CD2       26.7750   14.3090   11.3560 C.3    73  LEU73       0.0001
     65  N         31.2000   18.2140    6.7590 N.3    85  ILE85      -0.1245
     66  CA        30.5560   17.7780    7.9850 C.3    85  ILE85       0.1561
     67  C         30.9450   16.3200    8.2080 C.2    85  ILE85       0.2260
     68  O         30.5710   15.4400    7.4210 O.2    85  ILE85      -0.2867
     69  CB        29.0130   17.9570    7.9500 C.3    85  ILE85       0.0252
     70  CG1       28.6470   19.4320    7.6790 C.3    85  ILE85       0.0019
     71  CG2       28.4220   17.5310    9.2870 C.3    85  ILE85       0.0019
     72  CD1       27.1110   19.7670    7.6840 C.3    85  ILE85       0.0001
     73  N         31.1660   12.7420   10.1530 N.3    87  GLY87      -0.1210
     74  CA        30.3140   11.9360   11.0230 C.3    87  GLY87       0.1956
     75  C         30.7220   10.4780   11.0500 C.2    87  GLY87       0.2612
     76  O         31.6190   10.0340   10.3100 O.2    87  GLY87      -0.2717
     77  N         30.0220    9.7260   11.8850 N.am   88  GLU88      -0.1965
     78  CA        30.2330    8.3100   12.0130 C.3    88  GLU88       0.1733
     79  C         29.8220    7.6030   10.7240 C.2    88  GLU88       0.2616
     80  O         28.8070    7.9190   10.1340 O.2    88  GLU88      -0.2715
     81  CB        29.4160    7.7980   13.1970 C.3    88  GLU88       0.0429
     82  CG        29.8810    6.4930   13.7640 C.3    88  GLU88       0.1163
     83  CD        29.7660    6.4970   15.2690 C.2    88  GLU88       0.3649
     84  OE1       28.6060    6.5450   15.7800 O.co2  88  GLU88      -0.2457
     85  OE2       30.8390    6.4940   15.9200 O.co2  88  GLU88      -0.2457
     86  N         30.6250    6.6390   10.3080 N.am   89  LEU89      -0.1963
     87  CA        30.3870    5.8660    9.1140 C.3    89  LEU89       0.1728
     88  C         29.5340    4.6600    9.4870 C.2    89  LEU89       0.2616
     89  O         29.9340    3.8700   10.3090 O.2    89  LEU89      -0.2715
     90  CB        31.7380    5.3600    8.5740 C.3    89  LEU89       0.0311
     91  CG        31.7440    4.4550    7.3390 C.3    89  LEU89       0.0022
     92  CD1       31.2680    5.1860    6.1100 C.3    89  LEU89       0.0001
     93  CD2       33.1460    3.8950    7.1090 C.3    89  LEU89       0.0001
     94  N         28.4000    4.4960    8.8440 N.am   90  TYR90      -0.1974
     95  CA        27.5630    3.3050    9.0330 C.3    90  TYR90       0.1639
     96  C         27.6390    2.4550    7.7570 C.2    90  TYR90       0.2290
     97  O         27.6210    2.9890    6.6580 O.2    90  TYR90      -0.2864
     98  CB        26.1340    3.7210    9.3450 C.3    90  TYR90       0.0560
     99  CG        26.0520    4.6960   10.4930 C.ar   90  TYR90      -0.0198
    100  CD1       26.6350    4.3980   11.7270 C.ar   90  TYR90      -0.0009
    101  CD2       25.4000    5.9220   10.3580 C.ar   90  TYR90      -0.0009
    102  CE1       26.5850    5.3130   12.7790 C.ar   90  TYR90       0.0417
    103  CE2       25.3320    6.8260   11.4250 C.ar   90  TYR90       0.0417
    104  CZ        25.9460    6.5190   12.6170 C.ar   90  TYR90       0.1957
    105  OH        25.8780    7.4070   13.6800 O.3    90  TYR90      -0.2866
    106  N         20.6650    1.1820    3.8830 N.3    94  GLU94      -0.1245
    107  CA        19.3640    1.7340    4.2220 C.3    94  GLU94       0.1567
    108  C         18.4070    0.6620    4.7640 C.2    94  GLU94       0.2260
    109  O         18.3980   -0.4690    4.2820 O.2    94  GLU94      -0.2867
    110  CB        18.7310    2.3550    2.9860 C.3    94  GLU94       0.0388
    111  CG        19.5430    3.4540    2.3200 C.3    94  GLU94       0.1160
    112  CD        19.0220    3.7640    0.9480 C.2    94  GLU94       0.3649
    113  OE1       17.9400    3.2490    0.6080 O.co2  94  GLU94      -0.2457
    114  OE2       19.6790    4.5150    0.2130 O.co2  94  GLU94      -0.2457
    115  N         14.8540    5.1030    3.5240 N.3   137  GLU137     -0.1231
    116  CA        16.0780    5.5180    2.8660 C.3   137  GLU137      0.1699
    117  C         16.9450    6.4380    3.7130 C.2   137  GLU137      0.2592
    118  O         18.1490    6.4590    3.5120 O.2   137  GLU137     -0.2718
    119  CB        15.7790    6.1370    1.4800 C.3   137  GLU137      0.0402
    120  CG        15.1380    5.1440    0.4980 C.3   137  GLU137      0.1161
    121  CD        13.6040    5.1180    0.5200 C.2   137  GLU137      0.3649
    122  OE1       12.9440    5.5660    1.4870 O.co2 137  GLU137     -0.2457
    123  OE2       13.0490    4.6690   -0.4830 O.co2 137  GLU137     -0.2457
    124  N         16.3600    7.0930    4.7310 N.am  138  ASN138     -0.1974
    125  CA        17.0910    8.0000    5.6200 C.3   138  ASN138      0.1688
    126  C         17.2820    7.4030    7.0000 C.2   138  ASN138      0.2292
    127  O         17.5160    8.1200    7.9680 O.2   138  ASN138     -0.2864
    128  CB        16.3340    9.3140    5.7750 C.3   138  ASN138      0.1181
    129  CG        16.4320   10.1690    4.5880 C.2   138  ASN138      0.2629
    130  OD1       17.3880   10.0590    3.8120 O.2   138  ASN138     -0.2716
    131  ND2       15.4360   11.0420    4.4060 N.am  138  ASN138     -0.0877
    132  N         19.7200    4.3410    8.5150 N.3   140  LEU140     -0.1245
    133  CA        20.7930    3.4380    8.1510 C.3   140  LEU140      0.1561
    134  C         21.0200    2.3870    9.2340 C.2   140  LEU140      0.2260
    135  O         20.8540    2.6480   10.4160 O.2   140  LEU140     -0.2867
    136  CB        22.1070    4.1920    7.9300 C.3   140  LEU140      0.0270
    137  CG        22.2190    5.2500    6.8510 C.3   140  LEU140      0.0019
    138  CD1       23.6750    5.6620    6.6830 C.3   140  LEU140      0.0001
    139  CD2       21.6440    4.7270    5.5260 C.3   140  LEU140      0.0001
    140  N         19.3100    9.5540    9.7340 N.3   153  ILE153     -0.1231
    141  CA        20.2320   10.4650    9.0730 C.3   153  ILE153      0.1692
    142  C         19.4750   11.5510    8.3210 C.2   153  ILE153      0.2592
    143  O         18.2520   11.4870    8.2040 O.2   153  ILE153     -0.2718
    144  CB        21.1970    9.7290    8.0990 C.3   153  ILE153      0.0266
    145  CG1       20.4610    9.0780    6.9170 C.3   153  ILE153      0.0019
    146  CG2       22.0880    8.7030    8.8440 C.3   153  ILE153      0.0020
    147  CD1       21.3760    8.8910    5.6900 C.3   153  ILE153      0.0001
    148  N         20.2190   12.5130    7.7720 N.am  154  ASP154     -0.1960
    149  CA        19.7070   13.4660    6.7390 C.3   154  ASP154      0.1840
    150  C         18.5380   14.3160    7.2180 C.2   154  ASP154      0.2622
    151  O         17.4160   14.2330    6.6970 O.2   154  ASP154     -0.2715
    152  CB        19.3380   12.7640    5.4270 C.3   154  ASP154      0.1450
    153  CG        20.5550   12.2450    4.6780 C.2   154  ASP154      0.3671
    154  OD1       21.6850   12.4530    5.1760 O.co2 154  ASP154     -0.2456
    155  OD2       20.3760   11.6320    3.5990 O.co2 154  ASP154     -0.2456
    156  N         18.8220   15.1130    8.2360 N.am  155  PHE155     -0.1974
    157  CA        17.8800   16.1200    8.7310 C.3   155  PHE155      0.1639
    158  C         18.6720   17.2880    9.2810 C.2   155  PHE155      0.2290
    159  O         19.8750   17.1710    9.5020 O.2   155  PHE155     -0.2864
    160  CB        17.0260   15.5290    9.8480 C.3   155  PHE155      0.0560
    161  CG        17.8150   15.0520   11.0240 C.ar  155  PHE155     -0.0200
    162  CD1       18.0980   15.9150   12.0730 C.ar  155  PHE155     -0.0042
    163  CD2       18.2140   13.7400   11.1190 C.ar  155  PHE155     -0.0042
    164  CE1       18.8280   15.4900   13.1560 C.ar  155  PHE155     -0.0003
    165  CE2       18.9640   13.3060   12.2050 C.ar  155  PHE155     -0.0003
    166  CZ        19.2500   14.1750   13.2260 C.ar  155  PHE155     -0.0000
    167  N         19.4760   20.3340    8.1180 N.3   157  LEU157     -0.1245
    168  CA        20.2530   21.2970    7.3200 C.3   157  LEU157      0.1561
    169  C         19.3820   22.2030    6.4290 C.2   157  LEU157      0.2260
    170  O         19.9060   23.0770    5.7320 O.2   157  LEU157     -0.2867
    171  CB        21.3020   20.5470    6.4770 C.3   157  LEU157      0.0270
    172  CG        22.4000   19.7410    7.1940 C.3   157  LEU157      0.0019
    173  CD1       23.1840   18.9150    6.1780 C.3   157  LEU157      0.0001
    174  CD2       23.3600   20.5860    8.0470 C.3   157  LEU157      0.0001
    175  N         13.4910   11.7020   -6.4760 N.3   166  ARG166     -0.1245
    176  CA        13.7140   10.3680   -5.9090 C.3   166  ARG166      0.1563
    177  C         12.4140    9.5700   -5.7420 C.2   166  ARG166      0.2260
    178  O         11.3850   10.0990   -5.3090 O.2   166  ARG166     -0.2867
    179  CB        14.4860   10.4520   -4.5790 C.3   166  ARG166      0.0307
    180  CG        16.0140   10.4800   -4.7660 C.3   166  ARG166      0.0489
    181  CD        16.7800   10.4910   -3.4340 C.3   166  ARG166      0.2205
    182  NE        18.1870   10.1070   -3.6070 N.pl3 166  ARG166     -0.0865
    183  CZ        19.1580   10.2890   -2.7070 C.cat 166  ARG166      0.5346
    184  NH1       18.9140   10.8660   -1.5330 N.pl3 166  ARG166      0.1354
    185  NH2       20.3950    9.8940   -2.9880 N.pl3 166  ARG166      0.1354
@<TRIPOS>BOND
     1   175   176    1
     2   176   177    1
     3   176   179    1
     4   177   178    2
     5   180   179    1
     6   180   181    1
     7   182   181    1
     8   182   183    2
     9   185   183    1
    10   183   184    1
    11    11    12    2
    12    11    10    1
    13    10     9    1
    14     9     3   am
    15     1     2    1
    16     4     3    2
    17     3     2    1
    18     2     5    1
    19   123   121   ar
    20    16    15    2
    21    13    14    1
    22   114   112   ar
    23   120   121    1
    24   120   119    1
    25    15    14    1
    26   121   122   ar
    27     5     6    1
    28   113   112   ar
    29    14    17    1
    30   112   111    1
    31     8     6    1
    32     6     7    1
    33   119   116    1
    34    17    19    1
    35    17    18    1
    36   111   110    1
    37   116   115    1
    38   116   117    1
    39   110   107    1
    40    28    27    2
    41    37    38    1
    42    37    36    1
    43    34    33    1
    44    34    35    2
    45   118   117    2
    46   155   153   ar
    47   117   124   am
    48    33    36    1
    49    33    32    1
    50   130   129    2
    51    38    39    1
    52   106   107    1
    53    30    29    1
    54    39    40    1
    55   107   108    1
    56   109   108    2
    57    27    32   am
    58    27    26    1
    59   131   129   am
    60   129   128    1
    61   153   154   ar
    62   153   152    1
    63   124   125    1
    64    29    31    1
    65    29    26    1
    66    26    25    1
    67   152   149    1
    68    25    22   am
    69   139   137    1
    70   125   128    1
    71   125   126    1
    72   147   145    1
    73   170   169    2
    74    92    91    1
    75   173   172    1
    76   169   168    1
    77   171   172    1
    78   171   168    1
    79    21    24    1
    80    21    22    1
    81    21    20    1
    82    22    23    2
    83    97    96    2
    84   138   137    1
    85   151   150    2
    86   149   150    1
    87   149   148    1
    88    65    66    1
    89   137   136    1
    90   145   144    1
    91   126   127    2
    92    93    91    1
    93   172   174    1
    94   150   156   am
    95   168   167    1
    96    91    90    1
    97    68    67    2
    98    70    72    1
    99    70    69    1
   100    96    95    1
   101   148   142   am
   102   136   133    1
   103    69    66    1
   104    69    71    1
   105    66    67    1
   106   144   146    1
   107   144   141    1
   108   133   132    1
   109   133   134    1
   110   143   142    2
   111   156   157    1
   112   142   141    1
   113    90    87    1
   114   157   158    1
   115   157   160    1
   116    94    95    1
   117    94    88   am
   118    95    98    1
   119   141   140    1
   120    87    88    1
   121    87    86    1
   122   134   135    2
   123   158   159    2
   124    98    99    1
   125    88    89    2
   126   160   161    1
   127    55    56    1
   128    55    54    1
   129    80    79    2
   130    73    74    1
   131    86    79   am
   132    76    75    2
   133   101    99   ar
   134   101   103   ar
   135    99   100   ar
   136    79    78    1
   137    74    75    1
   138   161   163   ar
   139   161   162   ar
   140    75    77   am
   141   163   165   ar
   142    54    53    1
   143    64    62    1
   144   103   104   ar
   145   100   102   ar
   146    77    78    1
   147    47    46    1
   148    53    50    1
   149    78    81    1
   150    63    62    1
   151   162   164   ar
   152   165   166   ar
   153    62    61    1
   154   104   102   ar
   155   104   105    1
   156   164   166   ar
   157    81    82    1
   158    50    49    1
   159    50    51    1
   160    61    58    1
   161    46    48    1
   162    46    45    1
   163    82    83    1
   164    58    57    1
   165    58    59    1
   166    45    42    1
   167    51    52    2
   168    59    60    2
   169    83    84   ar
   170    83    85   ar
   171    42    41    1
   172    42    43    1
   173    43    44    2
