@<TRIPOS>MOLECULE
tmp/3mwwB00.pdb
 133 129 0 0 0
SMALL
GASTEIGER

@<TRIPOS>ATOM
      1  N        -36.3350  -10.4080  -29.7150 N.3    18  MET18      -0.1230
      2  CA       -36.5880  -10.2770  -28.2560 C.3    18  MET18       0.1702
      3  C        -35.7530   -9.1770  -27.5760 C.2    18  MET18       0.2592
      4  O        -35.8820   -8.9430  -26.3680 O.2    18  MET18      -0.2718
      5  CB       -36.3340  -11.6200  -27.5530 C.3    18  MET18       0.0401
      6  CG       -37.3720  -12.6860  -27.8400 C.3    18  MET18       0.0596
      7  SD       -37.1570  -14.1340  -26.7520 S.3    18  MET18      -0.1393
      8  CE       -38.4000  -13.8220  -25.4660 C.3    18  MET18       0.0692
      9  N        -34.9090   -8.4900  -28.3410 N.am   19  VAL19      -0.1980
     10  CA       -34.0470   -7.4510  -27.7810 C.3    19  VAL19       0.1595
     11  C        -34.3300   -6.0770  -28.3930 C.2    19  VAL19       0.2287
     12  O        -33.9660   -5.8250  -29.5490 O.2    19  VAL19      -0.2864
     13  CB       -32.5650   -7.8100  -27.9960 C.3    19  VAL19       0.0276
     14  CG1      -31.6760   -6.7150  -27.4260 C.3    19  VAL19       0.0022
     15  CG2      -32.2520   -9.1450  -27.3420 C.3    19  VAL19       0.0022
     16  N        -26.4900   -9.4040  -20.9430 N.3   370  LEU370     -0.1231
     17  CA       -26.1850  -10.0500  -22.2220 C.3   370  LEU370      0.1693
     18  C        -26.8460   -9.3910  -23.4300 C.2   370  LEU370      0.2591
     19  O        -26.1960   -9.1640  -24.4540 O.2   370  LEU370     -0.2718
     20  CB       -26.5900  -11.5290  -22.1870 C.3   370  LEU370      0.0284
     21  CG       -25.9560  -12.4070  -21.1070 C.3   370  LEU370      0.0019
     22  CD1      -26.2220  -13.8620  -21.4200 C.3   370  LEU370      0.0001
     23  CD2      -24.4530  -12.1470  -21.0510 C.3   370  LEU370      0.0001
     24  N        -28.1420   -9.1060  -23.3110 N.am  371  ALA371     -0.1980
     25  CA       -28.9000   -8.4740  -24.3890 C.3   371  ALA371      0.1597
     26  C        -28.2130   -7.1960  -24.8610 C.2   371  ALA371      0.2287
     27  O        -28.1380   -6.9310  -26.0600 O.2   371  ALA371     -0.2864
     28  CB       -30.3180   -8.1650  -23.9230 C.3   371  ALA371      0.0319
     29  N        -24.9710   -6.4380  -24.2930 N.3   373  ALA373     -0.1231
     30  CA       -23.6850   -6.8970  -24.7990 C.3   373  ALA373      0.1694
     31  C        -23.8240   -7.2300  -26.2780 C.2   373  ALA373      0.2591
     32  O        -22.9760   -6.8570  -27.0870 O.2   373  ALA373     -0.2718
     33  CB       -23.2290   -8.1280  -24.0240 C.3   373  ALA373      0.0304
     34  N        -24.9090   -7.9270  -26.6150 N.am  374  ALA374     -0.1980
     35  CA       -25.1900   -8.3320  -27.9910 C.3   374  ALA374      0.1597
     36  C        -25.3910   -7.1160  -28.8740 C.2   374  ALA374      0.2287
     37  O        -24.7440   -6.9700  -29.9120 O.2   374  ALA374     -0.2864
     38  CB       -26.4340   -9.2120  -28.0390 C.3   374  ALA374      0.0319
     39  N        -22.3940   -5.3520  -30.2580 N.3   377  THR377     -0.1218
     40  CA       -21.5830   -6.0600  -31.2370 C.3   377  THR377      0.1862
     41  C        -22.1180   -5.7660  -32.6310 C.2   377  THR377      0.2287
     42  O        -21.3650   -5.3870  -33.5330 O.2   377  THR377     -0.2866
     43  CB       -21.6070   -7.5910  -30.9980 C.3   377  THR377      0.1770
     44  OG1      -20.9600   -7.8860  -29.7550 O.3   377  THR377     -0.2211
     45  CG2      -20.8870   -8.3270  -32.1300 C.3   377  THR377      0.0375
     46  N        -19.5250  -16.9330  -20.6230 N.3   402  ILE402     -0.1231
     47  CA       -20.0910  -16.3300  -21.8220 C.3   402  ILE402      0.1692
     48  C        -19.3730  -15.0770  -22.3100 C.2   402  ILE402      0.2591
     49  O        -18.6110  -15.1280  -23.2800 O.2   402  ILE402     -0.2718
     50  CB       -21.5840  -15.9870  -21.6170 C.3   402  ILE402      0.0266
     51  CG1      -22.3200  -17.1960  -21.0360 C.3   402  ILE402      0.0019
     52  CG2      -22.2110  -15.5690  -22.9450 C.3   402  ILE402      0.0020
     53  CD1      -23.7730  -16.9330  -20.7380 C.3   402  ILE402      0.0001
     54  N        -19.6280  -13.9570  -21.6330 N.am  403  LEU403     -0.1980
     55  CA       -19.0470  -12.6640  -21.9920 C.3   403  LEU403      0.1596
     56  C        -17.5560  -12.6490  -22.3150 C.2   403  LEU403      0.2287
     57  O        -17.1580  -12.1530  -23.3680 O.2   403  LEU403     -0.2864
     58  CB       -19.3410  -11.6270  -20.9050 C.3   403  LEU403      0.0297
     59  CG       -20.7730  -11.0900  -20.8840 C.3   403  LEU403      0.0022
     60  CD1      -20.8590   -9.9090  -19.9170 C.3   403  LEU403      0.0001
     61  CD2      -21.1790  -10.6540  -22.2820 C.3   403  LEU403      0.0001
     62  N        -16.8350  -14.9640  -25.4230 N.3   406  HIS406     -0.1226
     63  CA       -17.3310  -14.3140  -26.6320 C.3   406  HIS406      0.1752
     64  C        -16.5260  -13.1090  -27.0830 C.2   406  HIS406      0.2596
     65  O        -15.8440  -13.1580  -28.1070 O.2   406  HIS406     -0.2718
     66  CB       -18.7880  -13.8790  -26.4580 C.3   406  HIS406      0.0759
     67  CG       -19.3620  -13.2050  -27.6690 C.ar  406  HIS406      0.0818
     68  ND1      -19.7630  -13.9010  -28.7910 N.ar  406  HIS406     -0.2268
     69  CD2      -19.5750  -11.8950  -27.9430 C.ar  406  HIS406      0.1154
     70  CE1      -20.1990  -13.0490  -29.7030 C.ar  406  HIS406      0.1986
     71  NE2      -20.0950  -11.8260  -29.2130 N.ar  406  HIS406     -0.2212
     72  N        -16.6290  -12.0190  -26.3270 N.am  407  PHE407     -0.1976
     73  CA       -15.9260  -10.7830  -26.6530 C.3   407  PHE407      0.1639
     74  C        -14.4250  -10.9480  -26.8600 C.2   407  PHE407      0.2290
     75  O        -13.8260  -10.2330  -27.6680 O.2   407  PHE407     -0.2864
     76  CB       -16.2150   -9.7150  -25.5910 C.3   407  PHE407      0.0560
     77  CG       -17.4850   -8.9500  -25.8480 C.ar  407  PHE407     -0.0200
     78  CD1      -17.5300   -7.9730  -26.8370 C.ar  407  PHE407     -0.0042
     79  CD2      -18.6490   -9.2450  -25.1470 C.ar  407  PHE407     -0.0042
     80  CE1      -18.7130   -7.3010  -27.1310 C.ar  407  PHE407     -0.0003
     81  CE2      -19.8400   -8.5790  -25.4330 C.ar  407  PHE407     -0.0003
     82  CZ       -19.8710   -7.6030  -26.4310 C.ar  407  PHE407     -0.0000
     83  N        -32.9100  -16.3010  -24.4920 N.3   470  LEU470     -0.1231
     84  CA       -32.2510  -15.4480  -25.4680 C.3   470  LEU470      0.1693
     85  C        -31.8980  -16.2240  -26.7310 C.2   470  LEU470      0.2593
     86  O        -31.8410  -15.6560  -27.8230 O.2   470  LEU470     -0.2718
     87  CB       -30.9920  -14.8120  -24.8610 C.3   470  LEU470      0.0284
     88  CG       -31.0970  -13.3280  -24.4830 C.3   470  LEU470      0.0019
     89  CD1      -32.3480  -13.0740  -23.6560 C.3   470  LEU470      0.0001
     90  CD2      -29.8640  -12.9210  -23.7060 C.3   470  LEU470      0.0001
     91  N        -31.6790  -17.5260  -26.5820 N.am  471  GLY471     -0.1942
     92  CA       -31.3250  -18.3440  -27.7300 C.3   471  GLY471      0.2014
     93  C        -29.8270  -18.3400  -27.9710 C.2   471  GLY471      0.2639
     94  O        -29.3620  -18.0870  -29.0800 O.2   471  GLY471     -0.2714
     95  N        -29.0730  -18.6270  -26.9170 N.am  472  VAL472     -0.1963
     96  CA       -27.6180  -18.6540  -26.9760 C.3   472  VAL472      0.1712
     97  C        -27.1080  -20.0560  -26.6670 C.2   472  VAL472      0.2458
     98  O        -27.7190  -20.7930  -25.8950 O.2   472  VAL472     -0.2730
     99  CB       -27.0170  -17.6700  -25.9380 C.3   472  VAL472      0.0289
    100  CG1      -25.4910  -17.7040  -25.9780 C.3   472  VAL472      0.0023
    101  CG2      -27.5470  -16.2720  -26.1990 C.3   472  VAL472      0.0023
    102  N        -25.9890  -20.4540  -27.2870 N.am  473  PRO473     -0.2727
    103  CA       -25.4460  -21.7890  -27.0200 C.3   473  PRO473      0.1402
    104  C        -25.3140  -22.0260  -25.5080 C.2   473  PRO473      0.2269
    105  O        -24.9300  -21.1210  -24.7600 O.2   473  PRO473     -0.2865
    106  CB       -24.1000  -21.7560  -27.7370 C.3   473  PRO473      0.0296
    107  CG       -24.4180  -20.9300  -28.9520 C.3   473  PRO473      0.0237
    108  CD       -25.2600  -19.7940  -28.3860 C.3   473  PRO473      0.0939
    109  N        -20.0150  -22.9950  -24.8740 N.3   478  TRP478     -0.1241
    110  CA       -19.1210  -21.8970  -24.5110 C.3   478  TRP478      0.1605
    111  C        -17.8530  -22.5030  -23.9160 C.2   478  TRP478      0.2264
    112  O        -16.7500  -21.9990  -24.1350 O.2   478  TRP478     -0.2867
    113  CB       -19.7710  -20.9530  -23.4900 C.3   478  TRP478      0.0550
    114  CG       -20.8000  -20.0530  -24.0850 C.ar  478  TRP478      0.0003
    115  CD1      -22.1500  -20.0850  -23.8660 C.ar  478  TRP478      0.0946
    116  CD2      -20.5730  -19.0170  -25.0440 C.ar  478  TRP478      0.0152
    117  NE1      -22.7790  -19.1340  -24.6360 N.ar  478  TRP478     -0.2442
    118  CE2      -21.8340  -18.4650  -25.3700 C.ar  478  TRP478      0.0810
    119  CE3      -19.4260  -18.5020  -25.6650 C.ar  478  TRP478      0.0012
    120  CZ2      -21.9820  -17.4200  -26.2920 C.ar  478  TRP478      0.0191
    121  CZ3      -19.5730  -17.4600  -26.5850 C.ar  478  TRP478      0.0001
    122  CH2      -20.8460  -16.9320  -26.8880 C.ar  478  TRP478      0.0015
    123  N        -15.6810  -23.2820  -26.8490 N.3   481  ARG481     -0.1245
    124  CA       -15.0920  -22.0680  -27.3960 C.3   481  ARG481      0.1563
    125  C        -14.0990  -21.4440  -26.4260 C.2   481  ARG481      0.2260
    126  O        -13.0800  -20.8800  -26.8370 O.2   481  ARG481     -0.2867
    127  CB       -16.1930  -21.0620  -27.7360 C.3   481  ARG481      0.0307
    128  CG       -17.1970  -21.5970  -28.7470 C.3   481  ARG481      0.0489
    129  CD       -18.2190  -20.5510  -29.1640 C.3   481  ARG481      0.2205
    130  NE       -19.2540  -21.1300  -30.0160 N.pl3 481  ARG481     -0.0865
    131  CZ       -20.3300  -20.4780  -30.4450 C.cat 481  ARG481      0.5346
    132  NH1      -20.5280  -19.2070  -30.1070 N.pl3 481  ARG481      0.1354
    133  NH2      -21.2160  -21.1010  -31.2120 N.pl3 481  ARG481      0.1354
@<TRIPOS>BOND
     1    42    41    2
     2    41    40    1
     3    45    43    1
     4    40    43    1
     5    40    39    1
     6   133   131    1
     7    43    44    1
     8   131   132    1
     9   131   130    2
    10   130   129    1
    11    37    36    2
    12     1     2    1
    13    70    71   ar
    14    70    68   ar
    15    12    11    2
    16    71    69   ar
    17   129   128    1
    18    94    93    2
    19   107   108    1
    20   107   106    1
    21    36    35    1
    22    68    67   ar
    23   128   127    1
    24    11    10    1
    25   108   102    1
    26     9    10    1
    27     9     3   am
    28     2     3    1
    29     2     5    1
    30    65    64    2
    31    38    35    1
    32    13    10    1
    33    13    14    1
    34    13    15    1
    35    35    34    1
    36    93    92    1
    37    93    95   am
    38    69    67   ar
    39     6     5    1
    40     6     7    1
    41    86    85    2
    42   106   103    1
    43   127   124    1
    44    92    91    1
    45    67    66    1
    46    75    74    2
    47     3     4    2
    48   124   123    1
    49   124   125    1
    50   102   103    1
    51   102    97   am
    52    80    78   ar
    53    80    82   ar
    54    32    31    2
    55    64    63    1
    56    64    72   am
    57   103   104    1
    58    96    95    1
    59    96    97    1
    60    96    99    1
    61   122   121   ar
    62   122   120   ar
    63    74    73    1
    64   126   125    2
    65    78    77   ar
    66     7     8    1
    67    85    91   am
    68    85    84    1
    69    97    98    2
    70    73    72    1
    71    73    76    1
    72    63    66    1
    73    63    62    1
    74    34    31   am
    75   121   119   ar
    76    82    81   ar
    77   120   118   ar
    78    31    30    1
    79   101    99    1
    80    27    26    2
    81   100    99    1
    82    77    76    1
    83    77    79   ar
    84   119   116   ar
    85   104   105    2
    86    84    87    1
    87    84    83    1
    88    81    79   ar
    89   118   116   ar
    90   118   117   ar
    91   116   114   ar
    92   109   110    1
    93    87    88    1
    94    26    25    1
    95    30    29    1
    96    30    33    1
    97   117   115   ar
    98   110   111    1
    99   110   113    1
   100    88    90    1
   101    88    89    1
   102    19    18    2
   103    25    28    1
   104    25    24    1
   105   112   111    2
   106   114   115   ar
   107   114   113    1
   108    18    24   am
   109    18    17    1
   110    57    56    2
   111    49    48    2
   112    52    50    1
   113    56    55    1
   114    48    47    1
   115    48    54   am
   116    61    59    1
   117    17    20    1
   118    17    16    1
   119    20    21    1
   120    55    54    1
   121    55    58    1
   122    47    50    1
   123    47    46    1
   124    50    51    1
   125    22    21    1
   126    21    23    1
   127    51    53    1
   128    58    59    1
   129    59    60    1
