@<TRIPOS>MOLECULE
tmp/3mwyA00.pdb
 158 150 0 0 0
SMALL
GASTEIGER

@<TRIPOS>ATOM
      1  N         40.4740   42.2820   29.9740 N.3   193  GLU193     -0.1231
      2  CA        40.4130   42.7600   31.3370 C.3   193  GLU193      0.1699
      3  C         39.1230   42.4270   32.0490 C.2   193  GLU193      0.2592
      4  O         38.4170   41.5060   31.6790 O.2   193  GLU193     -0.2718
      5  CB        40.6240   44.2760   31.3430 C.3   193  GLU193      0.0402
      6  CG        42.0830   44.6770   31.3720 C.3   193  GLU193      0.1161
      7  CD        42.8340   44.0670   32.5580 C.2   193  GLU193      0.3649
      8  OE1       42.3250   43.0890   33.1650 O.co2 193  GLU193     -0.2457
      9  OE2       43.9380   44.5680   32.8820 O.co2 193  GLU193     -0.2457
     10  N         38.8720   43.1560   33.1240 N.am  194  LEU194     -0.1966
     11  CA        37.5420   43.3830   33.6430 C.3   194  LEU194      0.1728
     12  C         37.6990   44.0070   34.9970 C.2   194  LEU194      0.2616
     13  O         38.1440   43.3510   35.9310 O.2   194  LEU194     -0.2715
     14  CB        36.6500   42.1320   33.6640 C.3   194  LEU194      0.0311
     15  CG        37.0890   40.7070   33.9300 C.3   194  LEU194      0.0022
     16  CD1       37.3740   40.5520   35.3690 C.3   194  LEU194      0.0001
     17  CD2       35.9860   39.7690   33.5050 C.3   194  LEU194      0.0001
     18  N         37.3760   45.2950   35.0780 N.am  195  ARG195     -0.1977
     19  CA        37.4960   46.0440   36.3220 C.3   195  ARG195      0.1597
     20  C         36.7890   45.2820   37.4370 C.2   195  ARG195      0.2287
     21  O         35.6560   44.8420   37.2880 O.2   195  ARG195     -0.2864
     22  CB        36.8930   47.4510   36.2040 C.3   195  ARG195      0.0334
     23  CG        36.4060   47.8740   34.8160 C.3   195  ARG195      0.0492
     24  CD        37.3820   48.7630   34.1190 C.3   195  ARG195      0.2205
     25  NE        38.3960   47.9870   33.4250 N.pl3 195  ARG195     -0.0865
     26  CZ        39.5040   48.5110   32.9160 C.cat 195  ARG195      0.5346
     27  NH1       39.7430   49.8130   33.0350 N.pl3 195  ARG195      0.1354
     28  NH2       40.3790   47.7350   32.2920 N.pl3 195  ARG195      0.1354
     29  N         33.5310   44.1440   37.7070 N.3   198  GLN198     -0.1245
     30  CA        33.1400   43.1380   36.7690 C.3   198  GLN198      0.1566
     31  C         33.1540   41.8060   37.5030 C.2   198  GLN198      0.2260
     32  O         32.1120   41.1750   37.6450 O.2   198  GLN198     -0.2867
     33  CB        34.0880   43.1300   35.5870 C.3   198  GLN198      0.0367
     34  CG        33.4050   43.3780   34.2630 C.3   198  GLN198      0.0905
     35  CD        33.7080   44.7450   33.6830 C.2   198  GLN198      0.2608
     36  OE1       34.8450   45.2150   33.7160 O.2   198  GLN198     -0.2717
     37  NE2       32.6890   45.3800   33.1220 N.am  198  GLN198     -0.0878
     38  N         22.9050   51.3040   31.5550 N.3   221  MET221     -0.1230
     39  CA        23.2810   50.8520   30.2060 C.3   221  MET221      0.1702
     40  C         24.7300   51.1320   29.7640 C.2   221  MET221      0.2593
     41  O         25.3790   52.0720   30.2460 O.2   221  MET221     -0.2718
     42  CB        22.2760   51.3290   29.1500 C.3   221  MET221      0.0401
     43  CG        22.4060   52.7860   28.7490 C.3   221  MET221      0.0596
     44  SD        22.3230   52.9860   26.9660 S.3   221  MET221     -0.1393
     45  CE        21.1000   51.7530   26.5040 C.3   221  MET221      0.0692
     46  N         25.2110   50.2960   28.8420 N.am  222  GLY222     -0.1942
     47  CA        26.5650   50.3970   28.2900 C.3   222  GLY222      0.2014
     48  C         27.6640   49.9740   29.2560 C.2   222  GLY222      0.2639
     49  O         28.8560   50.2480   29.0160 O.2   222  GLY222     -0.2714
     50  N         27.2720   49.2760   30.3260 N.am  223  LEU223     -0.1963
     51  CA        28.1330   49.1050   31.4970 C.3   223  LEU223      0.1728
     52  C         28.8640   47.7610   31.5790 C.2   223  LEU223      0.2617
     53  O         29.3040   47.3410   32.6550 O.2   223  LEU223     -0.2715
     54  CB        27.3080   49.3040   32.7680 C.3   223  LEU223      0.0311
     55  CG        27.7970   50.2360   33.8850 C.3   223  LEU223      0.0022
     56  CD1       26.9270   50.0480   35.1260 C.3   223  LEU223      0.0001
     57  CD2       29.2820   50.0690   34.2290 C.3   223  LEU223      0.0001
     58  N         28.9990   47.0770   30.4510 N.am  224  GLY224     -0.1940
     59  CA        29.7470   45.8260   30.4310 C.3   224  GLY224      0.2014
     60  C         28.8560   44.6180   30.5890 C.2   224  GLY224      0.2639
     61  O         29.3000   43.5010   30.3650 O.2   224  GLY224     -0.2714
     62  N         27.5930   44.8370   30.9500 N.am  225  LYS225     -0.1963
     63  CA        26.6350   43.7320   31.1490 C.3   225  LYS225      0.1728
     64  C         26.5820   42.6770   30.0300 C.2   225  LYS225      0.2617
     65  O         25.8490   41.6950   30.1360 O.2   225  LYS225     -0.2715
     66  CB        25.2200   44.2340   31.5120 C.3   225  LYS225      0.0311
     67  CG        24.7920   45.5420   30.8960 C.3   225  LYS225      0.0038
     68  CD        24.0430   46.3900   31.9010 C.3   225  LYS225      0.0206
     69  CE        22.5470   46.4700   31.6070 C.3   225  LYS225      0.1093
     70  NZ        22.1290   47.7870   30.9700 N.3   225  LYS225     -0.1314
     71  N         27.3630   42.8700   28.9730 N.am  226  THR226     -0.1937
     72  CA        27.5470   41.8290   27.9780 C.3   226  THR226      0.2028
     73  C         28.6760   40.9620   28.4590 C.2   226  THR226      0.2642
     74  O         28.4530   39.8220   28.8730 O.2   226  THR226     -0.2714
     75  CB        27.9370   42.4050   26.6470 C.3   226  THR226      0.1808
     76  OG1       26.9740   43.3970   26.2900 O.3   226  THR226     -0.2208
     77  CG2       27.9470   41.3390   25.5910 C.3   226  THR226      0.0379
     78  N         29.8890   41.5160   28.4230 N.am  227  VAL227     -0.1977
     79  CA        31.0710   40.8210   28.9240 C.3   227  VAL227      0.1596
     80  C         30.7480   40.0830   30.2310 C.2   227  VAL227      0.2287
     81  O         31.2100   38.9770   30.4600 O.2   227  VAL227     -0.2864
     82  CB        32.2620   41.7860   29.0960 C.3   227  VAL227      0.0276
     83  CG1       32.3710   42.2680   30.5230 C.3   227  VAL227      0.0022
     84  CG2       33.5340   41.1100   28.7020 C.3   227  VAL227      0.0022
     85  N         22.1600   44.2090   18.1760 N.3   254  THR254     -0.1218
     86  CA        23.3850   43.9960   18.9080 C.3   254  THR254      0.1862
     87  C         23.9150   42.5820   18.8430 C.2   254  THR254      0.2287
     88  O         24.8930   42.2640   19.5180 O.2   254  THR254     -0.2866
     89  CB        23.1920   44.3410   20.3790 C.3   254  THR254      0.1770
     90  OG1       22.0990   43.5740   20.9060 O.3   254  THR254     -0.2211
     91  CG2       22.9070   45.8190   20.5240 C.3   254  THR254      0.0375
     92  N         32.0910   39.5780   21.0200 N.3   261  THR261     -0.1218
     93  CA        32.3700   39.4600   22.4510 C.3   261  THR261      0.1862
     94  C         32.6670   38.0280   22.8590 C.2   261  THR261      0.2287
     95  O         33.4510   37.7730   23.7760 O.2   261  THR261     -0.2866
     96  CB        31.1730   39.9100   23.2770 C.3   261  THR261      0.1770
     97  OG1       30.3180   40.7220   22.4690 O.3   261  THR261     -0.2211
     98  CG2       31.6330   40.6850   24.4990 C.3   261  THR261      0.0375
     99  N         35.9780   36.7880   21.6800 N.3   264  LYS264     -0.1231
    100  CA        36.9920   37.6070   22.3050 C.3   264  LYS264      0.1693
    101  C         37.3270   37.0670   23.6900 C.2   264  LYS264      0.2592
    102  O         38.4920   36.9040   24.0240 O.2   264  LYS264     -0.2718
    103  CB        36.5540   39.0650   22.3780 C.3   264  LYS264      0.0285
    104  CG        37.6320   40.0100   22.8940 C.3   264  LYS264      0.0035
    105  CD        37.0850   41.4110   23.1430 C.3   264  LYS264      0.0206
    106  CE        38.0970   42.2880   23.8640 C.3   264  LYS264      0.1093
    107  NZ        37.5090   43.6050   24.2190 N.3   264  LYS264     -0.1314
    108  N         36.3070   36.7650   24.4840 N.am  265  TRP265     -0.1976
    109  CA        36.5300   36.4130   25.8770 C.3   265  TRP265      0.1640
    110  C         36.3270   34.9540   26.1570 C.2   265  TRP265      0.2290
    111  O         36.8160   34.4470   27.1600 O.2   265  TRP265     -0.2864
    112  CB        35.6070   37.2120   26.7740 C.3   265  TRP265      0.0576
    113  CG        35.7810   38.7010   26.6670 C.ar  265  TRP265      0.0006
    114  CD1       35.2330   39.5180   25.7270 C.ar  265  TRP265      0.0946
    115  CD2       36.5320   39.5510   27.5490 C.ar  265  TRP265      0.0152
    116  NE1       35.6010   40.8170   25.9600 N.ar  265  TRP265     -0.2442
    117  CE2       36.3990   40.8640   27.0720 C.ar  265  TRP265      0.0810
    118  CE3       37.3070   39.3270   28.6920 C.ar  265  TRP265      0.0012
    119  CZ2       37.0070   41.9510   27.6980 C.ar  265  TRP265      0.0191
    120  CZ3       37.9100   40.4050   29.3040 C.ar  265  TRP265      0.0001
    121  CH2       37.7570   41.6990   28.8090 C.ar  265  TRP265      0.0015
    122  N         19.0980   39.9970   26.7750 N.3   326  ASP326     -0.1225
    123  CA        19.6320   41.3640   26.8400 C.3   326  ASP326      0.1805
    124  C         18.4960   42.3250   26.6780 C.2   326  ASP326      0.2597
    125  O         17.3940   41.9080   26.3120 O.2   326  ASP326     -0.2718
    126  CB        20.6770   41.6220   25.7390 C.3   326  ASP326      0.1424
    127  CG        21.5550   43.0520   26.0770 C.2   326  ASP326      0.3668
    128  OD1       22.1940   43.5850   25.1790 O.co2 326  ASP326     -0.2456
    129  OD2       21.3420   43.6800   27.2080 O.co2 326  ASP326     -0.2456
    130  N         18.7610   43.6070   26.9460 N.am  327  GLU327     -0.1979
    131  CA        17.7630   44.6900   26.8230 C.3   327  GLU327      0.1602
    132  C         16.3510   44.0930   26.8760 C.2   327  GLU327      0.2287
    133  O         15.5310   44.2730   25.9690 O.2   327  GLU327     -0.2864
    134  CB        18.0170   45.5390   25.5560 C.3   327  GLU327      0.0415
    135  CG        17.5360   47.0070   25.6290 C.3   327  GLU327      0.1163
    136  CD        18.4900   47.9700   26.3690 C.2   327  GLU327      0.3649
    137  OE1       18.6820   49.1150   25.8380 O.co2 327  GLU327     -0.2457
    138  OE2       19.0250   47.6100   27.4770 O.co2 327  GLU327     -0.2457
    139  N         18.5090   40.5670   31.7680 N.3   353  ILE353     -0.1245
    140  CA        19.1220   41.8910   31.6660 C.3   353  ILE353      0.1561
    141  C         18.1540   43.0370   31.2880 C.2   353  ILE353      0.2260
    142  O         17.2780   42.9000   30.4260 O.2   353  ILE353     -0.2867
    143  CB        20.3410   41.8830   30.7230 C.3   353  ILE353      0.0252
    144  CG1       20.9600   40.4970   30.6980 C.3   353  ILE353      0.0019
    145  CG2       21.3800   42.9170   31.1570 C.3   353  ILE353      0.0019
    146  CD1       22.2560   40.4350   29.9660 C.3   353  ILE353      0.0001
    147  N         18.4050   47.7080   31.9110 N.3   355  GLY355     -0.1225
    148  CA        18.9850   48.7960   32.6850 C.3   355  GLY355      0.1811
    149  C         17.9510   49.5340   33.5280 C.2   355  GLY355      0.2280
    150  O         17.8350   50.7540   33.3920 O.2   355  GLY355     -0.2866
    151  N         36.9940   53.9610   27.6900 N.3   598  ILE598     -0.1245
    152  CA        37.0680   52.7490   28.5570 C.3   598  ILE598      0.1561
    153  C         38.3960   51.9500   28.5040 C.2   598  ILE598      0.2260
    154  O         38.4660   50.7660   28.8330 O.2   598  ILE598     -0.2867
    155  CB        35.8210   51.8090   28.3350 C.3   598  ILE598      0.0252
    156  CG1       34.5420   52.6060   27.9140 C.3   598  ILE598      0.0019
    157  CG2       35.6270   50.8470   29.5400 C.3   598  ILE598      0.0019
    158  CD1       34.0990   53.8020   28.8090 C.3   598  ILE598      0.0001
@<TRIPOS>BOND
     1    85    86    1
     2    87    86    1
     3    87    88    2
     4    86    89    1
     5    89    91    1
     6    89    90    1
     7    92    93    1
     8    99   100    1
     9   100   103    1
    10   100   101    1
    11   103   104    1
    12    93    94    1
    13    93    96    1
    14    97    96    1
    15    94    95    2
    16   104   105    1
    17   105   106    1
    18    96    98    1
    19   101   102    2
    20   101   108   am
    21   106   107    1
    22   108   109    1
    23   128   127   ar
    24   134   135    1
    25   134   131    1
    26    77    75    1
    27   135   136    1
    28   114   116   ar
    29   114   113   ar
    30   126   127    1
    31   126   123    1
    32   137   136   ar
    33   109   110    1
    34   109   112    1
    35   116   117   ar
    36   133   132    2
    37   127   129   ar
    38   110   111    2
    39    76    75    1
    40   125   124    2
    41   136   138   ar
    42    45    44    1
    43    75    72    1
    44   113   112    1
    45   113   115   ar
    46   124   123    1
    47   124   130   am
    48   122   123    1
    49   131   132    1
    50   131   130    1
    51    44    43    1
    52   117   115   ar
    53   117   119   ar
    54   115   118   ar
    55   151   152    1
    56   119   121   ar
    57   156   155    1
    58   156   158    1
    59    72    73    1
    60    72    71    1
    61    47    46    1
    62    47    48    1
    63   155   152    1
    64   155   157    1
    65    78    73   am
    66    78    79    1
    67    73    74    2
    68   153   152    1
    69   153   154    2
    70   118   120   ar
    71    84    82    1
    72    43    42    1
    73   121   120   ar
    74    46    40   am
    75    79    82    1
    76    79    80    1
    77    71    64   am
    78    49    48    2
    79    82    83    1
    80    42    39    1
    81    48    50   am
    82    40    39    1
    83    40    41    2
    84   146   144    1
    85     1     2    1
    86    64    65    2
    87    64    63    1
    88    39    38    1
    89    80    81    2
    90    50    51    1
    91    61    60    2
    92   142   141    2
    93    59    58    1
    94    59    60    1
    95    58    52   am
    96    60    62   am
    97   144   143    1
    98   143   145    1
    99   143   140    1
   100    67    66    1
   101    67    68    1
   102    62    63    1
   103    70    69    1
   104    63    66    1
   105   141   140    1
   106     2     5    1
   107     2     3    1
   108     5     6    1
   109     6     7    1
   110    51    52    1
   111    51    54    1
   112    52    53    2
   113    69    68    1
   114   140   139    1
   115     4     3    2
   116   147   148    1
   117     3    10   am
   118    28    26    1
   119     7     9   ar
   120     7     8   ar
   121   148   149    1
   122    54    55    1
   123    26    27    1
   124    26    25    2
   125    37    35   am
   126    10    11    1
   127   150   149    2
   128    25    24    1
   129    17    15    1
   130    11    14    1
   131    11    12    1
   132    14    15    1
   133    35    36    2
   134    35    34    1
   135    55    57    1
   136    55    56    1
   137    15    16    1
   138    24    23    1
   139    34    33    1
   140    23    22    1
   141    12    18   am
   142    12    13    2
   143    18    19    1
   144    33    30    1
   145    22    19    1
   146    19    20    1
   147    30    31    1
   148    30    29    1
   149    21    20    2
   150    31    32    2
