@<TRIPOS>MOLECULE
tmp/3mx0D00.pdb
 103 104 0 0 0
SMALL
GASTEIGER

@<TRIPOS>ATOM
      1  N         19.8890  -18.4970   81.0070 N.3     8  TYR8       -0.1241
      2  CA        20.4150  -19.2130   79.8470 C.3     8  TYR8        0.1605
      3  C         20.1680  -20.7120   79.8720 C.2     8  TYR8        0.2264
      4  O         21.0290  -21.5030   80.2270 O.2     8  TYR8       -0.2867
      5  CB        21.8820  -18.8750   79.6240 C.3     8  TYR8        0.0534
      6  CG        22.1060  -17.3850   79.5010 C.ar    8  TYR8       -0.0201
      7  CD1       22.2610  -16.5950   80.6380 C.ar    8  TYR8       -0.0009
      8  CD2       22.1370  -16.7580   78.2540 C.ar    8  TYR8       -0.0009
      9  CE1       22.4590  -15.2190   80.5440 C.ar    8  TYR8        0.0417
     10  CE2       22.3370  -15.3770   78.1470 C.ar    8  TYR8        0.0417
     11  CZ        22.4980  -14.6130   79.3010 C.ar    8  TYR8        0.1957
     12  OH        22.6960  -13.2440   79.2300 O.3     8  TYR8       -0.2866
     13  N         20.4900  -23.7150   79.0800 N.3    10  ASN10      -0.1240
     14  CA        21.2190  -24.8650   78.5500 C.3    10  ASN10       0.1653
     15  C         21.7650  -25.7660   79.6750 C.2    10  ASN10       0.2266
     16  O         22.2910  -25.2690   80.6760 O.2    10  ASN10      -0.2867
     17  CB        22.2730  -24.4500   77.4990 C.3    10  ASN10       0.1155
     18  CG        23.5080  -23.7720   78.0950 C.2    10  ASN10       0.2627
     19  OD1       24.6040  -24.3210   78.0230 O.2    10  ASN10      -0.2716
     20  ND2       23.3480  -22.5590   78.6230 N.am   10  ASN10      -0.0877
     21  N         24.2320  -27.3820   80.7450 N.3    12  SER12      -0.1202
     22  CA        25.4780  -26.9760   81.3730 C.3    12  SER12       0.2020
     23  C         25.2900  -25.8890   82.4250 C.2    12  SER12       0.2619
     24  O         26.1930  -25.6300   83.2130 O.2    12  SER12      -0.2717
     25  CB        26.4630  -26.4870   80.3060 C.3    12  SER12       0.2103
     26  OG        26.4590  -27.3260   79.1590 O.3    12  SER12      -0.2182
     27  N         24.1330  -25.2400   82.4270 N.am   13  ASN13      -0.1960
     28  CA        23.8700  -24.1870   83.3980 C.3    13  ASN13       0.1804
     29  C         23.8470  -24.7520   84.8260 C.2    13  ASN13       0.2463
     30  O         23.1310  -25.7160   85.1060 O.2    13  ASN13      -0.2730
     31  CB        22.5640  -23.4560   83.0600 C.3    13  ASN13       0.1195
     32  CG        22.5570  -22.0050   83.5360 C.2    13  ASN13       0.2630
     33  OD1       23.5760  -21.4800   83.9890 O.2    13  ASN13      -0.2716
     34  ND2       21.4070  -21.3470   83.4180 N.am   13  ASN13      -0.0877
     35  N         24.6550  -24.1610   85.7260 N.am   14  PRO14      -0.2727
     36  CA        24.8160  -24.6030   87.1160 C.3    14  PRO14       0.1402
     37  C         23.5560  -24.4890   87.9760 C.2    14  PRO14       0.2269
     38  O         23.3590  -25.3130   88.8760 O.2    14  PRO14      -0.2865
     39  CB        25.8930  -23.6550   87.6530 C.3    14  PRO14       0.0296
     40  CG        25.8430  -22.4720   86.7680 C.3    14  PRO14       0.0237
     41  CD        25.5470  -23.0320   85.4170 C.3    14  PRO14       0.0939
     42  N         16.9250  -17.0190   77.1580 N.3    34  PHE34      -0.1227
     43  CA        17.8830  -17.1370   76.0470 C.3    34  PHE34       0.1736
     44  C         18.1870  -18.5940   75.7340 C.2    34  PHE34       0.2596
     45  O         18.9890  -19.2080   76.4450 O.2    34  PHE34      -0.2718
     46  CB        19.1600  -16.4050   76.4050 C.3    34  PHE34       0.0547
     47  CG        18.9230  -14.9940   76.8620 C.ar   34  PHE34      -0.0202
     48  CD1       18.3370  -14.7320   78.0740 C.ar   34  PHE34      -0.0042
     49  CD2       19.2900  -13.9260   76.0810 C.ar   34  PHE34      -0.0042
     50  CE1       18.1260  -13.4180   78.5060 C.ar   34  PHE34      -0.0003
     51  CE2       19.0860  -12.6170   76.4980 C.ar   34  PHE34      -0.0003
     52  CZ        18.5010  -12.3550   77.7190 C.ar   34  PHE34      -0.0000
     53  N         17.5830  -19.1410   74.6760 N.am   35  CYS35      -0.1957
     54  CA        17.8060  -20.5420   74.3180 C.3    35  CYS35       0.1828
     55  C         19.2970  -20.9210   74.1370 C.2    35  CYS35       0.2467
     56  O         20.2190  -20.1060   74.3250 O.2    35  CYS35      -0.2730
     57  CB        17.0600  -20.9030   73.0340 C.3    35  CYS35       0.0996
     58  SG        15.3000  -20.5150   73.0290 S.3    35  CYS35      -0.0797
     59  N         19.5530  -22.2070   73.8410 N.am   36  PRO36      -0.2715
     60  CA        20.9210  -22.6000   73.4780 C.3    36  PRO36       0.1536
     61  C         21.3120  -22.0450   72.1110 C.2    36  PRO36       0.2599
     62  O         20.5240  -22.1990   71.1790 O.2    36  PRO36      -0.2715
     63  CB        20.8340  -24.1370   73.3580 C.3    36  PRO36       0.0310
     64  CG        19.6360  -24.5210   74.1290 C.3    36  PRO36       0.0237
     65  CD        18.6840  -23.3810   74.0500 C.3    36  PRO36       0.0939
     66  N         22.4870  -21.4260   71.9880 N.am   37  HIS37      -0.1960
     67  CA        22.9900  -20.9600   70.6910 C.3    37  HIS37       0.1787
     68  C         24.4900  -21.2060   70.5180 C.2    37  HIS37       0.2620
     69  O         25.2970  -20.7730   71.3410 O.2    37  HIS37      -0.2715
     70  CB        22.6940  -19.4790   70.5120 C.3    37  HIS37       0.0785
     71  CG        23.2280  -18.9080   69.2380 C.ar   37  HIS37       0.0821
     72  ND1       22.7810  -19.3070   67.9980 N.ar   37  HIS37      -0.2267
     73  CD2       24.1690  -17.9620   69.0150 C.ar   37  HIS37       0.1154
     74  CE1       23.4210  -18.6280   67.0620 C.ar   37  HIS37       0.1986
     75  NE2       24.2700  -17.8060   67.6530 N.ar   37  HIS37      -0.2212
     76  N         24.8580  -21.8890   69.4370 N.am   38  TYR38      -0.1974
     77  CA        26.2480  -22.2850   69.2230 C.3    38  TYR38       0.1639
     78  C         26.9200  -21.5380   68.0710 C.2    38  TYR38       0.2290
     79  O         26.3530  -20.6050   67.5000 O.2    38  TYR38      -0.2864
     80  CB        26.3410  -23.7930   68.9750 C.3    38  TYR38       0.0560
     81  CG        25.7050  -24.6330   70.0560 C.ar   38  TYR38      -0.0198
     82  CD1       24.4370  -25.1610   69.8890 C.ar   38  TYR38      -0.0009
     83  CD2       26.3710  -24.8950   71.2440 C.ar   38  TYR38      -0.0009
     84  CE1       23.8470  -25.9300   70.8760 C.ar   38  TYR38       0.0417
     85  CE2       25.7910  -25.6660   72.2380 C.ar   38  TYR38       0.0417
     86  CZ        24.5270  -26.1790   72.0490 C.ar   38  TYR38       0.1957
     87  OH        23.9370  -26.9440   73.0330 O.3    38  TYR38      -0.2866
     88  N         21.2450  -28.7040   71.9620 N.3    48  GLU48      -0.1245
     89  CA        20.0720  -28.6920   72.8250 C.3    48  GLU48       0.1567
     90  C         18.8730  -28.0420   72.1300 C.2    48  GLU48       0.2260
     91  O         18.8970  -26.8510   71.8090 O.2    48  GLU48      -0.2867
     92  CB        20.3760  -27.9600   74.1420 C.3    48  GLU48       0.0388
     93  CG        21.4160  -28.6320   75.0530 C.3    48  GLU48       0.1160
     94  CD        21.5090  -27.9820   76.4420 C.2    48  GLU48       0.3649
     95  OE1       22.5840  -27.4360   76.7800 O.co2  48  GLU48      -0.2457
     96  OE2       20.5120  -28.0210   77.1990 O.co2  48  GLU48      -0.2457
     97  N         20.8950  -15.8450   69.7980 N.3    84  PRO84      -0.2116
     98  CA        20.1200  -16.9770   70.3310 C.3    84  PRO84       0.1372
     99  C         18.6050  -16.7400   70.3850 C.2    84  PRO84       0.2244
    100  O         18.1570  -15.6610   70.7840 O.2    84  PRO84      -0.2868
    101  CB        20.6360  -17.0800   71.7580 C.3    84  PRO84       0.0268
    102  CG        20.9240  -15.6580   72.1280 C.3    84  PRO84       0.0207
    103  CD        21.5000  -15.0410   70.8780 C.3    84  PRO84       0.0892
@<TRIPOS>BOND
     1    74    75   ar
     2    74    72   ar
     3    79    78    2
     4    75    73   ar
     5    72    71   ar
     6    78    77    1
     7    80    77    1
     8    80    81    1
     9    73    71   ar
    10    77    76    1
    11    71    70    1
    12    76    68   am
    13    97    98    1
    14    97   103    1
    15    82    81   ar
    16    82    84   ar
    17    81    83   ar
    18    98    99    1
    19    98   101    1
    20    99   100    2
    21    70    67    1
    22    68    67    1
    23    68    69    2
    24    67    66    1
    25    84    86   ar
    26   103   102    1
    27    62    61    2
    28    83    85   ar
    29   101   102    1
    30    91    90    2
    31    88    89    1
    32    66    61   am
    33    86    85   ar
    34    86    87    1
    35    61    60    1
    36    90    89    1
    37    89    92    1
    38    58    57    1
    39    57    54    1
    40    63    60    1
    41    63    64    1
    42    60    59    1
    43    59    65    1
    44    59    55   am
    45    65    64    1
    46    55    54    1
    47    55    56    2
    48    92    93    1
    49    54    53    1
    50    53    44   am
    51    93    94    1
    52    44    43    1
    53    44    45    2
    54    43    46    1
    55    43    42    1
    56    49    51   ar
    57    49    47   ar
    58    46    47    1
    59    94    95   ar
    60    94    96   ar
    61    51    52   ar
    62    47    48   ar
    63    17    18    1
    64    17    14    1
    65    52    50   ar
    66    19    18    2
    67    48    50   ar
    68    18    20   am
    69    10     8   ar
    70    10    11   ar
    71     8     6   ar
    72    14    13    1
    73    14    15    1
    74    26    25    1
    75    12    11    1
    76    11     9   ar
    77     6     5    1
    78     6     7   ar
    79     5     2    1
    80    15    16    2
    81     2     3    1
    82     2     1    1
    83     3     4    2
    84    25    22    1
    85     9     7   ar
    86    21    22    1
    87    22    23    1
    88    23    27   am
    89    23    24    2
    90    27    28    1
    91    31    28    1
    92    31    32    1
    93    28    29    1
    94    34    32   am
    95    32    33    2
    96    29    30    2
    97    29    35   am
    98    41    35    1
    99    41    40    1
   100    35    36    1
   101    40    39    1
   102    36    39    1
   103    36    37    1
   104    37    38    2
