@<TRIPOS>MOLECULE
tmp/3mx2B00.pdb
 216 204 0 0 0
SMALL
GASTEIGER

@<TRIPOS>ATOM
      1  N        -19.1370  -18.4050  -28.3690 N.3    47  MET47      -0.1245
      2  CA       -19.0630  -19.8800  -28.2580 C.3    47  MET47       0.1570
      3  C        -19.7930  -20.6200  -29.3790 C.2    47  MET47       0.2261
      4  O        -19.4250  -21.7610  -29.6610 O.2    47  MET47      -0.2867
      5  CB       -19.5190  -20.3690  -26.8610 C.3    47  MET47       0.0387
      6  CG       -18.6520  -19.8420  -25.7130 C.3    47  MET47       0.0595
      7  SD       -16.9100  -20.3910  -25.7650 S.3    47  MET47      -0.1393
      8  CE       -17.1710  -22.1660  -25.5570 C.3    47  MET47       0.0692
      9  N        -12.5980  -19.2150  -33.1520 N.3    52  ARG52      -0.1245
     10  CA       -12.4660  -18.1530  -32.1480 C.3    52  ARG52       0.1563
     11  C        -11.0210  -17.6640  -32.0520 C.2    52  ARG52       0.2260
     12  O        -10.0820  -18.4280  -32.2870 O.2    52  ARG52      -0.2867
     13  CB       -12.9890  -18.6320  -30.7700 C.3    52  ARG52       0.0307
     14  CG       -14.3400  -19.3340  -30.9230 C.3    52  ARG52       0.0489
     15  CD       -14.8460  -19.9600  -29.6580 C.3    52  ARG52       0.2205
     16  NE       -15.8530  -20.9700  -29.9630 N.pl3  52  ARG52      -0.0865
     17  CZ       -15.9100  -22.1440  -29.3610 C.cat  52  ARG52       0.5346
     18  NH1      -15.0210  -22.4440  -28.4330 N.pl3  52  ARG52       0.1354
     19  NH2      -16.8640  -23.0140  -29.6800 N.pl3  52  ARG52       0.1354
     20  N         -7.7090  -34.3260  -24.8930 N.3   109  THR109     -0.1203
     21  CA        -9.0970  -33.8830  -25.0100 C.3   109  THR109      0.1994
     22  C         -9.1550  -32.3980  -25.3840 C.2   109  THR109      0.2617
     23  O         -9.9710  -31.9860  -26.2260 O.2   109  THR109     -0.2717
     24  CB        -9.9480  -34.1270  -23.7290 C.3   109  THR109      0.1784
     25  OG1       -9.9870  -35.5260  -23.4040 O.3   109  THR109     -0.2211
     26  CG2      -11.4320  -33.6430  -23.9350 C.3   109  THR109      0.0376
     27  N         -8.2690  -31.6210  -24.7750 N.am  110  GLU110     -0.1979
     28  CA        -8.2910  -30.1630  -24.8970 C.3   110  GLU110      0.1602
     29  C         -7.3150  -29.5570  -25.9200 C.2   110  GLU110      0.2287
     30  O         -7.6620  -28.6120  -26.6020 O.2   110  GLU110     -0.2864
     31  CB        -8.0990  -29.5230  -23.5210 C.3   110  GLU110      0.0415
     32  CG        -9.3030  -29.7490  -22.6190 C.3   110  GLU110      0.1163
     33  CD        -9.1380  -29.1780  -21.1980 C.2   110  GLU110      0.3649
     34  OE1       -8.2820  -28.2960  -20.9080 O.co2 110  GLU110     -0.2457
     35  OE2       -9.9090  -29.6300  -20.3610 O.co2 110  GLU110     -0.2457
     36  N         -8.1250  -28.4590  -29.8060 N.3   113  LEU113     -0.1245
     37  CA        -8.9240  -27.2440  -29.9010 C.3   113  LEU113      0.1561
     38  C         -8.0730  -26.0420  -30.2970 C.2   113  LEU113      0.2260
     39  O         -8.5480  -25.1470  -31.0140 O.2   113  LEU113     -0.2867
     40  CB        -9.6150  -26.9550  -28.5410 C.3   113  LEU113      0.0270
     41  CG       -10.9980  -27.4960  -28.1110 C.3   113  LEU113      0.0019
     42  CD1      -11.4730  -28.7640  -28.7720 C.3   113  LEU113      0.0001
     43  CD2      -11.0450  -27.6610  -26.5770 C.3   113  LEU113      0.0001
     44  N        -13.9130  -35.8900  -29.0440 N.3   137  ILE137     -0.1245
     45  CA       -13.6080  -34.7350  -28.2010 C.3   137  ILE137      0.1561
     46  C        -14.5360  -33.5390  -28.3880 C.2   137  ILE137      0.2260
     47  O        -14.2470  -32.4610  -27.8890 O.2   137  ILE137     -0.2867
     48  CB       -12.1250  -34.2910  -28.2790 C.3   137  ILE137      0.0252
     49  CG1      -11.7190  -33.8010  -29.6740 C.3   137  ILE137      0.0019
     50  CG2      -11.1880  -35.4150  -27.8210 C.3   137  ILE137      0.0019
     51  CD1      -10.2640  -33.2450  -29.7010 C.3   137  ILE137      0.0001
     52  N        -10.3310  -24.7790  -33.3760 N.3   148  VAL148     -0.1231
     53  CA       -11.3930  -23.9430  -32.8530 C.3   148  VAL148      0.1692
     54  C        -10.8250  -22.5980  -32.3430 C.2   148  VAL148      0.2592
     55  O        -11.3820  -21.5430  -32.6370 O.2   148  VAL148     -0.2718
     56  CB       -12.1680  -24.7000  -31.7300 C.3   148  VAL148      0.0266
     57  CG1      -13.1640  -23.8070  -31.0390 C.3   148  VAL148      0.0020
     58  CG2      -12.8620  -25.9720  -32.2940 C.3   148  VAL148      0.0020
     59  N         -9.7460  -22.6600  -31.5640 N.am  149  TRP149     -0.1976
     60  CA        -9.1000  -21.4940  -30.9850 C.3   149  TRP149      0.1640
     61  C         -7.7530  -21.1480  -31.6080 C.2   149  TRP149      0.2290
     62  O         -6.7760  -21.9260  -31.5030 O.2   149  TRP149     -0.2864
     63  CB        -8.8900  -21.6910  -29.4800 C.3   149  TRP149      0.0576
     64  CG       -10.0960  -21.6650  -28.6230 C.ar  149  TRP149      0.0006
     65  CD1      -10.7190  -22.7480  -28.0590 C.ar  149  TRP149      0.0946
     66  CD2      -10.7930  -20.5060  -28.1490 C.ar  149  TRP149      0.0152
     67  NE1      -11.7850  -22.3360  -27.3100 N.ar  149  TRP149     -0.2442
     68  CE2      -11.8510  -20.9650  -27.3330 C.ar  149  TRP149      0.0810
     69  CE3      -10.6210  -19.1210  -28.3280 C.ar  149  TRP149      0.0012
     70  CZ2      -12.7460  -20.0900  -26.6730 C.ar  149  TRP149      0.0191
     71  CZ3      -11.5330  -18.2420  -27.6930 C.ar  149  TRP149      0.0001
     72  CH2      -12.5800  -18.7380  -26.8810 C.ar  149  TRP149      0.0015
     73  N         -6.4730  -20.4370  -22.0300 N.3   157  LEU157     -0.1245
     74  CA        -7.7220  -21.1970  -22.0380 C.3   157  LEU157      0.1561
     75  C         -7.9650  -22.0160  -20.7660 C.2   157  LEU157      0.2260
     76  O         -9.1120  -22.4070  -20.4930 O.2   157  LEU157     -0.2867
     77  CB        -7.8320  -22.0960  -23.2890 C.3   157  LEU157      0.0270
     78  CG        -7.7540  -21.4260  -24.6550 C.3   157  LEU157      0.0019
     79  CD1       -7.2790  -22.4510  -25.6660 C.3   157  LEU157      0.0001
     80  CD2       -9.1370  -20.9020  -25.0550 C.3   157  LEU157      0.0001
     81  N         -9.1220  -23.5510  -17.5350 N.3   159  ASN159     -0.1240
     82  CA       -10.0910  -23.3680  -16.4610 C.3   159  ASN159      0.1653
     83  C        -11.0750  -22.2360  -16.7420 C.2   159  ASN159      0.2266
     84  O        -11.6060  -21.6500  -15.8330 O.2   159  ASN159     -0.2867
     85  CB        -9.3730  -23.1270  -15.1180 C.3   159  ASN159      0.1155
     86  CG        -8.3280  -24.1960  -14.8070 C.2   159  ASN159      0.2627
     87  OD1       -8.6240  -25.3770  -14.8290 O.2   159  ASN159     -0.2716
     88  ND2       -7.0920  -23.7690  -14.5200 N.am  159  ASN159     -0.0877
     89  N        -13.7860  -22.6150  -18.6490 N.3   161  PHE161     -0.1227
     90  CA       -15.0030  -23.1800  -19.2600 C.3   161  PHE161      0.1736
     91  C        -15.9250  -23.9680  -18.3350 C.2   161  PHE161      0.2596
     92  O        -16.8520  -24.6530  -18.7910 O.2   161  PHE161     -0.2718
     93  CB       -14.6320  -24.0250  -20.4760 C.3   161  PHE161      0.0547
     94  CG       -13.9350  -23.2360  -21.5500 C.ar  161  PHE161     -0.0202
     95  CD1      -14.6640  -22.6790  -22.6140 C.ar  161  PHE161     -0.0042
     96  CD2      -12.5390  -23.0510  -21.4920 C.ar  161  PHE161     -0.0042
     97  CE1      -13.9950  -21.9400  -23.6430 C.ar  161  PHE161     -0.0003
     98  CE2      -11.8800  -22.3140  -22.4810 C.ar  161  PHE161     -0.0003
     99  CZ       -12.6170  -21.7550  -23.5530 C.ar  161  PHE161     -0.0000
    100  N        -15.6770  -23.8740  -17.0450 N.am  162  GLY162     -0.1942
    101  CA       -16.4200  -24.6910  -16.0550 C.3   162  GLY162      0.2014
    102  C        -17.7920  -24.1130  -15.7690 C.2   162  GLY162      0.2639
    103  O        -17.9670  -22.9020  -15.7900 O.2   162  GLY162     -0.2714
    104  N        -18.7670  -24.9880  -15.4950 N.am  163  THR163     -0.1950
    105  CA       -20.0560  -24.5500  -15.0030 C.3   163  THR163      0.1897
    106  C        -20.0610  -24.3560  -13.4960 C.2   163  THR163      0.2313
    107  O        -19.3940  -25.0740  -12.7550 O.2   163  THR163     -0.2863
    108  CB       -21.2170  -25.5040  -15.4080 C.3   163  THR163      0.1794
    109  OG1      -21.0800  -26.7380  -14.6990 O.3   163  THR163     -0.2208
    110  CG2      -21.1370  -25.8300  -16.8870 C.3   163  THR163      0.0378
    111  N        -20.4120  -31.5980  -21.4600 N.3   223  SER223     -0.1202
    112  CA       -19.4770  -30.6380  -20.8560 C.3   223  SER223      0.2020
    113  C        -18.2900  -30.3520  -21.7920 C.2   223  SER223      0.2619
    114  O        -17.5410  -29.4040  -21.5710 O.2   223  SER223     -0.2717
    115  CB       -18.9610  -31.1480  -19.5130 C.3   223  SER223      0.2103
    116  OG       -17.9470  -32.1280  -19.7040 O.3   223  SER223     -0.2182
    117  N        -18.1020  -31.2040  -22.8040 N.am  224  LEU224     -0.1965
    118  CA       -17.0560  -30.9880  -23.8110 C.3   224  LEU224      0.1728
    119  C        -17.4660  -29.8450  -24.7460 C.2   224  LEU224      0.2616
    120  O        -16.6230  -29.1070  -25.2200 O.2   224  LEU224     -0.2715
    121  CB       -16.7740  -32.2650  -24.6310 C.3   224  LEU224      0.0311
    122  CG       -16.3450  -33.5390  -23.8830 C.3   224  LEU224      0.0022
    123  CD1      -16.3070  -34.7300  -24.8210 C.3   224  LEU224      0.0001
    124  CD2      -15.0150  -33.3700  -23.1690 C.3   224  LEU224      0.0001
    125  N        -18.7730  -29.7070  -24.9620 N.am  225  ASN225     -0.1958
    126  CA       -19.3680  -28.7760  -25.9090 C.3   225  ASN225      0.1819
    127  C        -19.6850  -27.3810  -25.3410 C.2   225  ASN225      0.2621
    128  O        -20.0130  -26.4660  -26.1130 O.2   225  ASN225     -0.2715
    129  CB       -20.6950  -29.3760  -26.4190 C.3   225  ASN225      0.1195
    130  CG       -20.4920  -30.6480  -27.2160 C.2   225  ASN225      0.2630
    131  OD1      -19.6200  -30.7170  -28.0840 O.2   225  ASN225     -0.2716
    132  ND2      -21.2940  -31.6700  -26.9200 N.am  225  ASN225     -0.0877
    133  N        -19.5850  -27.2260  -24.0130 N.am  226  ILE226     -0.1977
    134  CA       -20.1050  -26.0220  -23.3070 C.3   226  ILE226      0.1596
    135  C        -19.1290  -25.1170  -22.5000 C.2   226  ILE226      0.2287
    136  O        -18.0040  -25.5000  -22.1410 O.2   226  ILE226     -0.2864
    137  CB       -21.3630  -26.3710  -22.4280 C.3   226  ILE226      0.0276
    138  CG1      -20.9960  -27.2750  -21.2590 C.3   226  ILE226      0.0022
    139  CG2      -22.5050  -26.9760  -23.3040 C.3   226  ILE226      0.0022
    140  CD1      -21.7820  -26.9740  -19.9800 C.3   226  ILE226      0.0001
    141  N        -25.9390  -31.4620  -17.7460 N.3   234  GLY234     -0.1225
    142  CA       -24.8570  -31.4840  -16.7420 C.3   234  GLY234      0.1811
    143  C        -24.7990  -30.2600  -15.8340 C.2   234  GLY234      0.2280
    144  O        -24.6400  -30.3910  -14.5990 O.2   234  GLY234     -0.2866
    145  N        -25.8170  -30.3820  -11.7450 N.3   238  LYS238     -0.1245
    146  CA       -24.8950  -29.8970  -10.7670 C.3   238  LYS238      0.1561
    147  C        -25.5190  -28.7620   -9.9130 C.2   238  LYS238      0.2260
    148  O        -25.3050  -28.7080   -8.6850 O.2   238  LYS238     -0.2867
    149  CB       -23.5710  -29.5090  -11.4360 C.3   238  LYS238      0.0271
    150  CG       -22.6970  -28.6260  -10.6060 C.3   238  LYS238      0.0035
    151  CD       -21.5720  -27.9630  -11.4290 C.3   238  LYS238      0.0206
    152  CE       -20.6240  -28.9830  -12.1650 C.3   238  LYS238      0.1093
    153  NZ       -19.4030  -28.2110  -12.5530 N.3   238  LYS238     -0.1314
    154  N        -15.5320  -37.5600  -19.0480 N.3   285  ARG285     -0.1245
    155  CA       -14.9630  -38.1870  -17.8650 C.3   285  ARG285      0.1563
    156  C        -15.9270  -39.1120  -17.1740 C.2   285  ARG285      0.2260
    157  O        -17.1170  -38.8230  -17.0400 O.2   285  ARG285     -0.2867
    158  CB       -14.5040  -37.1590  -16.8550 C.3   285  ARG285      0.0307
    159  CG       -13.2720  -36.4110  -17.2910 C.3   285  ARG285      0.0489
    160  CD       -13.3150  -35.0890  -16.5460 C.3   285  ARG285      0.2205
    161  NE       -12.3300  -34.1350  -17.0100 N.pl3 285  ARG285     -0.0865
    162  CZ       -12.0210  -33.0280  -16.3430 C.cat 285  ARG285      0.5346
    163  NH1      -12.6420  -32.7620  -15.2140 N.pl3 285  ARG285      0.1354
    164  NH2      -11.1020  -32.1870  -16.7980 N.pl3 285  ARG285      0.1354
    165  N        -13.2390  -37.5570  -13.0000 N.3   290  ASN290     -0.1240
    166  CA       -13.7950  -36.2270  -12.7640 C.3   290  ASN290      0.1653
    167  C        -13.4860  -35.7010  -11.3290 C.2   290  ASN290      0.2266
    168  O        -13.0500  -34.5570  -11.1590 O.2   290  ASN290     -0.2867
    169  CB       -15.3210  -36.2690  -12.9990 C.3   290  ASN290      0.1155
    170  CG       -15.9510  -34.8700  -13.0410 C.2   290  ASN290      0.2627
    171  OD1      -15.3660  -33.9320  -13.6190 O.2   290  ASN290     -0.2716
    172  ND2      -17.1280  -34.7240  -12.4230 N.am  290  ASN290     -0.0877
    173  N         -9.5020  -35.1440  -11.0100 N.3   293  TYR293     -0.1227
    174  CA        -9.1830  -33.8690  -11.6300 C.3   293  TYR293      0.1736
    175  C         -9.6510  -32.6620  -10.7710 C.2   293  TYR293      0.2595
    176  O         -8.8730  -31.7580  -10.5190 O.2   293  TYR293     -0.2718
    177  CB        -9.6650  -33.7330  -13.1090 C.3   293  TYR293      0.0548
    178  CG        -8.8940  -32.6060  -13.7460 C.ar  293  TYR293     -0.0200
    179  CD1       -7.6220  -32.8450  -14.3020 C.ar  293  TYR293     -0.0009
    180  CD2       -9.3460  -31.2920  -13.6820 C.ar  293  TYR293     -0.0009
    181  CE1       -6.8430  -31.8090  -14.8140 C.ar  293  TYR293      0.0417
    182  CE2       -8.5630  -30.2340  -14.2050 C.ar  293  TYR293      0.0417
    183  CZ        -7.3350  -30.5150  -14.7730 C.ar  293  TYR293      0.1957
    184  OH        -6.5220  -29.5240  -15.2420 O.3   293  TYR293     -0.2866
    185  N        -10.8990  -32.6550  -10.3230 N.am  294  LYS294     -0.1980
    186  CA       -11.4440  -31.4770   -9.6050 C.3   294  LYS294      0.1596
    187  C        -10.7790  -31.2030   -8.2510 C.2   294  LYS294      0.2287
    188  O        -10.4780  -30.0530   -7.9100 O.2   294  LYS294     -0.2864
    189  CB       -12.9760  -31.5960   -9.4400 C.3   294  LYS294      0.0298
    190  CG       -13.7630  -31.2920  -10.7460 C.3   294  LYS294      0.0038
    191  CD       -15.2730  -31.5790  -10.5180 C.3   294  LYS294      0.0206
    192  CE       -16.1910  -30.8290  -11.4720 C.3   294  LYS294      0.1093
    193  NZ       -15.8380  -31.1570  -12.9530 N.3   294  LYS294     -0.1314
    194  N        -16.2900  -28.9070   -7.2820 N.3   304  TYR304     -0.1241
    195  CA       -17.3140  -29.0670   -8.3020 C.3   304  TYR304      0.1605
    196  C        -18.0030  -27.7510   -8.6650 C.2   304  TYR304      0.2264
    197  O        -18.4140  -27.5680   -9.8110 O.2   304  TYR304     -0.2867
    198  CB       -18.3950  -30.0470   -7.8430 C.3   304  TYR304      0.0534
    199  CG       -18.0070  -31.4990   -7.9100 C.ar  304  TYR304     -0.0201
    200  CD1      -18.4380  -32.3270   -8.9710 C.ar  304  TYR304     -0.0009
    201  CD2      -17.2180  -32.0530   -6.9000 C.ar  304  TYR304     -0.0009
    202  CE1      -18.0830  -33.6840   -9.0020 C.ar  304  TYR304      0.0417
    203  CE2      -16.8480  -33.3840   -6.9270 C.ar  304  TYR304      0.0417
    204  CZ       -17.2720  -34.2030   -8.0000 C.ar  304  TYR304      0.1957
    205  OH       -16.8910  -35.5400   -8.0030 O.3   304  TYR304     -0.2866
    206  N        -13.6830  -21.2440  -10.5790 N.3   308  ARG308     -0.1245
    207  CA       -12.3600  -21.8190  -10.7080 C.3   308  ARG308      0.1563
    208  C        -11.5660  -21.0440  -11.7660 C.2   308  ARG308      0.2260
    209  O        -10.4630  -21.4460  -12.1120 O.2   308  ARG308     -0.2867
    210  CB       -12.4420  -23.3190  -11.0700 C.3   308  ARG308      0.0307
    211  CG       -13.1280  -24.2230  -10.0250 C.3   308  ARG308      0.0489
    212  CD       -13.5800  -25.5550  -10.6180 C.3   308  ARG308      0.2205
    213  NE       -14.8280  -25.4420  -11.3750 N.pl3 308  ARG308     -0.0865
    214  CZ       -15.3160  -26.3750  -12.1870 C.cat 308  ARG308      0.5346
    215  NH1      -14.6520  -27.5120  -12.4000 N.pl3 308  ARG308      0.1354
    216  NH2      -16.4610  -26.1670  -12.8240 N.pl3 308  ARG308      0.1354
@<TRIPOS>BOND
     1    52    53    1
     2     9    10    1
     3    53    54    1
     4    53    56    1
     5    55    54    2
     6    54    59   am
     7    58    56    1
     8    12    11    2
     9    10    11    1
    10    10    13    1
    11    56    57    1
    12    61    62    2
    13    61    60    1
    14    59    60    1
    15    39    38    2
    16    60    63    1
    17    14    13    1
    18    14    15    1
    19    38    37    1
    20    16    15    1
    21    16    17    2
    22    37    36    1
    23    37    40    1
    24    51    49    1
    25    19    17    1
    26    49    48    1
    27     4     3    2
    28    63    64    1
    29     3     2    1
    30    17    18    1
    31    44    45    1
    32    42    41    1
    33    64    66   ar
    34    64    65   ar
    35    40    41    1
    36    46    45    1
    37    46    47    2
    38     1     2    1
    39    69    66   ar
    40    69    71   ar
    41    48    45    1
    42    48    50    1
    43     2     5    1
    44    66    68   ar
    45    41    43    1
    46   131   130    2
    47    65    67   ar
    48    71    72   ar
    49    68    67   ar
    50    68    70   ar
    51   130   132   am
    52   130   129    1
    53    72    70   ar
    54     5     6    1
    55    30    29    2
    56   129   126    1
    57    23    22    2
    58   128   127    2
    59    29    28    1
    60   126   127    1
    61   126   125    1
    62     7     6    1
    63     7     8    1
    64    79    78    1
    65    22    21    1
    66    22    27   am
    67   127   133   am
    68   120   119    2
    69    80    78    1
    70    21    20    1
    71    21    24    1
    72   125   119   am
    73    28    27    1
    74    28    31    1
    75   123   122    1
    76   119   118    1
    77    78    77    1
    78   121   122    1
    79   121   118    1
    80   133   134    1
    81    26    24    1
    82   122   124    1
    83   118   117    1
    84    24    25    1
    85    97    99   ar
    86    97    95   ar
    87    99    98   ar
    88    31    32    1
    89   134   135    1
    90   134   137    1
    91   139   137    1
    92    77    74    1
    93   117   113   am
    94    32    33    1
    95    95    94   ar
    96   135   136    2
    97    98    96   ar
    98   137   138    1
    99    74    73    1
   100    74    75    1
   101   113   114    2
   102   113   112    1
   103    94    96   ar
   104    94    93    1
   105   111   112    1
   106   138   140    1
   107    33    34   ar
   108    33    35   ar
   109   112   115    1
   110    75    76    2
   111    93    90    1
   112   116   115    1
   113    90    89    1
   114    90    91    1
   115   154   155    1
   116    92    91    2
   117    91   100   am
   118   155   156    1
   119   155   158    1
   120   141   142    1
   121    81    82    1
   122   159   158    1
   123   159   160    1
   124   156   157    2
   125   100   101    1
   126   161   160    1
   127   161   162    2
   128   110   108    1
   129   164   162    1
   130   142   143    1
   131    83    82    1
   132    83    84    2
   133    82    85    1
   134   162   163    1
   135   101   102    1
   136   143   144    2
   137   103   102    2
   138   102   104   am
   139   104   105    1
   140   108   105    1
   141   108   109    1
   142   184   183    1
   143    85    86    1
   144   105   106    1
   145    87    86    2
   146   181   183   ar
   147   181   179   ar
   148    86    88   am
   149   183   182   ar
   150   179   178   ar
   151   182   180   ar
   152   178   180   ar
   153   178   177    1
   154   171   170    2
   155   106   107    2
   156   177   174    1
   157   170   169    1
   158   170   172   am
   159   165   166    1
   160   169   166    1
   161   193   192    1
   162   216   214    1
   163   166   167    1
   164   153   152    1
   165   215   214    1
   166   214   213    2
   167   152   151    1
   168   209   208    2
   169   208   207    1
   170   145   146    1
   171   174   173    1
   172   174   175    1
   173   192   191    1
   174   149   146    1
   175   149   150    1
   176   151   150    1
   177   213   212    1
   178   167   168    2
   179   210   207    1
   180   210   211    1
   181   175   176    2
   182   175   185   am
   183   146   147    1
   184   190   191    1
   185   190   189    1
   186   207   206    1
   187   212   211    1
   188   185   186    1
   189   147   148    2
   190   197   196    2
   191   186   189    1
   192   186   187    1
   193   202   200   ar
   194   202   204   ar
   195   200   199   ar
   196   196   195    1
   197   195   198    1
   198   195   194    1
   199   187   188    2
   200   205   204    1
   201   204   203   ar
   202   199   198    1
   203   199   201   ar
   204   203   201   ar
