@<TRIPOS>MOLECULE
tmp/3mx3A00.pdb
 100 99 0 0 0
SMALL
GASTEIGER

@<TRIPOS>ATOM
      1  N         45.6420   22.8910   17.7560 N.3    26  TYR26      -0.1241
      2  CA        44.6210   22.3200   16.8850 C.3    26  TYR26       0.1605
      3  C         45.0480   22.3210   15.4060 C.2    26  TYR26       0.2264
      4  O         44.8470   21.3370   14.6860 O.2    26  TYR26      -0.2867
      5  CB        43.2970   23.0590   17.0510 C.3    26  TYR26       0.0534
      6  CG        42.4720   22.7680   18.3160 C.ar   26  TYR26      -0.0201
      7  CD1       42.7910   21.7300   19.2200 C.ar   26  TYR26      -0.0009
      8  CD2       41.3270   23.5240   18.5730 C.ar   26  TYR26      -0.0009
      9  CE1       42.0020   21.4800   20.3630 C.ar   26  TYR26       0.0417
     10  CE2       40.5330   23.2800   19.6720 C.ar   26  TYR26       0.0417
     11  CZ        40.8680   22.2630   20.5700 C.ar   26  TYR26       0.1957
     12  OH        40.0520   22.0740   21.6410 O.3    26  TYR26      -0.2866
     13  N         39.4830   15.6090   17.9180 N.3    40  ASP40      -0.1225
     14  CA        38.8240   15.8370   16.6450 C.3    40  ASP40       0.1805
     15  C         39.7650   16.3180   15.5270 C.2    40  ASP40       0.2597
     16  O         39.6500   15.8370   14.3920 O.2    40  ASP40      -0.2718
     17  CB        37.6790   16.8690   16.7960 C.3    40  ASP40       0.1424
     18  CG        36.4220   16.2900   17.4800 C.2    40  ASP40       0.3668
     19  OD1       36.2040   15.0520   17.4760 O.co2  40  ASP40      -0.2456
     20  OD2       35.6550   17.1030   18.0370 O.co2  40  ASP40      -0.2456
     21  N         40.6380   17.2880   15.8190 N.am   41  TYR41      -0.1976
     22  CA        41.4380   17.8440   14.7640 C.3    41  TYR41       0.1639
     23  C         42.5600   16.8730   14.3550 C.2    41  TYR41       0.2290
     24  O         43.0640   16.9540   13.2370 O.2    41  TYR41      -0.2864
     25  CB        41.9620   19.2600   15.0640 C.3    41  TYR41       0.0560
     26  CG        40.9420   20.3500   14.7900 C.ar   41  TYR41      -0.0198
     27  CD1       40.4730   20.5960   13.4910 C.ar   41  TYR41      -0.0009
     28  CD2       40.4390   21.1270   15.8200 C.ar   41  TYR41      -0.0009
     29  CE1       39.5190   21.5680   13.2410 C.ar   41  TYR41       0.0417
     30  CE2       39.4960   22.1100   15.5730 C.ar   41  TYR41       0.0417
     31  CZ        39.0300   22.3270   14.2850 C.ar   41  TYR41       0.1957
     32  OH        38.0820   23.3230   14.0660 O.3    41  TYR41      -0.2866
     33  N         33.3530   20.8280   12.3700 N.3    47  GLY47      -0.1210
     34  CA        31.9950   21.2560   12.6210 C.3    47  GLY47       0.1956
     35  C         31.8500   22.6230   11.9910 C.2    47  GLY47       0.2612
     36  O         32.3090   22.8110   10.8870 O.2    47  GLY47      -0.2717
     37  N         31.2160   23.5600   12.7050 N.am   48  ARG48      -0.1965
     38  CA        30.9790   24.9190   12.2300 C.3    48  ARG48       0.1729
     39  C         32.0680   25.8610   12.6910 C.2    48  ARG48       0.2616
     40  O         32.6220   25.6940   13.7730 O.2    48  ARG48      -0.2715
     41  CB        29.6630   25.4430   12.7780 C.3    48  ARG48       0.0348
     42  CG        28.4470   24.5530   12.5090 C.3    48  ARG48       0.0492
     43  CD        27.2250   25.0790   13.2280 C.3    48  ARG48       0.2205
     44  NE        26.0960   24.2600   12.9000 N.pl3  48  ARG48      -0.0865
     45  CZ        25.2630   24.4670   11.8900 C.cat  48  ARG48       0.5346
     46  NH1       25.4020   25.5100   11.0750 N.pl3  48  ARG48       0.1354
     47  NH2       24.2660   23.6140   11.6990 N.pl3  48  ARG48       0.1354
     48  N         32.3710   26.8550   11.8670 N.am   49  SER49      -0.1950
     49  CA        33.1870   27.9820   12.2600 C.3    49  SER49       0.1924
     50  C         32.2980   29.1690   12.6230 C.2    49  SER49       0.2314
     51  O         31.0730   29.0090   12.8720 O.2    49  SER49      -0.2863
     52  CB        34.2030   28.3410   11.1640 C.3    49  SER49       0.2116
     53  OG        35.2360   29.1960   11.6900 O.3    49  SER49      -0.2180
     54  N         37.7750   29.7200    5.5080 N.3    90  GLU90      -0.1245
     55  CA        37.1990   28.6530    6.3630 C.3    90  GLU90       0.1567
     56  C         35.9350   28.0520    5.7410 C.2    90  GLU90       0.2260
     57  O         35.7180   26.8460    5.8080 O.2    90  GLU90      -0.2867
     58  CB        36.9010   29.1680    7.7740 C.3    90  GLU90       0.0388
     59  CG        38.1250   29.6070    8.4980 C.3    90  GLU90       0.1160
     60  CD        37.8830   30.5130    9.6920 C.2    90  GLU90       0.3649
     61  OE1       36.7170   30.8240   10.0910 O.co2  90  GLU90      -0.2457
     62  OE2       38.9170   30.8610   10.2770 O.co2  90  GLU90      -0.2457
     63  N         46.7190   27.7780   10.9810 N.3   386  TYR386     -0.1241
     64  CA        45.8980   27.1370    9.9060 C.3   386  TYR386      0.1605
     65  C         46.3710   27.2800    8.4620 C.2   386  TYR386      0.2264
     66  O         45.8260   26.6200    7.5790 O.2   386  TYR386     -0.2867
     67  CB        44.3550   27.4270   10.0160 C.3   386  TYR386      0.0534
     68  CG        43.7240   26.9040   11.3100 C.ar  386  TYR386     -0.0201
     69  CD1       43.2390   25.6110   11.3960 C.ar  386  TYR386     -0.0009
     70  CD2       43.6910   27.6950   12.4770 C.ar  386  TYR386     -0.0009
     71  CE1       42.7020   25.1160   12.5600 C.ar  386  TYR386      0.0417
     72  CE2       43.1710   27.1880   13.6750 C.ar  386  TYR386      0.0417
     73  CZ        42.6960   25.8970   13.6930 C.ar  386  TYR386      0.1957
     74  OH        42.1650   25.4030   14.8420 O.3   386  TYR386     -0.2866
     75  N         45.7730   25.2210    4.9460 N.3   390  TYR390     -0.1241
     76  CA        45.2600   25.8530    3.7070 C.3   390  TYR390      0.1605
     77  C         46.1300   25.5510    2.4850 C.2   390  TYR390      0.2264
     78  O         45.6210   25.3040    1.3930 O.2   390  TYR390     -0.2867
     79  CB        45.0820   27.3450    3.9070 C.3   390  TYR390      0.0534
     80  CG        44.0190   27.6750    4.9390 C.ar  390  TYR390     -0.0201
     81  CD1       42.8100   26.9600    4.9850 C.ar  390  TYR390     -0.0009
     82  CD2       44.2090   28.7200    5.8540 C.ar  390  TYR390     -0.0009
     83  CE1       41.8370   27.2870    5.9220 C.ar  390  TYR390      0.0417
     84  CE2       43.2590   29.0290    6.7950 C.ar  390  TYR390      0.0417
     85  CZ        42.0690   28.3370    6.8060 C.ar  390  TYR390      0.1957
     86  OH        41.1140   28.6220    7.7540 O.3   390  TYR390     -0.2866
     87  N         34.9300   24.3040    6.8450 N.3   417  TRP417     -0.1241
     88  CA        33.9930   24.2870    7.9630 C.3   417  TRP417      0.1605
     89  C         32.5990   24.7080    7.5300 C.2   417  TRP417      0.2264
     90  O         32.4070   25.3970    6.5180 O.2   417  TRP417     -0.2867
     91  CB        34.4530   25.2440    9.0870 C.3   417  TRP417      0.0550
     92  CG        35.6580   24.7280    9.8430 C.ar  417  TRP417      0.0003
     93  CD1       35.6680   23.9590   10.9760 C.ar  417  TRP417      0.0946
     94  CD2       37.0270   24.9700    9.5060 C.ar  417  TRP417      0.0152
     95  NE1       36.9710   23.7140   11.3690 N.ar  417  TRP417     -0.2442
     96  CE2       37.8190   24.3090   10.4660 C.ar  417  TRP417      0.0810
     97  CE3       37.6570   25.6950    8.4790 C.ar  417  TRP417      0.0012
     98  CZ2       39.2290   24.3650   10.4440 C.ar  417  TRP417      0.0191
     99  CZ3       39.0300   25.7520    8.4460 C.ar  417  TRP417      0.0001
    100  CH2       39.8100   25.0860    9.4300 C.ar  417  TRP417      0.0015
@<TRIPOS>BOND
     1    78    77    2
     2    77    76    1
     3    76    79    1
     4    76    75    1
     5    79    80    1
     6    80    81   ar
     7    80    82   ar
     8    81    83   ar
     9    54    55    1
    10    56    57    2
    11    56    55    1
    12    82    84   ar
    13    83    85   ar
    14    55    58    1
    15    90    89    2
    16    84    85   ar
    17    85    86    1
    18    87    88    1
    19    89    88    1
    20    66    65    2
    21    58    59    1
    22    88    91    1
    23    99    97   ar
    24    99   100   ar
    25    65    64    1
    26    97    94   ar
    27    59    60    1
    28    91    92    1
    29   100    98   ar
    30    94    92   ar
    31    94    96   ar
    32    60    61   ar
    33    60    62   ar
    34    92    93   ar
    35    64    67    1
    36    64    63    1
    37    67    68    1
    38    98    96   ar
    39    96    95   ar
    40    36    35    2
    41    93    95   ar
    42    46    45    1
    43    52    53    1
    44    52    49    1
    45    68    69   ar
    46    68    70   ar
    47    69    71   ar
    48    47    45    1
    49    48    49    1
    50    48    39   am
    51    45    44    2
    52    35    34    1
    53    35    37   am
    54    38    39    1
    55    38    37    1
    56    38    41    1
    57    49    50    1
    58    33    34    1
    59    70    72   ar
    60    42    41    1
    61    42    43    1
    62    71    73   ar
    63    50    51    2
    64    39    40    2
    65    44    43    1
    66    24    23    2
    67    29    27   ar
    68    29    31   ar
    69    27    26   ar
    70    72    73   ar
    71    73    74    1
    72    32    31    1
    73    31    30   ar
    74    23    22    1
    75    16    15    2
    76     4     3    2
    77    22    25    1
    78    22    21    1
    79    26    25    1
    80    26    28   ar
    81     3     2    1
    82    15    21   am
    83    15    14    1
    84    30    28   ar
    85    14    17    1
    86    14    13    1
    87    17    18    1
    88     2     5    1
    89     2     1    1
    90     5     6    1
    91    19    18   ar
    92    18    20   ar
    93     6     8   ar
    94     6     7   ar
    95     8    10   ar
    96     7     9   ar
    97    10    11   ar
    98     9    11   ar
    99    11    12    1
