@<TRIPOS>MOLECULE
tmp/3mx6B00.pdb
 147 142 0 0 0
SMALL
GASTEIGER

@<TRIPOS>ATOM
      1  N         11.3180   -7.1540   17.3030 N.3    59  PRO59      -0.2116
      2  CA        10.9640   -5.9600   16.5370 C.3    59  PRO59       0.1372
      3  C         10.8830   -4.6880   17.3920 C.2    59  PRO59       0.2244
      4  O         11.0140   -3.5970   16.8610 O.2    59  PRO59      -0.2868
      5  CB         9.5580   -6.3000   16.0190 C.3    59  PRO59       0.0268
      6  CG         9.5830   -7.7960   15.8770 C.3    59  PRO59       0.0207
      7  CD        10.3050   -8.2160   17.1400 C.3    59  PRO59       0.0892
      8  N         13.4630   -2.0330   17.2370 N.3    62  TYR62      -0.1241
      9  CA        14.4880   -2.3870   16.2500 C.3    62  TYR62       0.1605
     10  C         14.5350   -1.3360   15.1780 C.2    62  TYR62       0.2264
     11  O         13.5610   -1.1390   14.4700 O.2    62  TYR62      -0.2867
     12  CB        14.1860   -3.7470   15.6240 C.3    62  TYR62       0.0534
     13  CG        15.3020   -4.2100   14.7140 C.ar   62  TYR62      -0.0201
     14  CD1       16.5240   -4.6220   15.2390 C.ar   62  TYR62      -0.0009
     15  CD2       15.1230   -4.2230   13.3360 C.ar   62  TYR62      -0.0009
     16  CE1       17.5580   -5.0400   14.4080 C.ar   62  TYR62       0.0417
     17  CE2       16.1580   -4.6540   12.4830 C.ar   62  TYR62       0.0417
     18  CZ        17.3580   -5.0520   13.0360 C.ar   62  TYR62       0.1957
     19  OH        18.3560   -5.4940   12.2050 O.3    62  TYR62      -0.2866
     20  N         11.4490    0.7070   15.1780 N.3    65  PHE65      -0.1241
     21  CA        10.1020    0.1190   14.9540 C.3    65  PHE65       0.1605
     22  C          9.2590    0.1800   16.2120 C.2    65  PHE65       0.2264
     23  O          9.7380   -0.1180   17.3000 O.2    65  PHE65      -0.2867
     24  CB        10.2220   -1.3220   14.4540 C.3    65  PHE65       0.0534
     25  CG         8.9180   -1.9330   13.9830 C.ar   65  PHE65      -0.0203
     26  CD1        8.2080   -2.8090   14.8160 C.ar   65  PHE65      -0.0042
     27  CD2        8.4450   -1.7340   12.6910 C.ar   65  PHE65      -0.0042
     28  CE1        7.0140   -3.3840   14.4120 C.ar   65  PHE65      -0.0003
     29  CE2        7.2490   -2.3350   12.2670 C.ar   65  PHE65      -0.0003
     30  CZ         6.5510   -3.1640   13.1050 C.ar   65  PHE65      -0.0000
     31  N          5.1000   -7.5050   13.4390 N.3    70  CYS70      -0.1235
     32  CA         4.6040   -6.8540   12.2040 C.3    70  CYS70       0.1677
     33  C          3.3090   -7.5200   11.7890 C.2    70  CYS70       0.2270
     34  O          3.1730   -8.7390   11.9010 O.2    70  CYS70      -0.2867
     35  CB         5.5680   -6.9590   11.0130 C.3    70  CYS70       0.0956
     36  SG         7.2570   -6.3720   11.3150 S.3    70  CYS70      -0.0801
     37  N          5.0910   -6.2140    3.4610 N.3    78  CYS78      -0.1221
     38  CA         5.7710   -6.5850    4.7070 C.3    78  CYS78       0.1808
     39  C          5.9420   -5.3850    5.6210 C.2    78  CYS78       0.2601
     40  O          5.7830   -4.2430    5.1980 O.2    78  CYS78      -0.2717
     41  CB         7.1720   -7.1890    4.4200 C.3    78  CYS78       0.0970
     42  SG         8.2780   -6.0990    3.4830 S.3    78  CYS78      -0.0800
     43  N          6.2920   -5.6930    6.8740 N.am   79  HIS79      -0.1975
     44  CA         6.6410   -4.7130    7.9010 C.3    79  HIS79       0.1656
     45  C          5.4940   -3.7810    8.2420 C.2    79  HIS79       0.2291
     46  O          5.7090   -2.6560    8.6990 O.2    79  HIS79      -0.2864
     47  CB         7.9060   -3.9240    7.5420 C.3    79  HIS79       0.0771
     48  CG         9.0640   -4.7790    7.1220 C.ar   79  HIS79       0.0820
     49  ND1       10.1290   -4.2740    6.4130 N.ar   79  HIS79      -0.2267
     50  CD2        9.3200   -6.0990    7.2980 C.ar   79  HIS79       0.1154
     51  CE1       10.9930   -5.2450    6.1620 C.ar   79  HIS79       0.1986
     52  NE2       10.5230   -6.3640    6.6870 N.ar   79  HIS79      -0.2212
     53  N          3.8870  -11.6100   11.7330 N.3    96  ASP96      -0.1239
     54  CA         5.3010  -11.9440   11.6560 C.3    96  ASP96       0.1674
     55  C          5.8920  -11.6980   13.0390 C.2    96  ASP96       0.2266
     56  O          5.8860  -10.5510   13.5340 O.2    96  ASP96      -0.2867
     57  CB         5.9920  -11.0430   10.5820 C.3    96  ASP96       0.1410
     58  CG         7.4930  -11.3980   10.3340 C.2    96  ASP96       0.3668
     59  OD1        8.0220  -12.2940   10.9460 O.co2  96  ASP96      -0.2456
     60  OD2        8.1250  -10.7710    9.4720 O.co2  96  ASP96      -0.2456
     61  N          9.2230  -12.2870   15.7840 N.3    98  THR98      -0.1218
     62  CA        10.5860  -12.7050   16.0810 C.3    98  THR98       0.1862
     63  C         10.8110  -12.5900   17.5850 C.2    98  THR98       0.2287
     64  O         10.5500  -11.5310   18.2020 O.2    98  THR98      -0.2866
     65  CB        11.6620  -11.9220   15.3050 C.3    98  THR98       0.1770
     66  OG1       11.4690  -12.0720   13.8850 O.3    98  THR98      -0.2211
     67  CG2       13.1000  -12.4160   15.6750 C.3    98  THR98       0.0375
     68  N         12.5170  -16.4880   14.0020 N.3   107  ASP107     -0.1239
     69  CA        11.8010  -15.5410   13.1200 C.3   107  ASP107      0.1674
     70  C         10.8020  -16.3180   12.2600 C.2   107  ASP107      0.2266
     71  O         11.1920  -17.1980   11.4720 O.2   107  ASP107     -0.2867
     72  CB        12.8570  -14.8120   12.2670 C.3   107  ASP107      0.1410
     73  CG        12.3230  -13.6610   11.4860 C.2   107  ASP107      0.3668
     74  OD1       11.0780  -13.3990   11.4540 O.co2 107  ASP107     -0.2456
     75  OD2       13.1610  -12.9560   10.8670 O.co2 107  ASP107     -0.2456
     76  N         17.3590  -13.6890    5.3170 N.3   170  HIS170     -0.1241
     77  CA        18.6240  -13.2450    5.9320 C.3   170  HIS170      0.1621
     78  C         19.2080  -14.2970    6.8490 C.2   170  HIS170      0.2264
     79  O         18.4810  -15.0980    7.4700 O.2   170  HIS170     -0.2867
     80  CB        18.3730  -11.9530    6.7730 C.3   170  HIS170      0.0745
     81  CG        17.1660  -12.0420    7.6730 C.ar  170  HIS170      0.0817
     82  ND1       17.2700  -12.4220    8.9900 N.ar  170  HIS170     -0.2268
     83  CD2       15.8330  -11.9010    7.4310 C.ar  170  HIS170      0.1154
     84  CE1       16.0670  -12.4570    9.5410 C.ar  170  HIS170      0.1986
     85  NE2       15.1730  -12.1770    8.6180 N.ar  170  HIS170     -0.2212
     86  N         19.8370  -10.4930   14.5510 N.3   176  PHE176     -0.1227
     87  CA        18.5330  -10.5310   13.8520 C.3   176  PHE176      0.1736
     88  C         18.7560  -10.6830   12.3410 C.2   176  PHE176      0.2595
     89  O         18.2930  -11.6680   11.7290 O.2   176  PHE176     -0.2718
     90  CB        17.7860   -9.2380   14.1660 C.3   176  PHE176      0.0547
     91  CG        16.2710   -9.2610   13.8990 C.ar  176  PHE176     -0.0202
     92  CD1       15.6460  -10.2460   13.1160 C.ar  176  PHE176     -0.0042
     93  CD2       15.4950   -8.2370   14.4410 C.ar  176  PHE176     -0.0042
     94  CE1       14.2650  -10.1940   12.8810 C.ar  176  PHE176     -0.0003
     95  CE2       14.1140   -8.1600   14.2180 C.ar  176  PHE176     -0.0003
     96  CZ        13.4910   -9.1470   13.4470 C.ar  176  PHE176     -0.0000
     97  N         19.4750   -9.7270   11.7400 N.am  177  HIS177     -0.1975
     98  CA        19.6840   -9.6940   10.2920 C.3   177  HIS177      0.1656
     99  C         21.1650   -9.7950    9.9780 C.2   177  HIS177      0.2291
    100  O         21.8630   -8.7990   10.0040 O.2   177  HIS177     -0.2864
    101  CB        19.0960   -8.4290    9.7000 C.3   177  HIS177      0.0771
    102  CG        17.6110   -8.3380    9.8890 C.ar  177  HIS177      0.0820
    103  ND1       17.0230   -7.5240   10.8380 N.ar  177  HIS177     -0.2267
    104  CD2       16.6060   -9.0350    9.3150 C.ar  177  HIS177      0.1154
    105  CE1       15.7070   -7.7010   10.8040 C.ar  177  HIS177      0.1986
    106  NE2       15.4290   -8.6020    9.8780 N.ar  177  HIS177     -0.2212
    107  N         11.7180  -16.4240    3.3990 N.3   203  GLU203     -0.1245
    108  CA        10.5530  -15.5560    3.6520 C.3   203  GLU203      0.1567
    109  C         10.0070  -14.8800    2.3910 C.2   203  GLU203      0.2260
    110  O          9.9420  -13.6390    2.3070 O.2   203  GLU203     -0.2867
    111  CB        10.8390  -14.4960    4.7420 C.3   203  GLU203      0.0388
    112  CG        12.1520  -13.6750    4.5980 C.3   203  GLU203      0.1160
    113  CD        12.3010  -12.6020    5.6830 C.2   203  GLU203      0.3649
    114  OE1       13.1740  -12.7510    6.5460 O.co2 203  GLU203     -0.2457
    115  OE2       11.5700  -11.5760    5.6680 O.co2 203  GLU203     -0.2457
    116  N          8.3950    2.3720    7.2480 N.3   221  TRP221     -0.1241
    117  CA         8.4050    0.9150    7.3940 C.3   221  TRP221      0.1605
    118  C          7.4860    0.1640    6.4250 C.2   221  TRP221      0.2264
    119  O          7.8840   -0.8570    5.8710 O.2   221  TRP221     -0.2867
    120  CB         8.0240    0.4950    8.8330 C.3   221  TRP221      0.0550
    121  CG         9.1370    0.6590    9.8050 C.ar  221  TRP221      0.0003
    122  CD1        9.2870    1.6690   10.7200 C.ar  221  TRP221      0.0946
    123  CD2       10.2600   -0.2040    9.9680 C.ar  221  TRP221      0.0152
    124  NE1       10.4500    1.4910   11.4270 N.ar  221  TRP221     -0.2442
    125  CE2       11.0680    0.3520   10.9890 C.ar  221  TRP221      0.0810
    126  CE3       10.6640   -1.4080    9.3570 C.ar  221  TRP221      0.0012
    127  CZ2       12.2590   -0.2420   11.4220 C.ar  221  TRP221      0.0191
    128  CZ3       11.8700   -1.9990    9.7840 C.ar  221  TRP221      0.0001
    129  CH2       12.6480   -1.4060   10.8080 C.ar  221  TRP221      0.0015
    130  N          2.8930  -13.6650    2.3550 N.3   233  GLN233     -0.1245
    131  CA         4.2370  -14.0230    2.8040 C.3   233  GLN233      0.1566
    132  C          4.1150  -15.1490    3.8400 C.2   233  GLN233      0.2260
    133  O          3.1860  -15.1420    4.6120 O.2   233  GLN233     -0.2867
    134  CB         4.9000  -12.8130    3.4720 C.3   233  GLN233      0.0367
    135  CG         6.3510  -13.1300    3.9690 C.3   233  GLN233      0.0905
    136  CD         7.0340  -11.8900    4.5680 C.2   233  GLN233      0.2608
    137  OE1        6.3890  -11.0930    5.2760 O.2   233  GLN233     -0.2717
    138  NE2        8.3520  -11.7640    4.3470 N.am  233  GLN233     -0.0878
    139  N          7.1780  -17.2520    6.4730 N.3   235  GLU235     -0.1245
    140  CA         8.6100  -17.2730    6.8070 C.3   235  GLU235      0.1567
    141  C          8.8880  -18.3950    7.7790 C.2   235  GLU235      0.2260
    142  O          8.1040  -18.6280    8.7110 O.2   235  GLU235     -0.2867
    143  CB         8.9660  -15.9670    7.5200 C.3   235  GLU235      0.0388
    144  CG        10.4250  -15.9120    8.0490 C.3   235  GLU235      0.1160
    145  CD        10.7780  -14.5080    8.4950 C.2   235  GLU235      0.3649
    146  OE1        9.8390  -13.6990    8.7620 O.co2 235  GLU235     -0.2457
    147  OE2       11.9970  -14.1930    8.5580 O.co2 235  GLU235     -0.2457
@<TRIPOS>BOND
     1   110   109    2
     2   130   131    1
     3   109   108    1
     4   131   134    1
     5   131   132    1
     6   107   108    1
     7    37    38    1
     8   134   135    1
     9    42    41    1
    10   108   111    1
    11   132   133    2
    12   135   136    1
    13   138   136   am
    14    41    38    1
    15   136   137    2
    16   112   111    1
    17   112   113    1
    18    38    39    1
    19    40    39    2
    20    76    77    1
    21    39    43   am
    22   115   113   ar
    23   113   114   ar
    24   119   118    2
    25    77    80    1
    26    77    78    1
    27    51    49   ar
    28    51    52   ar
    29    49    48   ar
    30   118   117    1
    31   139   140    1
    32    52    50   ar
    33    80    81    1
    34   140   143    1
    35   140   141    1
    36    78    79    2
    37    43    44    1
    38    48    50   ar
    39    48    47    1
    40   116   117    1
    41   117   120    1
    42    83    81   ar
    43    83    85   ar
    44   143   144    1
    45    47    44    1
    46    81    82   ar
    47   141   142    2
    48    44    45    1
    49   144   145    1
    50    45    46    2
    51   145   147   ar
    52   145   146   ar
    53    85    84   ar
    54   120   121    1
    55    82    84   ar
    56   104   106   ar
    57   104   102   ar
    58   126   128   ar
    59   126   123   ar
    60    60    58   ar
    61   101   102    1
    62   101    98    1
    63   128   129   ar
    64   121   123   ar
    65   121   122   ar
    66   106   105   ar
    67   102   103   ar
    68   123   125   ar
    69    99   100    2
    70    99    98    1
    71    98    97    1
    72    58    57    1
    73    58    59   ar
    74    57    54    1
    75   122   124   ar
    76   105   103   ar
    77   129   127   ar
    78    75    73   ar
    79   125   127   ar
    80   125   124   ar
    81    35    36    1
    82    35    32    1
    83    74    73   ar
    84    71    70    2
    85    73    72    1
    86    54    53    1
    87    54    55    1
    88    89    88    2
    89    97    88   am
    90    33    34    2
    91    33    32    1
    92    32    31    1
    93    19    18    1
    94    70    69    1
    95    29    27   ar
    96    29    30   ar
    97    72    69    1
    98    88    87    1
    99    17    18   ar
   100    17    15   ar
   101    27    25   ar
   102    94    92   ar
   103    94    96   ar
   104    18    16   ar
   105    55    56    2
   106    30    28   ar
   107    92    91   ar
   108    69    68    1
   109    15    13   ar
   110    96    95   ar
   111    87    90    1
   112    87    86    1
   113    66    65    1
   114    91    90    1
   115    91    93   ar
   116    25    24    1
   117    25    26   ar
   118    95    93   ar
   119    16    14   ar
   120    28    26   ar
   121    24    21    1
   122    11    10    2
   123    13    14   ar
   124    13    12    1
   125    21    20    1
   126    21    22    1
   127    10     9    1
   128    65    67    1
   129    65    62    1
   130    12     9    1
   131    61    62    1
   132     6     5    1
   133     6     7    1
   134     5     2    1
   135    62    63    1
   136    22    23    2
   137     9     8    1
   138     2     1    1
   139     2     3    1
   140     4     3    2
   141     7     1    1
   142    63    64    2
