@<TRIPOS>MOLECULE
tmp/3mxeA00.pdb
 121 113 0 0 0
SMALL
GASTEIGER

@<TRIPOS>ATOM
      1  N         20.8820   34.1380   27.9630 N.3     8  ARG8       -0.1245
      2  CA        21.6040   33.5030   26.8630 C.3     8  ARG8        0.1563
      3  C         22.7110   32.6250   27.4210 C.2     8  ARG8        0.2260
      4  O         23.4990   33.0840   28.2630 O.2     8  ARG8       -0.2867
      5  CB        22.2470   34.5330   25.9340 C.3     8  ARG8        0.0307
      6  CG        21.2780   35.2600   25.0420 C.3     8  ARG8        0.0489
      7  CD        21.9270   36.4690   24.4010 C.3     8  ARG8        0.2205
      8  NE        21.0160   37.1300   23.4660 N.pl3   8  ARG8       -0.0865
      9  CZ        21.1550   38.3750   23.0160 C.cat   8  ARG8        0.5346
     10  NH1       22.1870   39.1380   23.3890 N.pl3   8  ARG8        0.1354
     11  NH2       20.2530   38.8650   22.1810 N.pl3   8  ARG8        0.1354
     12  N         27.9530   31.3770   22.0590 N.3    23  LEU23      -0.1245
     13  CA        26.6230   30.9830   22.4450 C.3    23  LEU23       0.1561
     14  C         26.4490   29.5020   22.1820 C.2    23  LEU23       0.2260
     15  O         26.6780   29.0420   21.0640 O.2    23  LEU23      -0.2867
     16  CB        25.6200   31.7550   21.5990 C.3    23  LEU23       0.0270
     17  CG        24.1370   31.5220   21.8420 C.3    23  LEU23       0.0019
     18  CD1       23.7450   32.0880   23.1930 C.3    23  LEU23       0.0001
     19  CD2       23.3540   32.1650   20.6720 C.3    23  LEU23       0.0001
     20  N         24.4300   26.6380   21.1670 N.3    25  ASP25      -0.1239
     21  CA        23.3430   26.7710   20.2110 C.3    25  ASP25       0.1674
     22  C         22.8880   25.4040   19.7040 C.2    25  ASP25       0.2266
     23  O         23.3630   24.9190   18.6930 O.2    25  ASP25      -0.2867
     24  CB        23.8320   27.6500   19.0660 C.3    25  ASP25       0.1410
     25  CG        22.7210   28.0630   18.1080 C.2    25  ASP25       0.3668
     26  OD1       21.5850   27.5220   18.1780 O.co2  25  ASP25      -0.2456
     27  OD2       23.0030   28.9490   17.2880 O.co2  25  ASP25      -0.2456
     28  N         20.1890   24.7220   18.2160 N.3    27  GLY27      -0.1210
     29  CA        19.5920   24.8640   16.8680 C.3    27  GLY27       0.1956
     30  C         20.5780   24.9940   15.7100 C.2    27  GLY27       0.2612
     31  O         20.1700   25.2300   14.5640 O.2    27  GLY27      -0.2717
     32  N         21.8710   24.8520   16.0050 N.am   28  ALA28      -0.1965
     33  CA        22.9430   24.9320   15.0090 C.3    28  ALA28       0.1728
     34  C         23.6650   23.6050   14.8470 C.2    28  ALA28       0.2616
     35  O         24.2150   23.0860   15.7960 O.2    28  ALA28      -0.2715
     36  CB        23.9500   26.0120   15.3910 C.3    28  ALA28       0.0334
     37  N         23.6770   23.0890   13.6150 N.am   29  ASP29      -0.1957
     38  CA        24.3910   21.8710   13.2620 C.3    29  ASP29       0.1840
     39  C         25.8930   22.0510   13.4680 C.2    29  ASP29       0.2622
     40  O         26.5890   21.1380   13.9210 O.2    29  ASP29      -0.2715
     41  CB        24.2030   21.5540   11.7750 C.3    29  ASP29       0.1450
     42  CG        22.7760   21.1880   11.4010 C.2    29  ASP29       0.3671
     43  OD1       21.8910   21.0870   12.2830 O.co2  29  ASP29      -0.2456
     44  OD2       22.5540   20.9960   10.1860 O.co2  29  ASP29      -0.2456
     45  N         26.3780   23.2290   13.0780 N.am   30  ASP30      -0.1971
     46  CA        27.8010   23.5080   12.9610 C.3    30  ASP30       0.1709
     47  C         28.2130   24.6820   13.8380 C.2    30  ASP30       0.2293
     48  O         27.3870   25.4990   14.2720 O.2    30  ASP30      -0.2864
     49  CB        28.1370   23.8520   11.5120 C.3    30  ASP30       0.1436
     50  CG        27.8080   22.7370   10.5530 C.2    30  ASP30       0.3671
     51  OD1       27.8550   21.5670   10.9740 O.co2  30  ASP30      -0.2456
     52  OD2       27.5440   23.0480    9.3680 O.co2  30  ASP30      -0.2456
     53  N         30.0470   28.1800   14.2540 N.3    32  VAL32      -0.1245
     54  CA        30.2850   29.3270   13.3790 C.3    32  VAL32       0.1561
     55  C         30.7980   30.5150   14.1980 C.2    32  VAL32       0.2260
     56  O         30.1110   31.0050   15.0950 O.2    32  VAL32      -0.2867
     57  CB        29.0210   29.7320   12.5850 C.3    32  VAL32       0.0252
     58  CG1       29.4230   30.6870   11.4440 C.3    32  VAL32       0.0019
     59  CG2       28.3100   28.5060   11.9990 C.3    32  VAL32       0.0019
     60  N         32.9610   27.6970    1.8260 N.3    45  LYS45      -0.1245
     61  CA        31.6890   27.0100    2.0120 C.3    45  LYS45       0.1561
     62  C         30.5850   28.0620    2.0530 C.2    45  LYS45       0.2260
     63  O         30.8500   29.2280    2.3590 O.2    45  LYS45      -0.2867
     64  CB        31.7450   26.2140    3.3150 C.3    45  LYS45       0.0271
     65  CG        30.5380   25.3510    3.5900 C.3    45  LYS45       0.0035
     66  CD        30.7660   24.4430    4.8010 C.3    45  LYS45       0.0206
     67  CE        29.8260   23.2280    4.8170 C.3    45  LYS45       0.1093
     68  NZ        28.5380   23.5590    5.4930 N.3    45  LYS45      -0.1314
     69  N         26.6580   28.6570    3.7790 N.3    47  ILE47      -0.1231
     70  CA        25.6600   28.1340    4.7120 C.3    47  ILE47       0.1692
     71  C         24.4680   29.0670    4.7670 C.2    47  ILE47       0.2593
     72  O         24.6070   30.2730    4.5360 O.2    47  ILE47      -0.2718
     73  CB        26.2460   27.8780    6.1300 C.3    47  ILE47       0.0266
     74  CG1       26.6790   29.1800    6.8270 C.3    47  ILE47       0.0019
     75  CG2       27.4220   26.9080    6.0370 C.3    47  ILE47       0.0020
     76  CD1       27.1500   28.9960    8.2810 C.3    47  ILE47       0.0001
     77  N         23.3070   28.4860    5.0700 N.am   48  GLY48      -0.1942
     78  CA        22.0520   29.2100    5.1280 C.3    48  GLY48       0.2014
     79  C         21.4910   29.2510    6.5330 C.2    48  GLY48       0.2639
     80  O         21.4330   28.2290    7.2090 O.2    48  GLY48      -0.2714
     81  N         21.1020   30.4410    6.9710 N.am   49  GLY49      -0.1939
     82  CA        20.4670   30.6210    8.2750 C.3    49  GLY49       0.2014
     83  C         19.1130   31.2610    8.0640 C.2    49  GLY49       0.2638
     84  O         18.5650   31.2200    6.9520 O.2    49  GLY49      -0.2714
     85  N         18.5890   31.8840    9.1080 N.am   50  ILE50      -0.1977
     86  CA        17.2300   32.3990    9.0700 C.3    50  ILE50       0.1596
     87  C         17.0350   33.5250    8.0620 C.2    50  ILE50       0.2287
     88  O         15.9260   33.6940    7.5280 O.2    50  ILE50      -0.2864
     89  CB        16.7380   32.8600   10.4640 C.3    50  ILE50       0.0276
     90  CG1       15.2130   32.7660   10.5250 C.3    50  ILE50       0.0022
     91  CG2       17.2180   34.2870   10.7910 C.3    50  ILE50       0.0022
     92  CD1       14.6400   32.9490   11.9300 C.3    50  ILE50       0.0001
     93  N         28.6940   35.5400   10.8230 N.3    80  THR80      -0.1204
     94  CA        27.6520   35.2240   11.8000 C.3    80  THR80       0.1979
     95  C         27.4210   36.4220   12.7440 C.2    80  THR80       0.2460
     96  O         28.3720   37.1280   13.1050 O.2    80  THR80      -0.2732
     97  CB        28.0400   33.9440   12.6070 C.3    80  THR80       0.1783
     98  OG1       27.0140   33.6210   13.5480 O.3    80  THR80      -0.2211
     99  CG2       29.3780   34.1060   13.3270 C.3    80  THR80       0.0376
    100  N         26.1640   36.6550   13.1580 N.am   81  PRO81      -0.2717
    101  CA        25.9010   37.7610   14.0840 C.3    81  PRO81       0.1535
    102  C         26.5190   37.5920   15.4670 C.2    81  PRO81       0.2598
    103  O         26.7270   38.5770   16.1590 O.2    81  PRO81      -0.2715
    104  CB        24.3650   37.7960   14.1740 C.3    81  PRO81       0.0310
    105  CG        23.9270   36.4280   13.8060 C.3    81  PRO81       0.0237
    106  CD        24.9170   35.9470   12.7860 C.3    81  PRO81       0.0939
    107  N         26.8110   36.3410   15.8270 N.am   82  VAL82      -0.1978
    108  CA        27.3060   35.9570   17.1410 C.3    82  VAL82       0.1596
    109  C         28.1720   34.7020   16.9880 C.2    82  VAL82       0.2287
    110  O         27.8960   33.8740   16.1210 O.2    82  VAL82      -0.2864
    111  CB        26.1240   35.6030   18.0700 C.3    82  VAL82       0.0276
    112  CG1       26.6170   35.2570   19.4680 C.3    82  VAL82       0.0022
    113  CG2       25.1120   36.7470   18.1120 C.3    82  VAL82       0.0022
    114  N         28.7910   31.1000   17.5970 N.3    84  ILE84      -0.1245
    115  CA        27.8860   30.0060   17.9950 C.3    84  ILE84       0.1561
    116  C         28.5880   28.6520   18.0470 C.2    84  ILE84       0.2260
    117  O         29.3290   28.2760   17.1410 O.2    84  ILE84      -0.2867
    118  CB        26.5740   29.9040   17.1320 C.3    84  ILE84       0.0252
    119  CG1       26.8490   29.5150   15.6650 C.3    84  ILE84       0.0019
    120  CG2       25.7530   31.2060   17.2600 C.3    84  ILE84       0.0019
    121  CD1       25.5810   29.4220   14.7660 C.3    84  ILE84       0.0001
@<TRIPOS>BOND
     1    60    61    1
     2    61    62    1
     3    61    64    1
     4    62    63    2
     5    64    65    1
     6    65    66    1
     7    69    70    1
     8    72    71    2
     9    70    71    1
    10    70    73    1
    11    71    77   am
    12    66    67    1
    13    67    68    1
    14    77    78    1
    15    78    79    1
    16    75    73    1
    17    73    74    1
    18    79    81   am
    19    79    80    2
    20    74    76    1
    21    84    83    2
    22    81    82    1
    23    88    87    2
    24    87    86    1
    25    83    82    1
    26    83    85   am
    27    86    85    1
    28    86    89    1
    29    52    50   ar
    30    44    42   ar
    31    89    90    1
    32    89    91    1
    33    90    92    1
    34    50    51   ar
    35    50    49    1
    36    93    94    1
    37    42    41    1
    38    42    43   ar
    39    58    57    1
    40    49    46    1
    41    41    38    1
    42    94    97    1
    43    94    95    1
    44    59    57    1
    45    57    54    1
    46    97    99    1
    47    97    98    1
    48    95    96    2
    49    95   100   am
    50   106   100    1
    51   106   105    1
    52    46    45    1
    53    46    47    1
    54    45    39   am
    55   100   101    1
    56    38    39    1
    57    38    37    1
    58    54    55    1
    59    54    53    1
    60    39    40    2
    61    37    34   am
    62   105   104    1
    63    47    48    2
    64   101   104    1
    65   101   102    1
    66    55    56    2
    67    31    30    2
    68   121   119    1
    69    34    33    1
    70    34    35    2
    71    33    36    1
    72    33    32    1
    73   102   107   am
    74   102   103    2
    75   119   118    1
    76    30    32   am
    77    30    29    1
    78   107   108    1
    79   110   109    2
    80    29    28    1
    81   109   108    1
    82   118   120    1
    83   118   115    1
    84   108   111    1
    85   117   116    2
    86    27    25   ar
    87   114   115    1
    88   115   116    1
    89   111   113    1
    90   111   112    1
    91    25    26   ar
    92    25    24    1
    93    23    22    2
    94    24    21    1
    95    22    21    1
    96    21    20    1
    97    19    17    1
    98    15    14    2
    99    16    17    1
   100    16    13    1
   101    17    18    1
   102    12    13    1
   103    11     9    1
   104    14    13    1
   105     9    10    1
   106     9     8    2
   107     8     7    1
   108     7     6    1
   109     6     5    1
   110     5     2    1
   111     2     3    1
   112     2     1    1
   113     3     4    2
