@<TRIPOS>MOLECULE
tmp/3mxmB00.pdb
 204 197 0 0 0
SMALL
GASTEIGER

@<TRIPOS>ATOM
      1  N         14.2780   18.0900   -5.5440 N.3    13  ASP13      -0.1225
      2  CA        12.9610   18.1110   -4.9180 C.3    13  ASP13       0.1805
      3  C         12.9720   17.2020   -3.7010 C.2    13  ASP13       0.2598
      4  O         13.5970   16.1510   -3.7170 O.2    13  ASP13      -0.2718
      5  CB        11.8520   17.6940   -5.8960 C.3    13  ASP13       0.1424
      6  CG        10.4720   17.9150   -5.3240 C.2    13  ASP13       0.3668
      7  OD1       10.2740   18.9490   -4.6600 O.co2  13  ASP13      -0.2456
      8  OD2        9.5760   17.0720   -5.5380 O.co2  13  ASP13      -0.2456
      9  N         12.2910   17.6280   -2.6390 N.am   14  LEU14      -0.1966
     10  CA        12.1940   16.8310   -1.4260 C.3    14  LEU14       0.1728
     11  C         10.7370   16.5270   -1.1150 C.2    14  LEU14       0.2616
     12  O          9.8640   17.3590   -1.3630 O.2    14  LEU14      -0.2715
     13  CB        12.7720   17.5980   -0.2340 C.3    14  LEU14       0.0311
     14  CG        14.1980   18.1100   -0.3660 C.3    14  LEU14       0.0022
     15  CD1       14.5380   18.9870    0.8380 C.3    14  LEU14       0.0001
     16  CD2       15.1300   16.9140   -0.4680 C.3    14  LEU14       0.0001
     17  N         10.4730   15.3480   -0.5540 N.am   15  GLU15      -0.1963
     18  CA         9.2450   15.1890    0.2160 C.3    15  GLU15       0.1733
     19  C          9.6480   15.1660    1.6850 C.2    15  GLU15       0.2616
     20  O         10.7960   14.8690    2.0210 O.2    15  GLU15      -0.2715
     21  CB         8.4830   13.9120   -0.1430 C.3    15  GLU15       0.0429
     22  CG         8.2290   13.7170   -1.6460 C.3    15  GLU15       0.1163
     23  CD         7.5030   14.8810   -2.3100 C.2    15  GLU15       0.3649
     24  OE1        7.7340   15.0610   -3.5250 O.co2  15  GLU15      -0.2457
     25  OE2        6.7130   15.6140   -1.6510 O.co2  15  GLU15      -0.2457
     26  N          8.7010   15.4720    2.5580 N.am   16  ALA16      -0.1977
     27  CA         9.0250   15.5860    3.9770 C.3    16  ALA16       0.1597
     28  C          7.8130   15.2870    4.8470 C.2    16  ALA16       0.2287
     29  O          6.7140   15.0730    4.3390 O.2    16  ALA16      -0.2864
     30  CB         9.5750   16.9850    4.2770 C.3    16  ALA16       0.0319
     31  N          6.1640   17.2340    6.6880 N.3    18  GLY18      -0.1210
     32  CA         5.2210   18.3370    6.7650 C.3    18  GLY18       0.1956
     33  C          5.7940   19.6660    6.3160 C.2    18  GLY18       0.2612
     34  O          6.8260   19.7250    5.6380 O.2    18  GLY18      -0.2717
     35  N          5.1020   20.7360    6.6990 N.am   19  LEU19      -0.1966
     36  CA         5.4610   22.0980    6.3150 C.3    19  LEU19       0.1713
     37  C          6.3490   22.7660    7.3690 C.2    19  LEU19       0.2458
     38  O          6.5310   22.2330    8.4730 O.2    19  LEU19      -0.2730
     39  CB         4.1830   22.9130    6.0720 C.3    19  LEU19       0.0310
     40  CG         3.3300   22.3460    4.9370 C.3    19  LEU19       0.0022
     41  CD1        1.9730   23.0250    4.8990 C.3    19  LEU19       0.0001
     42  CD2        4.0400   22.4870    3.6000 C.3    19  LEU19       0.0001
     43  N          6.9350   23.9210    7.0260 N.am   20  PRO20      -0.2727
     44  CA         7.9600   24.4860    7.9150 C.3    20  PRO20       0.1402
     45  C          7.5780   24.5780    9.3950 C.2    20  PRO20       0.2269
     46  O          8.3810   24.1600   10.2190 O.2    20  PRO20      -0.2865
     47  CB         8.2160   25.8680    7.3160 C.3    20  PRO20       0.0296
     48  CG         8.0220   25.6130    5.8110 C.3    20  PRO20       0.0237
     49  CD         6.8330   24.6660    5.7560 C.3    20  PRO20       0.0939
     50  N          3.1680   13.8980    9.1000 N.3    73  SER73      -0.1217
     51  CA         1.8570   14.4950    9.3370 C.3    73  SER73       0.1889
     52  C          0.8560   13.7840    8.4260 C.2    73  SER73       0.2288
     53  O          1.2100   13.3520    7.3210 O.2    73  SER73      -0.2866
     54  CB         1.8930   15.9980    9.0610 C.3    73  SER73       0.2089
     55  OG         2.1560   16.2590    7.6980 O.3    73  SER73      -0.2183
     56  N         -1.5300   14.7970    6.6350 N.3    75  GLY75      -0.1210
     57  CA        -1.7150   15.4430    5.3480 C.3    75  GLY75       0.1956
     58  C         -0.5590   15.1040    4.4180 C.2    75  GLY75       0.2611
     59  O         -0.7570   14.7790    3.2440 O.2    75  GLY75      -0.2717
     60  N          0.6570   15.1770    4.9440 N.am   76  ALA76      -0.1979
     61  CA         1.8340   14.8860    4.1360 C.3    76  ALA76       0.1597
     62  C          1.8420   13.4280    3.6830 C.2    76  ALA76       0.2287
     63  O          2.1980   13.1200    2.5490 O.2    76  ALA76      -0.2864
     64  CB         3.1020   15.2120    4.9050 C.3    76  ALA76       0.0319
     65  N         -0.6740   13.0650    0.8110 N.3    79  ILE79      -0.1231
     66  CA        -0.2230   13.7170   -0.4140 C.3    79  ILE79       0.1692
     67  C          0.9540   12.9780   -1.0730 C.2    79  ILE79       0.2592
     68  O          0.9900   12.8180   -2.2980 O.2    79  ILE79      -0.2718
     69  CB         0.1500   15.1810   -0.1240 C.3    79  ILE79       0.0266
     70  CG1       -1.1080   15.9970    0.1760 C.3    79  ILE79       0.0019
     71  CG2        0.8860   15.7850   -1.2720 C.3    79  ILE79       0.0020
     72  CD1       -0.8000   17.2890    0.9420 C.3    79  ILE79       0.0001
     73  N          1.8950   12.5080   -0.2560 N.am   80  THR80      -0.1953
     74  CA         3.1390   11.9100   -0.7720 C.3    80  THR80       0.1897
     75  C          3.0950   10.4000   -0.9880 C.2    80  THR80       0.2313
     76  O          3.9490    9.8480   -1.6920 O.2    80  THR80      -0.2863
     77  CB         4.3430   12.1990    0.1490 C.3    80  THR80       0.1794
     78  OG1        4.1700   11.5170    1.4010 O.3    80  THR80      -0.2208
     79  CG2        4.4960   13.6980    0.3820 C.3    80  THR80       0.0378
     80  N         11.8940   24.3960   -6.4460 N.3   119  HIS119     -0.1226
     81  CA        10.7170   25.2420   -6.5530 C.3   119  HIS119      0.1752
     82  C         10.2350   25.7010   -5.1660 C.2   119  HIS119      0.2596
     83  O          9.7510   24.8960   -4.3610 O.2   119  HIS119     -0.2718
     84  CB         9.6070   24.5010   -7.3060 C.3   119  HIS119      0.0759
     85  CG         8.6790   25.4240   -8.0340 C.ar  119  HIS119      0.0818
     86  ND1        9.0710   26.1320   -9.1500 N.ar  119  HIS119     -0.2268
     87  CD2        7.3920   25.7750   -7.7950 C.ar  119  HIS119      0.1154
     88  CE1        8.0630   26.8750   -9.5710 C.ar  119  HIS119      0.1986
     89  NE2        7.0330   26.6810   -8.7660 N.ar  119  HIS119     -0.2212
     90  N         10.3570   27.0020   -4.9090 N.am  120  ASN120     -0.1974
     91  CA        10.2440   27.5440   -3.5530 C.3   120  ASN120      0.1688
     92  C         11.4190   27.0870   -2.7080 C.2   120  ASN120      0.2292
     93  O         11.3380   27.0420   -1.4810 O.2   120  ASN120     -0.2864
     94  CB         8.9300   27.1430   -2.8660 C.3   120  ASN120      0.1181
     95  CG         8.4730   28.1900   -1.8430 C.2   120  ASN120      0.2629
     96  OD1        8.8330   29.3670   -1.9470 O.2   120  ASN120     -0.2716
     97  ND2        7.6770   27.7660   -0.8530 N.am  120  ASN120     -0.0877
     98  N         12.5840   29.1140    0.3420 N.3   123  ARG123     -0.1231
     99  CA        11.7700   29.0730    1.5530 C.3   123  ARG123      0.1694
    100  C         11.5290   27.6640    2.0700 C.2   123  ARG123      0.2592
    101  O         11.0210   27.5000    3.1760 O.2   123  ARG123     -0.2718
    102  CB        10.4230   29.7800    1.3260 C.3   123  ARG123      0.0321
    103  CG        10.5650   31.2750    1.0760 C.3   123  ARG123      0.0489
    104  CD         9.2200   31.9990    1.1670 C.3   123  ARG123      0.2205
    105  NE         8.6670   31.9260    2.5170 N.pl3 123  ARG123     -0.0865
    106  CZ         7.4220   32.2650    2.8330 C.cat 123  ARG123      0.5346
    107  NH1        6.5970   32.6980    1.8930 N.pl3 123  ARG123      0.1354
    108  NH2        6.9990   32.1650    4.0880 N.pl3 123  ARG123      0.1354
    109  N         11.8830   26.6460    1.2910 N.am  124  TYR124     -0.1962
    110  CA        11.5950   25.2770    1.7110 C.3   124  TYR124      0.1771
    111  C         12.7800   24.3150    1.5680 C.2   124  TYR124      0.2619
    112  O         13.4470   24.0060    2.5650 O.2   124  TYR124     -0.2715
    113  CB        10.3250   24.7220    1.0270 C.3   124  TYR124      0.0574
    114  CG         9.8380   23.4360    1.6710 C.ar  124  TYR124     -0.0198
    115  CD1        9.1230   23.4670    2.8640 C.ar  124  TYR124     -0.0009
    116  CD2       10.1340   22.2000    1.1150 C.ar  124  TYR124     -0.0009
    117  CE1        8.6890   22.2990    3.4680 C.ar  124  TYR124      0.0417
    118  CE2        9.7060   21.0140    1.7130 C.ar  124  TYR124      0.0417
    119  CZ         8.9890   21.0750    2.8970 C.ar  124  TYR124      0.1957
    120  OH         8.5610   19.9190    3.5080 O.3   124  TYR124     -0.2866
    121  N         13.0630   23.8440    0.3560 N.am  125  ASP125     -0.1971
    122  CA        14.0700   22.7960    0.2080 C.3   125  ASP125      0.1709
    123  C         15.4700   23.1870    0.6800 C.2   125  ASP125      0.2293
    124  O         16.1790   22.3660    1.2540 O.2   125  ASP125     -0.2864
    125  CB        14.1540   22.2900   -1.2350 C.3   125  ASP125      0.1436
    126  CG        12.7990   21.8850   -1.7830 C.2   125  ASP125      0.3671
    127  OD1       11.9580   22.7810   -1.9490 O.co2 125  ASP125     -0.2456
    128  OD2       12.5940   20.6850   -2.0510 O.co2 125  ASP125     -0.2456
    129  N         10.8900   29.5350   -8.6470 N.3   151  ILE151     -0.1245
    130  CA         9.7770   30.4850   -8.6310 C.3   151  ILE151      0.1561
    131  C         10.2310   31.8630   -9.1070 C.2   151  ILE151      0.2260
    132  O          9.6100   32.4530   -9.9850 O.2   151  ILE151     -0.2867
    133  CB         9.0720   30.6020   -7.2590 C.3   151  ILE151      0.0252
    134  CG1        8.2770   29.3210   -6.9810 C.3   151  ILE151      0.0019
    135  CG2        8.1350   31.8230   -7.2720 C.3   151  ILE151      0.0019
    136  CD1        7.5700   29.2980   -5.6190 C.3   151  ILE151      0.0001
    137  N          8.9830   33.5340  -12.6710 N.3   155  LYS155     -0.1245
    138  CA         8.3910   34.8720  -12.6340 C.3   155  LYS155      0.1561
    139  C          9.1140   35.7860  -13.6080 C.2   155  LYS155      0.2260
    140  O          8.4810   36.5460  -14.3410 O.2   155  LYS155     -0.2867
    141  CB         8.4440   35.4740  -11.2350 C.3   155  LYS155      0.0271
    142  CG         7.4290   34.8950  -10.2740 C.3   155  LYS155      0.0035
    143  CD         7.5780   35.5430   -8.9010 C.3   155  LYS155      0.0206
    144  CE         6.5480   35.0030   -7.9180 C.3   155  LYS155      0.1093
    145  NZ         6.8470   35.4820   -6.5330 N.3   155  LYS155     -0.1314
    146  N         -1.3170   35.8290  -11.0850 N.3   167  LYS167     -0.1231
    147  CA        -1.2600   34.3880  -11.3040 C.3   167  LYS167      0.1693
    148  C         -0.4210   33.6170  -10.2880 C.2   167  LYS167      0.2593
    149  O          0.4340   34.1780   -9.6080 O.2   167  LYS167     -0.2718
    150  CB        -0.8520   34.0460  -12.7460 C.3   167  LYS167      0.0285
    151  CG         0.3990   34.7120  -13.2550 C.3   167  LYS167      0.0035
    152  CD         0.5740   34.4200  -14.7510 C.3   167  LYS167      0.0206
    153  CE         1.7930   35.1220  -15.3210 C.3   167  LYS167      0.1093
    154  NZ         2.0040   34.8370  -16.7850 N.3   167  LYS167     -0.1314
    155  N         -0.6880   32.3200  -10.1960 N.am  168  SER168     -0.1938
    156  CA         0.0290   31.4600   -9.2640 C.3   168  SER168      0.2055
    157  C          1.3170   30.9780   -9.8910 C.2   168  SER168      0.2643
    158  O          1.3570   30.6730  -11.0840 O.2   168  SER168     -0.2714
    159  CB        -0.8130   30.2400   -8.9050 C.3   168  SER168      0.2130
    160  OG        -0.0770   29.3290   -8.0900 O.3   168  SER168     -0.2179
    161  N          2.3590   30.9010   -9.0690 N.am  169  TYR169     -0.1959
    162  CA         3.6190   30.3020   -9.4640 C.3   169  TYR169      0.1771
    163  C          3.8660   28.9880   -8.7290 C.2   169  TYR169      0.2620
    164  O          5.0020   28.5590   -8.5750 O.2   169  TYR169     -0.2715
    165  CB         4.7580   31.2960   -9.2640 C.3   169  TYR169      0.0574
    166  CG         4.6930   32.3450  -10.3450 C.ar  169  TYR169     -0.0198
    167  CD1        3.9580   33.5090  -10.1690 C.ar  169  TYR169     -0.0009
    168  CD2        5.3010   32.1250  -11.5680 C.ar  169  TYR169     -0.0009
    169  CE1        3.8670   34.4520  -11.1880 C.ar  169  TYR169      0.0417
    170  CE2        5.2160   33.0560  -12.5850 C.ar  169  TYR169      0.0417
    171  CZ         4.5030   34.2100  -12.3900 C.ar  169  TYR169      0.1957
    172  OH         4.4240   35.1240  -13.4190 O.3   169  TYR169     -0.2866
    173  N          2.7900   28.3350   -8.3060 N.am  170  SER170     -0.1936
    174  CA         2.9140   26.9530   -7.8670 C.3   170  SER170      0.2055
    175  C          3.4050   26.1310   -9.0400 C.2   170  SER170      0.2642
    176  O          3.1870   26.4860  -10.2060 O.2   170  SER170     -0.2714
    177  CB         1.5720   26.4160   -7.3710 C.3   170  SER170      0.2130
    178  OG         0.6740   26.1840   -8.4510 O.3   170  SER170     -0.2179
    179  N          4.0520   25.0140   -8.7320 N.am  171  LEU171     -0.1977
    180  CA         4.6530   24.1820   -9.7680 C.3   171  LEU171      0.1596
    181  C          3.6520   23.8210  -10.8750 C.2   171  LEU171      0.2287
    182  O          3.9480   23.9690  -12.0750 O.2   171  LEU171     -0.2864
    183  CB         5.2360   22.9160   -9.1290 C.3   171  LEU171      0.0297
    184  CG         6.0350   22.0270  -10.0890 C.3   171  LEU171      0.0022
    185  CD1        7.3040   22.7340  -10.5320 C.3   171  LEU171      0.0001
    186  CD2        6.3720   20.6930   -9.4210 C.3   171  LEU171      0.0001
    187  N          3.7720   15.0800   -6.1520 N.3   187  HIS187     -0.1241
    188  CA         4.2280   14.7850   -4.7940 C.3   187  HIS187      0.1621
    189  C          4.9590   13.4660   -4.6190 C.2   187  HIS187      0.2264
    190  O          4.9990   12.8950   -3.5230 O.2   187  HIS187     -0.2867
    191  CB         3.1270   15.0070   -3.7540 C.3   187  HIS187      0.0745
    192  CG         2.7990   16.4540   -3.5620 C.ar  187  HIS187      0.0817
    193  ND1        1.6260   17.0190   -4.0100 N.ar  187  HIS187     -0.2268
    194  CD2        3.5230   17.4650   -3.0210 C.ar  187  HIS187      0.1154
    195  CE1        1.6260   18.3110   -3.7280 C.ar  187  HIS187      0.1986
    196  NE2        2.7650   18.6070   -3.1270 N.ar  187  HIS187     -0.2212
    197  N          7.8220   15.2940   -9.3640 N.3   192  ASP192     -0.1239
    198  CA         7.8330   16.7540   -9.3330 C.3   192  ASP192      0.1674
    199  C          9.1790   17.3560   -9.7670 C.2   192  ASP192      0.2266
    200  O          9.2170   18.4740  -10.2900 O.2   192  ASP192     -0.2867
    201  CB         7.4150   17.2500   -7.9470 C.3   192  ASP192      0.1410
    202  CG         5.9200   17.1070   -7.7080 C.2   192  ASP192      0.3668
    203  OD1        5.1680   16.8890   -8.6770 O.co2 192  ASP192     -0.2456
    204  OD2        5.4840   17.2280   -6.5550 O.co2 192  ASP192     -0.2456
@<TRIPOS>BOND
     1   154   153    1
     2   153   152    1
     3   152   151    1
     4   140   139    2
     5   139   138    1
     6   172   171    1
     7   151   150    1
     8   150   147    1
     9   137   138    1
    10   138   141    1
    11   170   171   ar
    12   170   168   ar
    13   171   169   ar
    14   182   181    2
    15   168   166   ar
    16   147   146    1
    17   147   148    1
    18   141   142    1
    19   169   167   ar
    20   158   157    2
    21   181   180    1
    22   185   184    1
    23   166   167   ar
    24   166   165    1
    25   200   199    2
    26   148   155   am
    27   148   149    2
    28   142   143    1
    29   176   175    2
    30   155   156    1
    31   184   186    1
    32   184   183    1
    33   132   131    2
    34   157   156    1
    35   157   161   am
    36   180   183    1
    37   180   179    1
    38   199   198    1
    39    88    86   ar
    40    88    89   ar
    41   162   165    1
    42   162   161    1
    43   162   163    1
    44   197   198    1
    45   198   201    1
    46   156   159    1
    47    86    85   ar
    48   131   130    1
    49   175   179   am
    50   175   174    1
    51   159   160    1
    52   143   144    1
    53    89    87   ar
    54   163   164    2
    55   163   173   am
    56   203   202   ar
    57   129   130    1
    58   130   133    1
    59   178   177    1
    60   173   174    1
    61    85    87   ar
    62    85    84    1
    63   201   202    1
    64   144   145    1
    65   174   177    1
    66   202   204   ar
    67    84    81    1
    68   135   133    1
    69   133   134    1
    70   134   136    1
    71    81    80    1
    72    81    82    1
    73   187   188    1
    74     5     6    1
    75     5     2    1
    76     1     2    1
    77     8     6   ar
    78     6     7   ar
    79    82    90   am
    80    82    83    2
    81     2     3    1
    82    90    91    1
    83   188   189    1
    84   188   191    1
    85   189   190    2
    86   193   195   ar
    87   193   192   ar
    88   191   192    1
    89   195   196   ar
    90     4     3    2
    91     3     9   am
    92   192   194   ar
    93    91    94    1
    94    91    92    1
    95    24    23   ar
    96   196   194   ar
    97    94    95    1
    98    92    93    2
    99     9    10    1
   100    23    25   ar
   101    23    22    1
   102    68    67    2
   103   128   126   ar
   104   127   126   ar
   105    96    95    2
   106    95    97   am
   107   126   125    1
   108    76    75    2
   109    22    21    1
   110    10    11    1
   111    10    13    1
   112    12    11    2
   113    71    69    1
   114   125   122    1
   115    11    17   am
   116    67    66    1
   117    67    73   am
   118    75    74    1
   119    74    73    1
   120    74    77    1
   121    17    18    1
   122    16    14    1
   123    66    69    1
   124    66    65    1
   125    14    13    1
   126    14    15    1
   127    21    18    1
   128    69    70    1
   129    77    79    1
   130    77    78    1
   131    70    72    1
   132   122   121    1
   133   122   123    1
   134    18    19    1
   135    98    99    1
   136   121   111   am
   137   123   124    2
   138   113   114    1
   139   113   110    1
   140   103   104    1
   141   103   102    1
   142   116   114   ar
   143   116   118   ar
   144   104   105    1
   145   109   110    1
   146   109   100   am
   147   102    99    1
   148    99   100    1
   149   111   110    1
   150   111   112    2
   151   114   115   ar
   152    19    20    2
   153    19    26   am
   154   118   119   ar
   155   107   106    1
   156   100   101    2
   157   105   106    2
   158    63    62    2
   159    26    27    1
   160   106   108    1
   161   115   117   ar
   162   119   117   ar
   163   119   120    1
   164    59    58    2
   165    42    40    1
   166    62    61    1
   167    27    30    1
   168    27    28    1
   169    61    64    1
   170    61    60    1
   171    29    28    2
   172    58    60   am
   173    58    57    1
   174    41    40    1
   175    40    39    1
   176    57    56    1
   177    34    33    2
   178    49    48    1
   179    49    43    1
   180    48    47    1
   181    39    36    1
   182    36    35    1
   183    36    37    1
   184    33    35   am
   185    33    32    1
   186    31    32    1
   187    43    37   am
   188    43    44    1
   189    47    44    1
   190    53    52    2
   191    37    38    2
   192    55    54    1
   193    44    45    1
   194    52    51    1
   195    54    51    1
   196    50    51    1
   197    45    46    2
