@<TRIPOS>MOLECULE
tmp/3mxoA00.pdb
 93 87 0 0 0
SMALL
GASTEIGER

@<TRIPOS>ATOM
      1  N          0.0470   -1.7080  -15.6470 N.3    12  HIS12      -0.1241
      2  CA         0.6890   -1.1420  -14.5030 C.3    12  HIS12       0.1621
      3  C         -0.4250   -0.8030  -13.5300 C.2    12  HIS12       0.2264
      4  O         -1.3270   -0.0180  -13.8730 O.2    12  HIS12      -0.2867
      5  CB         1.4830    0.0860  -14.9160 C.3    12  HIS12       0.0745
      6  CG         2.7200   -0.2510  -15.6680 C.ar   12  HIS12       0.0817
      7  ND1        3.9150   -0.5090  -15.0420 N.ar   12  HIS12      -0.2268
      8  CD2        2.9250   -0.4730  -16.9770 C.ar   12  HIS12       0.1154
      9  CE1        4.8170   -0.8480  -15.9450 C.ar   12  HIS12       0.1986
     10  NE2        4.2390   -0.8310  -17.1320 N.ar   12  HIS12      -0.2212
     11  N         -1.5150    0.5950   -9.9100 N.3    14  PHE14      -0.1241
     12  CA        -1.0980    1.4930   -8.8060 C.3    14  PHE14       0.1605
     13  C         -2.2080    1.4350   -7.7450 C.2    14  PHE14       0.2264
     14  O         -3.3350    1.9080   -8.0020 O.2    14  PHE14      -0.2867
     15  CB        -0.9010    2.9410   -9.3260 C.3    14  PHE14       0.0534
     16  CG         0.2400    3.0900  -10.3000 C.ar   14  PHE14      -0.0203
     17  CD1        1.5060    3.3600   -9.8400 C.ar   14  PHE14      -0.0042
     18  CD2        0.0510    2.8650  -11.6660 C.ar   14  PHE14      -0.0042
     19  CE1        2.5680    3.4780  -10.6860 C.ar   14  PHE14      -0.0003
     20  CE2        1.1120    2.9960  -12.5560 C.ar   14  PHE14      -0.0003
     21  CZ         2.3660    3.2700  -12.0730 C.ar   14  PHE14      -0.0000
     22  N          4.5240   11.5000  -12.8800 N.3    51  LEU51      -0.1245
     23  CA         5.0810   10.2970  -13.5000 C.3    51  LEU51       0.1561
     24  C          5.0780   10.2990  -15.0230 C.2    51  LEU51       0.2260
     25  O          5.6390    9.3950  -15.6280 O.2    51  LEU51      -0.2867
     26  CB         4.3460    9.0550  -12.9960 C.3    51  LEU51       0.0270
     27  CG         4.3430    8.7970  -11.4560 C.3    51  LEU51       0.0019
     28  CD1        3.5440    7.5540  -11.0370 C.3    51  LEU51       0.0001
     29  CD2        5.7600    8.6700  -10.9500 C.3    51  LEU51       0.0001
     30  N          2.5220    9.8160  -16.9950 N.3    53  LEU53      -0.1245
     31  CA         1.6490    8.7450  -17.4440 C.3    53  LEU53       0.1561
     32  C          0.2290    9.2380  -17.6660 C.2    53  LEU53       0.2260
     33  O         -0.3390    9.9320  -16.8100 O.2    53  LEU53      -0.2867
     34  CB         1.5840    7.6210  -16.4140 C.3    53  LEU53       0.0270
     35  CG         2.8720    6.9810  -15.9600 C.3    53  LEU53       0.0019
     36  CD1        2.5200    5.9590  -14.8890 C.3    53  LEU53       0.0001
     37  CD2        3.5840    6.3470  -17.1410 C.3    53  LEU53       0.0001
     38  N         -2.2290    1.9360  -17.4780 N.3   123  TYR123     -0.1241
     39  CA        -1.8140    2.4900  -16.1680 C.3   123  TYR123      0.1605
     40  C         -3.0930    2.7210  -15.3790 C.2   123  TYR123      0.2264
     41  O         -3.9080    3.5500  -15.7410 O.2   123  TYR123     -0.2867
     42  CB        -0.9710    3.7670  -16.3620 C.3   123  TYR123      0.0534
     43  CG         0.1220    3.5280  -17.3830 C.ar  123  TYR123     -0.0201
     44  CD1        1.3290    2.9890  -16.9920 C.ar  123  TYR123     -0.0009
     45  CD2       -0.0660    3.8060  -18.7240 C.ar  123  TYR123     -0.0009
     46  CE1        2.3300    2.7250  -17.9010 C.ar  123  TYR123      0.0417
     47  CE2        0.9200    3.5230  -19.6460 C.ar  123  TYR123      0.0417
     48  CZ         2.1120    2.9750  -19.2220 C.ar  123  TYR123      0.1957
     49  OH         3.1290    2.7230  -20.1340 O.3   123  TYR123     -0.2866
     50  N          2.9180   -0.5420   -6.4440 N.3   160  HIS160     -0.1241
     51  CA         2.9510   -0.6670   -7.8980 C.3   160  HIS160      0.1621
     52  C          3.2700   -2.1390   -8.2910 C.2   160  HIS160      0.2264
     53  O          4.3510   -2.6410   -8.0020 O.2   160  HIS160     -0.2867
     54  CB         3.9880    0.3310   -8.4190 C.3   160  HIS160      0.0745
     55  CG         4.2480    0.2700   -9.8800 C.ar  160  HIS160      0.0817
     56  ND1        5.3390    0.8910  -10.4570 N.ar  160  HIS160     -0.2268
     57  CD2        3.5400   -0.2770  -10.9000 C.ar  160  HIS160      0.1154
     58  CE1        5.2820    0.7180  -11.7710 C.ar  160  HIS160      0.1986
     59  NE2        4.2120    0.0000  -12.0600 N.ar  160  HIS160     -0.2212
     60  N          3.3040   -4.8000  -11.7020 N.3   162  VAL162     -0.1245
     61  CA         3.3210   -4.8660  -13.1580 C.3   162  VAL162      0.1561
     62  C          2.8350   -6.2740  -13.5880 C.2   162  VAL162      0.2260
     63  O          3.3610   -7.2810  -13.1600 O.2   162  VAL162     -0.2867
     64  CB         4.6710   -4.5190  -13.7180 C.3   162  VAL162      0.0252
     65  CG1        4.6500   -4.5840  -15.2810 C.3   162  VAL162      0.0019
     66  CG2        5.0740   -3.1230  -13.2340 C.3   162  VAL162      0.0019
     67  N          2.4070   -8.6290  -16.8180 N.3   164  ARG164     -0.1245
     68  CA         2.8030   -8.8820  -18.1860 C.3   164  ARG164      0.1563
     69  C          1.7090   -9.6770  -18.8770 C.2   164  ARG164      0.2260
     70  O          0.8900  -10.2870  -18.2270 O.2   164  ARG164     -0.2867
     71  CB         4.1190   -9.6820  -18.2370 C.3   164  ARG164      0.0307
     72  CG         5.3400   -9.0520  -17.5660 C.3   164  ARG164      0.0489
     73  CD         5.4260   -7.5430  -17.6930 C.3   164  ARG164      0.2205
     74  NE         5.7980   -7.0930  -19.0340 N.pl3 164  ARG164     -0.0865
     75  CZ         6.4440   -5.9560  -19.3050 C.cat 164  ARG164      0.5346
     76  NH1        6.8350   -5.1250  -18.3350 N.pl3 164  ARG164      0.1354
     77  NH2        6.7200   -5.6510  -20.5660 N.pl3 164  ARG164      0.1354
     78  N          5.2830   -8.5230  -11.4300 N.3   170  ALA170     -0.1245
     79  CA         6.3870   -7.9550  -10.6640 C.3   170  ALA170      0.1562
     80  C          5.8780   -6.9030   -9.6990 C.2   170  ALA170      0.2260
     81  O          5.0200   -6.0680  -10.0370 O.2   170  ALA170     -0.2867
     82  CB         7.4580   -7.2970  -11.5690 C.3   170  ALA170      0.0290
     83  N          6.9680   -3.6810   -7.9350 N.3   172  ARG172     -0.1245
     84  CA         8.0060   -2.6230   -8.1290 C.3   172  ARG172      0.1563
     85  C          8.2220   -1.7620   -6.8920 C.2   172  ARG172      0.2260
     86  O          9.3320   -1.3860   -6.5770 O.2   172  ARG172     -0.2867
     87  CB         7.6560   -1.7640   -9.3300 C.3   172  ARG172      0.0307
     88  CG         7.6270   -2.4840  -10.6550 C.3   172  ARG172      0.0489
     89  CD         8.9490   -2.5860  -11.2300 C.3   172  ARG172      0.2205
     90  NE         9.4450   -1.2700  -11.6000 N.pl3 172  ARG172     -0.0865
     91  CZ        10.4240   -0.6100  -10.9660 C.cat 172  ARG172      0.5346
     92  NH1       10.7550    0.6370  -11.4310 N.pl3 172  ARG172      0.1354
     93  NH2       11.0610   -1.1360   -9.8640 N.pl3 172  ARG172      0.1354
@<TRIPOS>BOND
     1    77    75    1
     2    49    48    1
     3    47    48   ar
     4    47    45   ar
     5    75    74    2
     6    75    76    1
     7    48    46   ar
     8    74    73    1
     9    69    70    2
    10    69    68    1
    11    45    43   ar
    12    71    68    1
    13    71    72    1
    14    68    67    1
    15    46    44   ar
    16    73    72    1
    17    32    31    1
    18    32    33    2
    19    38    39    1
    20    31    30    1
    21    31    34    1
    22    43    44   ar
    23    43    42    1
    24    37    35    1
    25    10     8   ar
    26    10     9   ar
    27     8     6   ar
    28    34    35    1
    29    42    39    1
    30    39    40    1
    31    35    36    1
    32     9     7   ar
    33    41    40    2
    34     6     7   ar
    35     6     5    1
    36     1     2    1
    37    25    24    2
    38    65    64    1
    39    24    23    1
    40     5     2    1
    41     2     3    1
    42     4     3    2
    43    64    66    1
    44    64    61    1
    45    62    63    2
    46    62    61    1
    47    23    26    1
    48    23    22    1
    49    61    60    1
    50    26    27    1
    51    20    21   ar
    52    20    18   ar
    53    21    19   ar
    54    59    58   ar
    55    59    57   ar
    56    58    56   ar
    57    18    16   ar
    58    90    89    1
    59    90    91    2
    60    82    79    1
    61    27    28    1
    62    27    29    1
    63    92    91    1
    64    78    79    1
    65    89    88    1
    66    91    93    1
    67    57    55   ar
    68    19    17   ar
    69    79    80    1
    70    88    87    1
    71    56    55   ar
    72    16    17   ar
    73    16    15    1
    74    81    80    2
    75    11    12    1
    76    55    54    1
    77    87    84    1
    78    15    12    1
    79    12    13    1
    80    54    51    1
    81    52    53    2
    82    52    51    1
    83    84    83    1
    84    84    85    1
    85    14    13    2
    86    51    50    1
    87    85    86    2
