@<TRIPOS>MOLECULE
tmp/3mxrA00.pdb
 117 109 0 0 0
SMALL
GASTEIGER

@<TRIPOS>ATOM
      1  N         33.2410   60.5010    8.4610 N.3    45  SER45      -0.1217
      2  CA        32.6960   59.3700    7.7150 C.3    45  SER45       0.1889
      3  C         33.2560   58.0540    8.2040 C.2    45  SER45       0.2288
      4  O         32.7980   57.0120    7.7760 O.2    45  SER45      -0.2866
      5  CB        32.9240   59.5290    6.2130 C.3    45  SER45       0.2089
      6  OG        32.0440   60.5130    5.6920 O.3    45  SER45      -0.2183
      7  N         30.8300   55.3380    9.3090 N.3    48  LYS48      -0.1245
      8  CA        30.0970   54.5170    8.3480 C.3    48  LYS48       0.1561
      9  C         30.4600   53.0360    8.4750 C.2    48  LYS48       0.2260
     10  O         29.6210   52.1690    8.1910 O.2    48  LYS48      -0.2867
     11  CB        30.2880   55.0380    6.9120 C.3    48  LYS48       0.0271
     12  CG        29.5540   56.3480    6.6940 C.3    48  LYS48       0.0035
     13  CD        30.0260   57.0830    5.4750 C.3    48  LYS48       0.0206
     14  CE        29.2550   58.3890    5.3500 C.3    48  LYS48       0.1093
     15  NZ        29.9220   59.3610    4.4350 N.3    48  LYS48      -0.1314
     16  N         24.3220   66.0170    0.2460 N.3    79  ASP79      -0.1225
     17  CA        25.4410   66.1960   -0.6670 C.3    79  ASP79       0.1805
     18  C         26.4420   65.0430   -0.5980 C.2    79  ASP79       0.2597
     19  O         26.5000   64.3120    0.4110 O.2    79  ASP79      -0.2718
     20  CB        26.1450   67.5330   -0.3970 C.3    79  ASP79       0.1424
     21  CG        26.8080   68.1270   -1.6410 C.2    79  ASP79       0.3668
     22  OD1       27.1670   69.3130   -1.5570 O.co2  79  ASP79      -0.2456
     23  OD2       26.9770   67.4620   -2.6890 O.co2  79  ASP79      -0.2456
     24  N         27.2460   64.9220   -1.6550 N.am   80  TYR80      -0.1976
     25  CA        28.2180   63.8480   -1.8870 C.3    80  TYR80       0.1639
     26  C         27.6600   62.4560   -1.7300 C.2    80  TYR80       0.2290
     27  O         27.9920   61.6520   -0.8210 O.2    80  TYR80      -0.2864
     28  CB        29.6000   64.0150   -1.2600 C.3    80  TYR80       0.0560
     29  CG        30.5480   63.2010   -2.1050 C.ar   80  TYR80      -0.0198
     30  CD1       30.8760   63.6180   -3.3960 C.ar   80  TYR80      -0.0009
     31  CD2       31.0330   61.9680   -1.6690 C.ar   80  TYR80      -0.0009
     32  CE1       31.6980   62.8620   -4.2070 C.ar   80  TYR80       0.0417
     33  CE2       31.8670   61.2010   -2.4820 C.ar   80  TYR80       0.0417
     34  CZ        32.1920   61.6580   -3.7440 C.ar   80  TYR80       0.1957
     35  OH        33.0120   60.9160   -4.5620 O.3    80  TYR80      -0.2866
     36  N         32.0290   56.6380    0.4350 N.3   105  SER105     -0.1217
     37  CA        31.6260   57.6270    1.4230 C.3   105  SER105      0.1889
     38  C         30.2680   58.2650    1.0920 C.2   105  SER105      0.2288
     39  O         30.0220   59.3960    1.4850 O.2   105  SER105     -0.2866
     40  CB        32.7030   58.6990    1.6420 C.3   105  SER105      0.2089
     41  OG        32.7720   58.9410    3.0390 O.3   105  SER105     -0.2183
     42  N         26.9180   59.7970    1.2670 N.3   107  ASN107     -0.1240
     43  CA        26.2710   60.3020    2.4530 C.3   107  ASN107      0.1653
     44  C         24.8030   59.9430    2.5390 C.2   107  ASN107      0.2266
     45  O         24.2850   59.6780    3.6200 O.2   107  ASN107     -0.2867
     46  CB        26.4220   61.8140    2.5120 C.3   107  ASN107      0.1155
     47  CG        27.7570   62.2380    3.0390 C.2   107  ASN107      0.2627
     48  OD1       28.3430   61.5570    3.8870 O.2   107  ASN107     -0.2716
     49  ND2       28.2640   63.3510    2.5320 N.am  107  ASN107     -0.0877
     50  N         24.3080   62.7960    8.3140 N.3   141  GLU141     -0.1231
     51  CA        25.0850   63.4840    7.3020 C.3   141  GLU141      0.1699
     52  C         24.2560   64.6380    6.7300 C.2   141  GLU141      0.2593
     53  O         23.0820   64.4370    6.5020 O.2   141  GLU141     -0.2718
     54  CB        25.4890   62.5140    6.1790 C.3   141  GLU141      0.0402
     55  CG        26.5480   61.4850    6.5910 C.3   141  GLU141      0.1161
     56  CD        27.9430   62.0660    6.7320 C.2   141  GLU141      0.3649
     57  OE1       28.8980   61.2720    7.0040 O.co2 141  GLU141     -0.2457
     58  OE2       28.1150   63.3020    6.5810 O.co2 141  GLU141     -0.2457
     59  N         24.8530   65.8040    6.4580 N.am  142  THR142     -0.1939
     60  CA        26.2790   66.0870    6.5950 C.3   142  THR142      0.2028
     61  C         26.6200   66.9320    7.8210 C.2   142  THR142      0.2642
     62  O         27.7840   67.2730    8.0300 O.2   142  THR142     -0.2714
     63  CB        26.8160   66.8180    5.3570 C.3   142  THR142      0.1808
     64  OG1       26.0040   67.9820    5.1160 O.3   142  THR142     -0.2208
     65  CG2       26.7400   65.9430    4.1400 C.3   142  THR142      0.0379
     66  N         25.6270   67.2620    8.6470 N.am  143  GLU143     -0.1976
     67  CA        25.8900   68.0990    9.8140 C.3   143  GLU143      0.1602
     68  C         26.8660   67.4870   10.7950 C.2   143  GLU143      0.2287
     69  O         27.5540   68.2260   11.4960 O.2   143  GLU143     -0.2864
     70  CB        24.6020   68.4610   10.5540 C.3   143  GLU143      0.0415
     71  CG        23.6780   69.3710    9.7800 C.3   143  GLU143      0.1163
     72  CD        22.8930   68.6490    8.6860 C.2   143  GLU143      0.3649
     73  OE1       22.7500   67.4070    8.7300 O.co2 143  GLU143     -0.2457
     74  OE2       22.4120   69.3480    7.7750 O.co2 143  GLU143     -0.2457
     75  N         29.6420   66.4600   10.4330 N.3   145  ASN145     -0.1225
     76  CA        30.9960   66.8760   10.1150 C.3   145  ASN145      0.1785
     77  C         31.4150   68.2710   10.6010 C.2   145  ASN145      0.2597
     78  O         32.5200   68.7360   10.3000 O.2   145  ASN145     -0.2718
     79  CB        31.1860   66.8040    8.6110 C.3   145  ASN145      0.1169
     80  CG        30.9640   65.4110    8.0770 C.2   145  ASN145      0.2627
     81  OD1       31.7210   64.4900    8.4150 O.2   145  ASN145     -0.2716
     82  ND2       29.9410   65.2420    7.2490 N.am  145  ASN145     -0.0877
     83  N         30.5200   68.9470   11.3170 N.am  146  GLU146     -0.1979
     84  CA        30.7290   70.3610   11.6370 C.3   146  GLU146      0.1602
     85  C         31.9850   70.5970   12.4610 C.2   146  GLU146      0.2287
     86  O         32.6400   71.6430   12.3010 O.2   146  GLU146     -0.2864
     87  CB        29.5210   70.9300   12.3690 C.3   146  GLU146      0.0415
     88  CG        29.4580   72.4520   12.2880 C.3   146  GLU146      0.1163
     89  CD        28.2620   73.0300   12.9910 C.2   146  GLU146      0.3649
     90  OE1       28.0030   74.2490   12.8040 O.co2 146  GLU146     -0.2457
     91  OE2       27.5940   72.2850   13.7330 O.co2 146  GLU146     -0.2457
     92  N         36.3370   63.2600    6.4710 N.3   212  ALA212     -0.1231
     93  CA        36.7520   64.6550    6.3700 C.3   212  ALA212      0.1694
     94  C         35.6310   65.5390    6.8930 C.2   212  ALA212      0.2593
     95  O         34.4580   65.2510    6.6560 O.2   212  ALA212     -0.2718
     96  CB        37.0850   65.0360    4.9320 C.3   212  ALA212      0.0304
     97  N         35.9910   66.6060    7.5970 N.am  213  GLY213     -0.1942
     98  CA        35.0030   67.5780    8.0790 C.3   213  GLY213      0.2014
     99  C         35.5660   68.9810    8.0850 C.2   213  GLY213      0.2638
    100  O         36.5840   69.2730    7.4460 O.2   213  GLY213     -0.2714
    101  N         34.8750   69.8460    8.8250 N.am  214  GLU214     -0.1977
    102  CA        35.2600   71.2570    8.9350 C.3   214  GLU214      0.1602
    103  C         36.4020   71.4790    9.9170 C.2   214  GLU214      0.2287
    104  O         36.7510   70.5890   10.7090 O.2   214  GLU214     -0.2864
    105  CB        34.0600   72.1170    9.3390 C.3   214  GLU214      0.0415
    106  CG        32.8280   71.9890    8.4480 C.3   214  GLU214      0.1163
    107  CD        31.6960   72.9130    8.8970 C.2   214  GLU214      0.3649
    108  OE1       30.5580   72.4360    9.0730 O.co2 214  GLU214     -0.2457
    109  OE2       31.9520   74.1180    9.0920 O.co2 214  GLU214     -0.2457
    110  N         43.9660   70.5690    2.8760 N.3   245  MET245     -0.1245
    111  CA        43.6660   69.1450    2.7570 C.3   245  MET245      0.1570
    112  C         44.9220   68.3750    2.3430 C.2   245  MET245      0.2261
    113  O         45.1960   67.3050    2.8700 O.2   245  MET245     -0.2867
    114  CB        42.5620   68.9320    1.7350 C.3   245  MET245      0.0387
    115  CG        42.1720   67.4490    1.5240 C.3   245  MET245      0.0595
    116  SD        41.6000   66.5860    2.9970 S.3   245  MET245     -0.1393
    117  CE        39.8930   67.1230    3.0550 C.3   245  MET245      0.0692
@<TRIPOS>BOND
     1    35    34    1
     2    32    34   ar
     3    32    30   ar
     4    34    33   ar
     5    30    29   ar
     6    23    21   ar
     7    33    31   ar
     8    29    31   ar
     9    29    28    1
    10    25    26    1
    11    25    24    1
    12    25    28    1
    13    26    27    2
    14    24    18   am
    15    21    22   ar
    16    21    20    1
    17    17    18    1
    18    17    20    1
    19    17    16    1
    20    18    19    2
    21    36    37    1
    22    38    37    1
    23    38    39    2
    24    42    43    1
    25    37    40    1
    26   115   114    1
    27   115   116    1
    28    40    41    1
    29   114   111    1
    30   112   111    1
    31   112   113    2
    32    43    46    1
    33    43    44    1
    34    46    47    1
    35    49    47   am
    36    44    45    2
    37   111   110    1
    38   116   117    1
    39    47    48    2
    40    65    63    1
    41    15    14    1
    42    96    93    1
    43    64    63    1
    44    14    13    1
    45    63    60    1
    46    13    12    1
    47     6     5    1
    48    54    55    1
    49    54    51    1
    50     5     2    1
    51    93    92    1
    52    93    94    1
    53    59    60    1
    54    59    52   am
    55    53    52    2
    56    58    56   ar
    57    55    56    1
    58    60    61    1
    59    95    94    2
    60    12    11    1
    61    52    51    1
    62    56    57   ar
    63    94    97   am
    64    11     8    1
    65    82    80   am
    66    51    50    1
    67   100    99    2
    68    97    98    1
    69     2     3    1
    70     2     1    1
    71    74    72   ar
    72     4     3    2
    73    61    62    2
    74    61    66   am
    75    80    81    2
    76    80    79    1
    77    98    99    1
    78    99   101   am
    79    10     9    2
    80     8     9    1
    81     8     7    1
    82   106   107    1
    83   106   105    1
    84    79    76    1
    85    66    67    1
    86    72    73   ar
    87    72    71    1
    88   101   102    1
    89   107   108   ar
    90   107   109   ar
    91   102   105    1
    92   102   103    1
    93    71    70    1
    94    67    70    1
    95    67    68    1
    96   103   104    2
    97    76    75    1
    98    76    77    1
    99    78    77    2
   100    77    83   am
   101    68    69    2
   102    83    84    1
   103    84    87    1
   104    84    85    1
   105    88    87    1
   106    88    89    1
   107    86    85    2
   108    90    89   ar
   109    89    91   ar
