@<TRIPOS>MOLECULE
tmp/3mxsA00.pdb
 117 109 0 0 0
SMALL
GASTEIGER

@<TRIPOS>ATOM
      1  N         33.3850   60.3930    8.4460 N.3    45  SER45      -0.1217
      2  CA        32.8560   59.2580    7.7030 C.3    45  SER45       0.1889
      3  C         33.4190   57.9300    8.1750 C.2    45  SER45       0.2288
      4  O         32.9580   56.8780    7.7330 O.2    45  SER45      -0.2866
      5  CB        33.0910   59.4190    6.2070 C.3    45  SER45       0.2089
      6  OG        32.2300   60.4060    5.6610 O.3    45  SER45      -0.2183
      7  N         30.9440   55.2240    9.2620 N.3    48  LYS48      -0.1245
      8  CA        30.2340   54.3620    8.3120 C.3    48  LYS48       0.1561
      9  C         30.5900   52.8830    8.4680 C.2    48  LYS48       0.2260
     10  O         29.7650   52.0220    8.1640 O.2    48  LYS48      -0.2867
     11  CB        30.4270   54.8740    6.8760 C.3    48  LYS48       0.0271
     12  CG        29.6840   56.2060    6.6370 C.3    48  LYS48       0.0035
     13  CD        30.2110   56.9940    5.4810 C.3    48  LYS48       0.0206
     14  CE        29.4330   58.3140    5.3200 C.3    48  LYS48       0.1093
     15  NZ        30.0740   59.2860    4.3750 N.3    48  LYS48      -0.1314
     16  N         24.4740   65.9250    0.1600 N.3    79  ASP79      -0.1225
     17  CA        25.6160   66.0590   -0.7400 C.3    79  ASP79       0.1805
     18  C         26.6100   64.8990   -0.6360 C.2    79  ASP79       0.2597
     19  O         26.6590   64.1840    0.3810 O.2    79  ASP79      -0.2718
     20  CB        26.3550   67.3970   -0.5360 C.3    79  ASP79       0.1424
     21  CG        27.0560   67.9120   -1.8150 C.2    79  ASP79       0.3668
     22  OD1       27.4560   69.0940   -1.8030 O.co2  79  ASP79      -0.2456
     23  OD2       27.2120   67.1940   -2.8310 O.co2  79  ASP79      -0.2456
     24  N         27.4090   64.7690   -1.6910 N.am   80  TYR80      -0.1976
     25  CA        28.3730   63.6950   -1.9300 C.3    80  TYR80       0.1639
     26  C         27.8030   62.3050   -1.8150 C.2    80  TYR80       0.2290
     27  O         28.1240   61.4830   -0.9140 O.2    80  TYR80      -0.2864
     28  CB        29.7230   63.8260   -1.2360 C.3    80  TYR80       0.0560
     29  CG        30.7040   63.0220   -2.0480 C.ar   80  TYR80      -0.0198
     30  CD1       31.0790   63.4530   -3.3200 C.ar   80  TYR80      -0.0009
     31  CD2       31.1810   61.7880   -1.6010 C.ar   80  TYR80      -0.0009
     32  CE1       31.9410   62.7120   -4.1020 C.ar   80  TYR80       0.0417
     33  CE2       32.0490   61.0360   -2.3840 C.ar   80  TYR80       0.0417
     34  CZ        32.4240   61.5090   -3.6290 C.ar   80  TYR80       0.1957
     35  OH        33.2810   60.7800   -4.4200 O.3    80  TYR80      -0.2866
     36  N         32.1750   56.4950    0.3680 N.3   105  SER105     -0.1217
     37  CA        31.7910   57.4770    1.3700 C.3   105  SER105      0.1889
     38  C         30.4360   58.1390    1.0550 C.2   105  SER105      0.2288
     39  O         30.2010   59.2840    1.4420 O.2   105  SER105     -0.2866
     40  CB        32.8860   58.5250    1.6060 C.3   105  SER105      0.2089
     41  OG        32.9280   58.8090    2.9850 O.3   105  SER105     -0.2183
     42  N         27.0690   59.6600    1.2070 N.3   107  ASN107     -0.1240
     43  CA        26.4130   60.1920    2.3810 C.3   107  ASN107      0.1653
     44  C         24.9380   59.8360    2.4570 C.2   107  ASN107      0.2266
     45  O         24.4290   59.5760    3.5490 O.2   107  ASN107     -0.2867
     46  CB        26.5910   61.7010    2.4410 C.3   107  ASN107      0.1155
     47  CG        27.9360   62.1050    3.0030 C.2   107  ASN107      0.2627
     48  OD1       28.4880   61.4200    3.8740 O.2   107  ASN107     -0.2716
     49  ND2       28.4590   63.2300    2.5420 N.am  107  ASN107     -0.0877
     50  N         24.3820   62.6880    8.2920 N.3   141  GLU141     -0.1231
     51  CA        25.1640   63.3550    7.2490 C.3   141  GLU141      0.1699
     52  C         24.3590   64.5320    6.6610 C.2   141  GLU141      0.2593
     53  O         23.1770   64.3820    6.4500 O.2   141  GLU141     -0.2718
     54  CB        25.5650   62.3830    6.1290 C.3   141  GLU141      0.0402
     55  CG        26.6130   61.3410    6.5400 C.3   141  GLU141      0.1161
     56  CD        28.0060   61.8960    6.6900 C.2   141  GLU141      0.3649
     57  OE1       28.9480   61.0870    6.9450 O.co2 141  GLU141     -0.2457
     58  OE2       28.1900   63.1300    6.5690 O.co2 141  GLU141     -0.2457
     59  N         24.9720   65.6930    6.4050 N.am  142  THR142     -0.1939
     60  CA        26.3960   65.9560    6.5580 C.3   142  THR142      0.2028
     61  C         26.7330   66.8140    7.7830 C.2   142  THR142      0.2642
     62  O         27.8980   67.1570    7.9750 O.2   142  THR142     -0.2714
     63  CB        26.9640   66.6840    5.3110 C.3   142  THR142      0.1808
     64  OG1       26.2080   67.8870    5.0800 O.3   142  THR142     -0.2208
     65  CG2       26.8720   65.8230    4.0660 C.3   142  THR142      0.0379
     66  N         25.7440   67.1410    8.6210 N.am  143  GLU143     -0.1976
     67  CA        26.0010   68.0000    9.7890 C.3   143  GLU143      0.1602
     68  C         26.9610   67.3760   10.7790 C.2   143  GLU143      0.2287
     69  O         27.6460   68.0940   11.5040 O.2   143  GLU143     -0.2864
     70  CB        24.7040   68.3600   10.5120 C.3   143  GLU143      0.0415
     71  CG        23.7760   69.2750    9.7250 C.3   143  GLU143      0.1163
     72  CD        23.0010   68.5570    8.6420 C.2   143  GLU143      0.3649
     73  OE1       22.8610   67.3140    8.6960 O.co2 143  GLU143     -0.2457
     74  OE2       22.5220   69.2550    7.7270 O.co2 143  GLU143     -0.2457
     75  N         29.7450   66.3120   10.4240 N.3   145  ASN145     -0.1225
     76  CA        31.1250   66.6950   10.1070 C.3   145  ASN145      0.1785
     77  C         31.5550   68.0910   10.5670 C.2   145  ASN145      0.2597
     78  O         32.6570   68.5410   10.2530 O.2   145  ASN145     -0.2718
     79  CB        31.3400   66.6130    8.6000 C.3   145  ASN145      0.1169
     80  CG        31.0760   65.2460    8.0680 C.2   145  ASN145      0.2627
     81  OD1       31.7990   64.3030    8.3930 O.2   145  ASN145     -0.2716
     82  ND2       30.0440   65.1170    7.2570 N.am  145  ASN145     -0.0877
     83  N         30.6750   68.7840   11.2940 N.am  146  GLU146     -0.1979
     84  CA        30.8720   70.2080   11.5860 C.3   146  GLU146      0.1602
     85  C         32.1080   70.4570   12.4290 C.2   146  GLU146      0.2287
     86  O         32.7630   71.4890   12.2710 O.2   146  GLU146     -0.2864
     87  CB        29.6270   70.7850   12.2720 C.3   146  GLU146      0.0415
     88  CG        29.6120   72.3080   12.3220 C.3   146  GLU146      0.1163
     89  CD        28.3930   72.8700   13.0100 C.2   146  GLU146      0.3649
     90  OE1       28.0930   74.0770   12.7980 O.co2 146  GLU146     -0.2457
     91  OE2       27.7470   72.1280   13.7740 O.co2 146  GLU146     -0.2457
     92  N         36.4990   63.1550    6.4870 N.3   212  ALA212     -0.1231
     93  CA        36.9090   64.5520    6.3740 C.3   212  ALA212      0.1694
     94  C         35.7710   65.4160    6.8910 C.2   212  ALA212      0.2593
     95  O         34.5970   65.1280    6.6520 O.2   212  ALA212     -0.2718
     96  CB        37.2360   64.9320    4.9160 C.3   212  ALA212      0.0304
     97  N         36.1200   66.4630    7.6210 N.am  213  GLY213     -0.1942
     98  CA        35.1380   67.4330    8.0930 C.3   213  GLY213      0.2014
     99  C         35.6940   68.8380    8.1000 C.2   213  GLY213      0.2638
    100  O         36.7250   69.1330    7.4610 O.2   213  GLY213     -0.2714
    101  N         35.0030   69.7120    8.8220 N.am  214  GLU214     -0.1977
    102  CA        35.3880   71.1260    8.8890 C.3   214  GLU214      0.1602
    103  C         36.5070   71.3620    9.9030 C.2   214  GLU214      0.2287
    104  O         36.8740   70.4710   10.6830 O.2   214  GLU214     -0.2864
    105  CB        34.1580   71.9840    9.2070 C.3   214  GLU214      0.0415
    106  CG        33.0630   71.8470    8.1710 C.3   214  GLU214      0.1163
    107  CD        31.8800   72.7670    8.4260 C.2   214  GLU214      0.3649
    108  OE1       30.7680   72.2630    8.6630 O.co2 214  GLU214     -0.2457
    109  OE2       32.0640   73.9990    8.3850 O.co2 214  GLU214     -0.2457
    110  N         44.1420   70.3200    2.9760 N.3   245  MET245     -0.1245
    111  CA        43.8700   68.8840    2.8420 C.3   245  MET245      0.1570
    112  C         45.1390   68.1340    2.4330 C.2   245  MET245      0.2261
    113  O         45.4300   67.0570    2.9500 O.2   245  MET245     -0.2867
    114  CB        42.7630   68.6510    1.8190 C.3   245  MET245      0.0387
    115  CG        42.4360   67.1510    1.6090 C.3   245  MET245      0.0595
    116  SD        41.8880   66.2920    3.0810 S.3   245  MET245     -0.1393
    117  CE        40.2650   66.9620    3.2470 C.3   245  MET245      0.0692
@<TRIPOS>BOND
     1    35    34    1
     2    32    34   ar
     3    32    30   ar
     4    34    33   ar
     5    30    29   ar
     6    23    21   ar
     7    33    31   ar
     8    29    31   ar
     9    29    28    1
    10    25    26    1
    11    25    24    1
    12    25    28    1
    13    21    22   ar
    14    21    20    1
    15    26    27    2
    16    24    18   am
    17    17    18    1
    18    17    20    1
    19    17    16    1
    20    18    19    2
    21    36    37    1
    22    38    37    1
    23    38    39    2
    24    42    43    1
    25    37    40    1
    26    40    41    1
    27   115   114    1
    28   115   116    1
    29   114   111    1
    30    43    46    1
    31    43    44    1
    32   112   111    1
    33   112   113    2
    34    46    47    1
    35    44    45    2
    36    49    47   am
    37   111   110    1
    38    47    48    2
    39   116   117    1
    40    65    63    1
    41    15    14    1
    42    96    93    1
    43    64    63    1
    44    63    60    1
    45    14    13    1
    46    13    12    1
    47     6     5    1
    48    54    55    1
    49    54    51    1
    50     5     2    1
    51    93    92    1
    52    93    94    1
    53    59    60    1
    54    59    52   am
    55    53    52    2
    56    55    56    1
    57    60    61    1
    58    58    56   ar
    59    12    11    1
    60    95    94    2
    61    52    51    1
    62    56    57   ar
    63    11     8    1
    64    94    97   am
    65    51    50    1
    66    82    80   am
    67   100    99    2
    68    97    98    1
    69     2     3    1
    70     2     1    1
    71    74    72   ar
    72     4     3    2
    73    61    62    2
    74    61    66   am
    75    80    81    2
    76    80    79    1
    77    98    99    1
    78    99   101   am
    79    10     9    2
    80   106   107    1
    81   106   105    1
    82     8     9    1
    83     8     7    1
    84   109   107   ar
    85   107   108   ar
    86    79    76    1
    87    66    67    1
    88    72    73   ar
    89    72    71    1
    90   101   102    1
    91   102   105    1
    92   102   103    1
    93    71    70    1
    94    67    70    1
    95    67    68    1
    96   103   104    2
    97    76    75    1
    98    76    77    1
    99    78    77    2
   100    77    83   am
   101    68    69    2
   102    83    84    1
   103    84    87    1
   104    84    85    1
   105    86    85    2
   106    87    88    1
   107    88    89    1
   108    90    89   ar
   109    89    91   ar
