@<TRIPOS>MOLECULE
tmp/3mxyA00.pdb
 143 139 0 0 0
SMALL
GASTEIGER

@<TRIPOS>ATOM
      1  N         42.8110    3.0000   21.0290 N.3    16  ARG16      -0.1245
      2  CA        42.2290    2.9240   19.6920 C.3    16  ARG16       0.1563
      3  C         42.9290    1.8060   18.9200 C.2    16  ARG16       0.2260
      4  O         42.3390    1.1640   18.0570 O.2    16  ARG16      -0.2867
      5  CB        42.4290    4.2760   19.0000 C.3    16  ARG16       0.0307
      6  CG        41.9120    4.4160   17.5730 C.3    16  ARG16       0.0489
      7  CD        42.1900    5.8420   17.0850 C.3    16  ARG16       0.2205
      8  NE        42.0400    5.9990   15.6420 N.pl3  16  ARG16      -0.0865
      9  CZ        41.2110    6.8650   15.0580 C.cat  16  ARG16       0.5346
     10  NH1       40.4390    7.6650   15.7930 N.pl3  16  ARG16       0.1354
     11  NH2       41.1600    6.9360   13.7300 N.pl3  16  ARG16       0.1354
     12  N         34.0970    2.6900   23.2950 N.3    35  ARG35      -0.1245
     13  CA        35.2540    2.8090   24.1700 C.3    35  ARG35       0.1563
     14  C         35.3540    4.2240   24.6950 C.2    35  ARG35       0.2260
     15  O         34.8290    5.1610   24.0880 O.2    35  ARG35      -0.2867
     16  CB        36.5430    2.4310   23.4250 C.3    35  ARG35       0.0307
     17  CG        36.8740    3.3120   22.2260 C.3    35  ARG35       0.0489
     18  CD        38.0000    2.7160   21.3750 C.3    35  ARG35       0.2205
     19  NE        38.1370    3.4030   20.0910 N.pl3  35  ARG35      -0.0865
     20  CZ        38.6730    4.6080   19.9340 C.cat  35  ARG35       0.5346
     21  NH1       39.1400    5.2720   20.9820 N.pl3  35  ARG35       0.1354
     22  NH2       38.7230    5.1610   18.7280 N.pl3  35  ARG35       0.1354
     23  N         37.3750    7.2710   25.0870 N.3    37  SER37      -0.1202
     24  CA        38.5240    7.8960   24.4460 C.3    37  SER37       0.2020
     25  C         39.6070    8.3170   25.4260 C.2    37  SER37       0.2619
     26  O         39.3060    8.8180   26.5060 O.2    37  SER37      -0.2717
     27  CB        38.0600    9.1240   23.6550 C.3    37  SER37       0.2103
     28  OG        39.1560    9.7980   23.0580 O.3    37  SER37      -0.2182
     29  N         40.8700    8.1020   25.0660 N.am   38  GLU38      -0.1965
     30  CA        41.9430    8.5390   25.9470 C.3    38  GLU38       0.1733
     31  C         42.5720    9.8140   25.4100 C.2    38  GLU38       0.2617
     32  O         43.5170   10.3460   25.9880 O.2    38  GLU38      -0.2715
     33  CB        42.9930    7.4340   26.1820 C.3    38  GLU38       0.0429
     34  CG        43.5300    6.6730   24.9910 C.3    38  GLU38       0.1163
     35  CD        44.2410    5.3960   25.4250 C.2    38  GLU38       0.3649
     36  OE1       44.9040    4.7540   24.5840 O.co2  38  GLU38      -0.2457
     37  OE2       44.1290    5.0260   26.6140 O.co2  38  GLU38      -0.2457
     38  N         42.0050   10.3150   24.3140 N.am   39  SER39      -0.1950
     39  CA        42.4690   11.5480   23.6860 C.3    39  SER39       0.1924
     40  C         41.8470   12.7480   24.3990 C.2    39  SER39       0.2314
     41  O         42.3450   13.8640   24.2930 O.2    39  SER39      -0.2863
     42  CB        42.0900   11.5690   22.1970 C.3    39  SER39       0.2116
     43  OG        40.6850   11.5170   22.0080 O.3    39  SER39      -0.2180
     44  N         33.9950    6.8320   21.9480 N.3    45  SER45      -0.1217
     45  CA        34.2370    6.5940   20.5370 C.3    45  SER45       0.1889
     46  C         33.5840    5.2750   20.1640 C.2    45  SER45       0.2288
     47  O         33.4840    4.3620   20.9870 O.2    45  SER45      -0.2866
     48  CB        35.7400    6.5250   20.2440 C.3    45  SER45       0.2089
     49  OG        36.3380    7.8020   20.3490 O.3    45  SER45      -0.2183
     50  N         36.5170    1.3090   11.2960 N.3    55  GLN55      -0.1231
     51  CA        36.1530    2.7190   11.2690 C.3    55  GLN55       0.1698
     52  C         35.8680    3.2350   12.6790 C.2    55  GLN55       0.2592
     53  O         35.3070    2.5270   13.5140 O.2    55  GLN55      -0.2718
     54  CB        34.9340    2.9270   10.3660 C.3    55  GLN55       0.0381
     55  CG        35.2810    2.9510    8.8780 C.3    55  GLN55       0.0905
     56  CD        34.0630    2.8900    7.9870 C.2    55  GLN55       0.2608
     57  OE1       32.9810    3.3290    8.3630 O.2    55  GLN55      -0.2717
     58  NE2       34.2360    2.3550    6.7900 N.am   55  GLN55      -0.0878
     59  N         36.2670    4.4740   12.9350 N.am   56  HIS56      -0.1962
     60  CA        36.0780    5.0960   14.2340 C.3    56  HIS56       0.1787
     61  C         35.1650    6.2960   14.1200 C.2    56  HIS56       0.2620
     62  O         35.3900    7.1660   13.2840 O.2    56  HIS56      -0.2715
     63  CB        37.4250    5.5440   14.7970 C.3    56  HIS56       0.0785
     64  CG        38.4090    4.4290   14.9520 C.ar   56  HIS56       0.0821
     65  ND1       38.3300    3.5060   15.9730 N.ar   56  HIS56      -0.2267
     66  CD2       39.4640    4.0590   14.1870 C.ar   56  HIS56       0.1154
     67  CE1       39.2950    2.6140   15.8290 C.ar   56  HIS56       0.1986
     68  NE2       39.9960    2.9260   14.7530 N.ar   56  HIS56      -0.2212
     69  N         34.1370    6.3300   14.9640 N.am   57  PHE57      -0.1960
     70  CA        33.1750    7.4270   14.9920 C.3    57  PHE57       0.1771
     71  C         33.2490    8.1190   16.3440 C.2    57  PHE57       0.2619
     72  O         33.2880    7.4580   17.3770 O.2    57  PHE57      -0.2715
     73  CB        31.7490    6.9050   14.7990 C.3    57  PHE57       0.0574
     74  CG        31.5260    6.2320   13.4850 C.ar   57  PHE57      -0.0200
     75  CD1       31.9650    4.9310   13.2740 C.ar   57  PHE57      -0.0042
     76  CD2       30.9230    6.9200   12.4360 C.ar   57  PHE57      -0.0042
     77  CE1       31.8120    4.3230   12.0370 C.ar   57  PHE57      -0.0003
     78  CE2       30.7670    6.3170   11.1920 C.ar   57  PHE57      -0.0003
     79  CZ        31.2150    5.0150   10.9940 C.ar   57  PHE57      -0.0000
     80  N         33.2640    9.4440   16.3480 N.am   58  LYS58      -0.1977
     81  CA        33.3070   10.1580   17.6130 C.3    58  LYS58       0.1596
     82  C         31.8930   10.4140   18.0960 C.2    58  LYS58       0.2287
     83  O         31.0520   10.8890   17.3380 O.2    58  LYS58      -0.2864
     84  CB        34.0420   11.4920   17.4770 C.3    58  LYS58       0.0298
     85  CG        33.9740   12.3200   18.7510 C.3    58  LYS58       0.0038
     86  CD        35.0040   13.4210   18.7520 C.3    58  LYS58       0.0206
     87  CE        35.5610   13.5910   20.1500 C.3    58  LYS58       0.1093
     88  NZ        35.4700   12.3060   20.8980 N.3    58  LYS58      -0.1314
     89  N         29.4140   12.5520   19.7790 N.3    60  LEU60      -0.1245
     90  CA        29.2910   13.9530   20.1530 C.3    60  LEU60       0.1561
     91  C         28.1590   14.1780   21.1450 C.2    60  LEU60       0.2260
     92  O         27.2730   13.3400   21.2900 O.2    60  LEU60      -0.2867
     93  CB        29.0660   14.7900   18.8970 C.3    60  LEU60       0.0270
     94  CG        30.0710   14.4720   17.7800 C.3    60  LEU60       0.0019
     95  CD1       29.6210   15.1000   16.4760 C.3    60  LEU60       0.0001
     96  CD2       31.4490   14.9670   18.1720 C.3    60  LEU60       0.0001
     97  N         25.8690   11.2070   16.3880 N.3    69  LEU69      -0.1231
     98  CA        26.9830   10.9680   15.4760 C.3    69  LEU69       0.1693
     99  C         26.8620   11.9200   14.2970 C.2    69  LEU69       0.2592
    100  O         27.8520   12.4870   13.8360 O.2    69  LEU69      -0.2718
    101  CB        26.9620    9.5300   14.9420 C.3    69  LEU69       0.0284
    102  CG        27.1500    8.3530   15.9020 C.3    69  LEU69       0.0019
    103  CD1       27.1350    7.0510   15.1030 C.3    69  LEU69       0.0001
    104  CD2       28.4640    8.5020   16.6570 C.3    69  LEU69       0.0001
    105  N         25.6370   12.0850   13.8060 N.am   70  TRP70      -0.1976
    106  CA        25.3890   12.9590   12.6690 C.3    70  TRP70       0.1640
    107  C         24.3580   14.0400   12.9860 C.2    70  TRP70       0.2290
    108  O         24.7270   15.1860   13.2360 O.2    70  TRP70      -0.2864
    109  CB        24.9420   12.1310   11.4600 C.3    70  TRP70       0.0576
    110  CG        25.8850   10.9950   11.1280 C.ar   70  TRP70       0.0006
    111  CD1       25.7720    9.6860   11.5210 C.ar   70  TRP70       0.0946
    112  CD2       27.0720   11.0720   10.3260 C.ar   70  TRP70       0.0152
    113  NE1       26.8140    8.9480   11.0110 N.ar   70  TRP70      -0.2442
    114  CE2       27.6270    9.7730   10.2800 C.ar   70  TRP70       0.0810
    115  CE3       27.7210   12.1130    9.6530 C.ar   70  TRP70       0.0012
    116  CZ2       28.7930    9.4880    9.5690 C.ar   70  TRP70       0.0191
    117  CZ3       28.8790   11.8310    8.9490 C.ar   70  TRP70       0.0001
    118  CH2       29.4080   10.5240    8.9170 C.ar   70  TRP70       0.0015
    119  N         27.2700    4.8140    8.8060 N.3    90  SER90      -0.1202
    120  CA        28.0760    5.4470    7.7680 C.3    90  SER90       0.2020
    121  C         27.2930    6.2340    6.7220 C.2    90  SER90       0.2619
    122  O         26.1490    5.9150    6.4120 O.2    90  SER90      -0.2717
    123  CB        28.9190    4.3830    7.0670 C.3    90  SER90       0.2103
    124  OG        29.6180    4.9270    5.9640 O.3    90  SER90      -0.2182
    125  N         27.9370    7.2650    6.1840 N.am   91  ARG91      -0.1965
    126  CA        27.3550    8.1120    5.1500 C.3    91  ARG91       0.1729
    127  C         27.6120    7.4980    3.7760 C.2    91  ARG91       0.2616
    128  O         26.7460    7.5260    2.9050 O.2    91  ARG91      -0.2715
    129  CB        27.9880    9.5160    5.1650 C.3    91  ARG91       0.0348
    130  CG        27.1070   10.6290    5.7120 C.3    91  ARG91       0.0492
    131  CD        27.3800   11.9750    5.0300 C.3    91  ARG91       0.2205
    132  NE        28.7700   12.4210    5.1100 N.pl3  91  ARG91      -0.0865
    133  CZ        29.1460   13.6100    5.5740 C.cat  91  ARG91       0.5346
    134  NH1       28.2410   14.4800    6.0120 N.pl3  91  ARG91       0.1354
    135  NH2       30.4270   13.9440    5.5830 N.pl3  91  ARG91       0.1354
    136  N         28.8100    6.9420    3.5980 N.am   92  ASN92      -0.1972
    137  CA        29.2300    6.3570    2.3200 C.3    92  ASN92       0.1688
    138  C         28.7700    4.9330    1.9970 C.2    92  ASN92       0.2292
    139  O         28.7020    4.5590    0.8260 O.2    92  ASN92      -0.2864
    140  CB        30.7520    6.4180    2.2080 C.3    92  ASN92       0.1181
    141  CG        31.3040    7.7860    2.5450 C.2    92  ASN92       0.2629
    142  OD1       30.8880    8.7960    1.9710 O.2    92  ASN92      -0.2716
    143  ND2       32.2490    7.8270    3.4780 N.am   92  ASN92      -0.0877
@<TRIPOS>BOND
     1   139   138    2
     2   142   141    2
     3   138   137    1
     4   140   137    1
     5   140   141    1
     6   137   136    1
     7   141   143   am
     8   128   127    2
     9   136   127   am
    10   127   126    1
    11   131   132    1
    12   131   130    1
    13   132   133    2
    14   126   129    1
    15   126   125    1
    16   129   130    1
    17   133   135    1
    18   133   134    1
    19   124   123    1
    20   125   121   am
    21   122   121    2
    22   121   120    1
    23    58    56   am
    24   123   120    1
    25   120   119    1
    26    56    57    2
    27    56    55    1
    28    55    54    1
    29   118   117   ar
    30   118   116   ar
    31   117   115   ar
    32   116   114   ar
    33   115   112   ar
    34   114   112   ar
    35   114   113   ar
    36   112   110   ar
    37    54    51    1
    38    79    78   ar
    39    79    77   ar
    40   113   111   ar
    41   110   109    1
    42   110   111   ar
    43    78    76   ar
    44    51    50    1
    45    51    52    1
    46   109   106    1
    47    77    75   ar
    48    76    74   ar
    49   106   107    1
    50   106   105    1
    51    52    59   am
    52    52    53    2
    53    59    60    1
    54   107   108    2
    55    75    74   ar
    56    62    61    2
    57    74    73    1
    58    11     9    1
    59   105    99   am
    60   100    99    2
    61    61    60    1
    62    61    69   am
    63    66    68   ar
    64    66    64   ar
    65    60    63    1
    66    99    98    1
    67    68    67   ar
    68    63    64    1
    69    73    70    1
    70   101    98    1
    71   101   102    1
    72    64    65   ar
    73    69    70    1
    74    70    71    1
    75     9     8    2
    76     9    10    1
    77   103   102    1
    78    98    97    1
    79     8     7    1
    80    67    65   ar
    81   102   104    1
    82    71    80   am
    83    71    72    2
    84    80    81    1
    85    95    94    1
    86     7     6    1
    87    83    82    2
    88    84    81    1
    89    84    85    1
    90     6     5    1
    91    81    82    1
    92    94    96    1
    93    94    93    1
    94     4     3    2
    95    22    20    1
    96    85    86    1
    97    86    87    1
    98    93    90    1
    99     3     2    1
   100     5     2    1
   101     2     1    1
   102    89    90    1
   103    20    19    2
   104    20    21    1
   105    19    18    1
   106    87    88    1
   107    90    91    1
   108    46    45    1
   109    46    47    2
   110    48    49    1
   111    48    45    1
   112    45    44    1
   113    91    92    2
   114    18    17    1
   115    43    42    1
   116    42    39    1
   117    17    16    1
   118    28    27    1
   119    12    13    1
   120    16    13    1
   121    27    24    1
   122    39    38    1
   123    39    40    1
   124    15    14    2
   125    13    14    1
   126    41    40    2
   127    38    31   am
   128    24    23    1
   129    24    25    1
   130    36    35   ar
   131    34    35    1
   132    34    33    1
   133    29    25   am
   134    29    30    1
   135    31    30    1
   136    31    32    2
   137    35    37   ar
   138    25    26    2
   139    30    33    1
