@<TRIPOS>MOLECULE
tmp/3my0N00.pdb
 193 183 0 0 0
SMALL
GASTEIGER

@<TRIPOS>ATOM
      1  N         67.4960  -96.5690   11.8030 N.3    13  GLU13      -0.1245
      2  CA        66.6050  -97.1810   12.7950 C.3    13  GLU13       0.1567
      3  C         65.1230  -97.0440   12.3920 C.2    13  GLU13       0.2260
      4  O         64.6840  -95.9610   11.9780 O.2    13  GLU13      -0.2867
      5  CB        66.8950  -96.4870   14.1300 C.3    13  GLU13       0.0388
      6  CG        65.8260  -96.4380   15.2140 C.3    13  GLU13       0.1160
      7  CD        66.3760  -95.8020   16.5130 C.2    13  GLU13       0.3649
      8  OE1       67.6090  -95.5710   16.5760 O.co2  13  GLU13      -0.2457
      9  OE2       65.6030  -95.5290   17.4640 O.co2  13  GLU13      -0.2457
     10  N         61.5930  -96.5810   13.5960 N.3    15  VAL15      -0.1231
     11  CA        60.9960  -96.0490   14.8060 C.3    15  VAL15       0.1692
     12  C         59.4770  -96.1180   14.8100 C.2    15  VAL15       0.2592
     13  O         58.8520  -95.7090   15.7910 O.2    15  VAL15      -0.2718
     14  CB        61.4030  -94.5850   15.0200 C.3    15  VAL15       0.0266
     15  CG1       62.9170  -94.4450   15.1450 C.3    15  VAL15       0.0020
     16  CG2       60.8930  -93.7440   13.8910 C.3    15  VAL15       0.0020
     17  N         58.8870  -96.6630   13.7480 N.am   16  GLY16      -0.1957
     18  CA        57.4340  -96.8640   13.6570 C.3    16  GLY16       0.1869
     19  C         57.0460  -97.8120   12.5360 C.2    16  GLY16       0.2309
     20  O         57.7520  -97.8900   11.5100 O.2    16  GLY16      -0.2863
     21  N         58.0140  -95.6980    9.4330 N.3    23  VAL23      -0.1245
     22  CA        58.8340  -94.5040    9.5420 C.3    23  VAL23       0.1561
     23  C         60.1900  -94.8990   10.0830 C.2    23  VAL23       0.2260
     24  O         60.2600  -95.7050   11.0080 O.2    23  VAL23      -0.2867
     25  CB        58.2030  -93.4520   10.4320 C.3    23  VAL23       0.0252
     26  CG1       59.1910  -92.3400   10.6720 C.3    23  VAL23       0.0019
     27  CG2       56.9120  -92.9170    9.7820 C.3    23  VAL23       0.0019
     28  N         63.5370  -87.9180    9.0460 N.3    34  ALA34      -0.1245
     29  CA        62.5360  -88.9920    9.0750 C.3    34  ALA34       0.1562
     30  C         62.2380  -89.4080    7.6360 C.2    34  ALA34       0.2260
     31  O         61.9830  -88.5660    6.8000 O.2    34  ALA34      -0.2867
     32  CB        61.2510  -88.5390    9.7620 C.3    34  ALA34       0.0290
     33  N         59.4750  -91.6830    5.8240 N.3    36  LYS36      -0.1245
     34  CA        58.2550  -92.4820    5.8220 C.3    36  LYS36       0.1561
     35  C         58.1130  -93.2450    4.5090 C.2    36  LYS36       0.2260
     36  O         57.8770  -92.6460    3.4860 O.2    36  LYS36      -0.2867
     37  CB        57.0340  -91.5950    6.0060 C.3    36  LYS36       0.0271
     38  CG        55.7570  -92.3910    6.1410 C.3    36  LYS36       0.0035
     39  CD        54.5780  -91.4800    6.3110 C.3    36  LYS36       0.0206
     40  CE        53.3270  -92.2830    6.5450 C.3    36  LYS36       0.1093
     41  NZ        52.2080  -91.3660    6.8140 N.3    36  LYS36      -0.1314
     42  N         49.9710  -85.9010   -0.0970 N.3    49  GLU49      -0.1245
     43  CA        50.9370  -85.2380    0.7360 C.3    49  GLU49       0.1567
     44  C         52.0630  -84.6270   -0.1060 C.2    49  GLU49       0.2260
     45  O         52.5380  -83.5340    0.2080 O.2    49  GLU49      -0.2867
     46  CB        51.4850  -86.2270    1.7820 C.3    49  GLU49       0.0388
     47  CG        51.9950  -85.5530    3.0800 C.3    49  GLU49       0.1160
     48  CD        52.1310  -86.4980    4.2700 C.2    49  GLU49       0.3649
     49  OE1       51.9210  -87.7220    4.0980 O.co2  49  GLU49      -0.2457
     50  OE2       52.4700  -86.0330    5.3970 O.co2  49  GLU49      -0.2457
     51  N         54.9900  -80.0730   10.3500 N.3    64  LEU64      -0.1245
     52  CA        56.1930  -80.8870   10.0980 C.3    64  LEU64       0.1561
     53  C         56.8930  -80.4380    8.8160 C.2    64  LEU64       0.2260
     54  O         56.2590  -80.3180    7.7830 O.2    64  LEU64      -0.2867
     55  CB        55.8330  -82.3560    9.9560 C.3    64  LEU64       0.0270
     56  CG        56.9670  -83.3330    9.7110 C.3    64  LEU64       0.0019
     57  CD1       57.9400  -83.3130   10.8800 C.3    64  LEU64       0.0001
     58  CD2       56.3970  -84.7360    9.4600 C.3    64  LEU64       0.0001
     59  N         58.5810  -90.3510    1.6890 N.3    82  LEU82      -0.1245
     60  CA        58.4770  -88.9470    2.0880 C.3    82  LEU82       0.1561
     61  C         59.5450  -88.6910    3.1170 C.2    82  LEU82       0.2260
     62  O         59.5670  -89.3640    4.1250 O.2    82  LEU82      -0.2867
     63  CB        57.1160  -88.6580    2.6610 C.3    82  LEU82       0.0270
     64  CG        56.9270  -87.3020    3.3620 C.3    82  LEU82       0.0019
     65  CD1       57.0080  -86.1260    2.4060 C.3    82  LEU82       0.0001
     66  CD2       55.5950  -87.2740    4.0990 C.3    82  LEU82       0.0001
     67  N         61.2610  -85.9750    5.7770 N.3    84  THR84      -0.1203
     68  CA        60.9230  -84.7800    6.5520 C.3    84  THR84       0.1994
     69  C         61.9190  -84.5550    7.6960 C.2    84  THR84       0.2618
     70  O         62.8320  -85.3530    7.9040 O.2    84  THR84      -0.2717
     71  CB        59.5280  -84.9260    7.1910 C.3    84  THR84       0.1784
     72  OG1       59.5770  -85.8740    8.2830 O.3    84  THR84      -0.2211
     73  CG2       58.4960  -85.3650    6.1400 C.3    84  THR84       0.0376
     74  N         61.7550  -83.4650    8.4390 N.am   85  HIS85      -0.1961
     75  CA        62.5250  -83.2840    9.6930 C.3    85  HIS85       0.1787
     76  C         62.2290  -84.4550   10.6150 C.2    85  HIS85       0.2620
     77  O         61.1640  -85.0360   10.5510 O.2    85  HIS85      -0.2715
     78  CB        62.1990  -81.9550   10.4030 C.3    85  HIS85       0.0785
     79  CG        62.6010  -80.7310    9.6320 C.ar   85  HIS85       0.0821
     80  ND1       62.0200  -79.4970    9.8320 N.ar   85  HIS85      -0.2267
     81  CD2       63.5170  -80.5580    8.6450 C.ar   85  HIS85       0.1154
     82  CE1       62.5780  -78.6120    9.0260 C.ar   85  HIS85       0.1986
     83  NE2       63.4920  -79.2280    8.2940 N.ar   85  HIS85      -0.2212
     84  N         63.1850  -84.8030   11.4590 N.am   86  TYR86      -0.1960
     85  CA        63.0240  -85.8630   12.4450 C.3    86  TYR86       0.1771
     86  C         62.9420  -85.2490   13.7960 C.2    86  TYR86       0.2620
     87  O         63.7230  -84.3440   14.0690 O.2    86  TYR86      -0.2715
     88  CB        64.2380  -86.7770   12.4290 C.3    86  TYR86       0.0574
     89  CG        64.1660  -87.9010   13.4140 C.ar   86  TYR86      -0.0198
     90  CD1       63.3150  -88.9720   13.2070 C.ar   86  TYR86      -0.0009
     91  CD2       64.9800  -87.9100   14.5480 C.ar   86  TYR86      -0.0009
     92  CE1       63.2750  -90.0360   14.1080 C.ar   86  TYR86       0.0417
     93  CE2       64.9460  -88.9640   15.4760 C.ar   86  TYR86       0.0417
     94  CZ        64.1000  -90.0080   15.2580 C.ar   86  TYR86       0.1957
     95  OH        64.0630  -91.0100   16.1820 O.3    86  TYR86      -0.2866
     96  N         62.0170  -85.7480   14.6240 N.am   87  HIS87      -0.1959
     97  CA        61.8340  -85.3200   15.9940 C.3    87  HIS87       0.1787
     98  C         61.9320  -86.5060   16.9490 C.2    87  HIS87       0.2620
     99  O         61.1090  -87.3980   16.9000 O.2    87  HIS87      -0.2715
    100  CB        60.4920  -84.5950   16.1500 C.3    87  HIS87       0.0785
    101  CG        60.4020  -83.3410   15.3360 C.ar   87  HIS87       0.0821
    102  ND1       59.5330  -83.1660   14.2690 N.ar   87  HIS87      -0.2267
    103  CD2       61.1160  -82.2070   15.4150 C.ar   87  HIS87       0.1154
    104  CE1       59.6960  -81.9650   13.7580 C.ar   87  HIS87       0.1986
    105  NE2       60.6620  -81.3660   14.4250 N.ar   87  HIS87      -0.2212
    106  N         62.9430  -86.4650   17.8320 N.am   88  GLU88      -0.1963
    107  CA        63.3350  -87.5890   18.6860 C.3    88  GLU88       0.1733
    108  C         62.2550  -88.0750   19.6240 C.2    88  GLU88       0.2616
    109  O         62.1270  -89.2820   19.8120 O.2    88  GLU88      -0.2715
    110  CB        64.5620  -87.2280   19.5290 C.3    88  GLU88       0.0429
    111  CG        65.8740  -87.1820   18.7850 C.3    88  GLU88       0.1163
    112  CD        67.0820  -87.0770   19.7200 C.2    88  GLU88       0.3649
    113  OE1       66.9390  -87.3460   20.9320 O.co2  88  GLU88      -0.2457
    114  OE2       68.1900  -86.7240   19.2360 O.co2  88  GLU88      -0.2457
    115  N         61.5110  -87.1420   20.2310 N.am   89  HIS89      -0.1959
    116  CA        60.4420  -87.4910   21.1960 C.3    89  HIS89       0.1787
    117  C         59.3360  -88.2740   20.5520 C.2    89  HIS89       0.2621
    118  O         58.5430  -88.8690   21.2780 O.2    89  HIS89      -0.2715
    119  CB        59.8290  -86.2500   21.9090 C.3    89  HIS89       0.0785
    120  CG        60.7780  -85.5810   22.8580 C.ar   89  HIS89       0.0821
    121  ND1       60.4950  -84.4750   23.6840 N.ar   89  HIS89      -0.2267
    122  CD2       62.1040  -85.9430   23.0690 C.ar   89  HIS89       0.1154
    123  CE1       61.6250  -84.1700   24.3330 C.ar   89  HIS89       0.1986
    124  NE2       62.5860  -85.0940   24.0330 N.ar   89  HIS89      -0.2212
    125  N         59.2770  -88.2970   19.2130 N.am   90  GLY90      -0.1940
    126  CA        58.2500  -89.0180   18.5000 C.3    90  GLY90       0.2014
    127  C         56.9700  -88.2330   18.5500 C.2    90  GLY90       0.2639
    128  O         57.0130  -87.0150   18.6170 O.2    90  GLY90      -0.2714
    129  N         55.8340  -88.9330   18.4650 N.am   91  SER91      -0.1949
    130  CA        54.5080  -88.3080   18.4640 C.3    91  SER91       0.1924
    131  C         54.0440  -87.9160   19.8510 C.2    91  SER91       0.2314
    132  O         54.6100  -88.3230   20.8400 O.2    91  SER91      -0.2863
    133  CB        53.4790  -89.2590   17.8450 C.3    91  SER91       0.2116
    134  OG        53.5530  -90.5500   18.4410 O.3    91  SER91      -0.2180
    135  N         53.3260  -90.9230   21.7600 N.3    94  ASP94      -0.1239
    136  CA        54.5460  -91.4960   22.3460 C.3    94  ASP94       0.1674
    137  C         54.9790  -90.7360   23.5760 C.2    94  ASP94       0.2266
    138  O         55.2780  -91.3410   24.6010 O.2    94  ASP94      -0.2867
    139  CB        55.6770  -91.4830   21.3040 C.3    94  ASP94       0.1410
    140  CG        55.3970  -92.4010   20.1520 C.2    94  ASP94       0.3668
    141  OD1       55.0750  -93.5620   20.4140 O.co2  94  ASP94      -0.2456
    142  OD2       55.4730  -91.9740   18.9940 O.co2  94  ASP94      -0.2456
    143  N         55.1620  -91.9290   28.0600 N.3    98  ARG98      -0.1245
    144  CA        56.2870  -92.0040   29.0080 C.3    98  ARG98       0.1563
    145  C         56.3590  -90.8440   29.9810 C.2    98  ARG98       0.2260
    146  O         56.8230  -91.0110   31.0750 O.2    98  ARG98      -0.2867
    147  CB        57.6490  -92.0850   28.2730 C.3    98  ARG98       0.0307
    148  CG        57.7590  -91.5330   26.8350 C.3    98  ARG98       0.0489
    149  CD        59.2140  -91.6280   26.3120 C.3    98  ARG98       0.2205
    150  NE        59.8320  -90.3120   26.0460 N.pl3  98  ARG98      -0.0865
    151  CZ        59.7210  -89.6150   24.9130 C.cat  98  ARG98       0.5346
    152  NH1       60.2960  -88.4330   24.8220 N.pl3  98  ARG98       0.1354
    153  NH2       59.0180  -90.0630   23.8790 N.pl3  98  ARG98       0.1354
    154  N         48.6500  -89.1840   17.4050 N.3   141  ARG141     -0.1231
    155  CA        49.7100  -89.8710   16.6340 C.3   141  ARG141      0.1694
    156  C         50.1860  -89.0690   15.4450 C.2   141  ARG141      0.2592
    157  O         51.2550  -89.3600   14.9240 O.2   141  ARG141     -0.2718
    158  CB        49.2430  -91.2540   16.1530 C.3   141  ARG141      0.0321
    159  CG        49.3670  -92.3380   17.2190 C.3   141  ARG141      0.0489
    160  CD        49.4860  -93.6760   16.5980 C.3   141  ARG141      0.2205
    161  NE        49.0260  -94.7050   17.5020 N.pl3 141  ARG141     -0.0865
    162  CZ        48.2850  -95.7570   17.1500 C.cat 141  ARG141      0.5346
    163  NH1       47.9210  -96.6300   18.0860 N.pl3 141  ARG141      0.1354
    164  NH2       47.8830  -95.9480   15.8830 N.pl3 141  ARG141      0.1354
    165  N         49.4070  -88.0740   15.0100 N.am  142  ASN142     -0.1974
    166  CA        49.8040  -87.2260   13.8700 C.3   142  ASN142      0.1688
    167  C         50.2820  -85.8540   14.2930 C.2   142  ASN142      0.2292
    168  O         50.2760  -84.9200   13.4870 O.2   142  ASN142     -0.2864
    169  CB        48.6340  -87.0700   12.8710 C.3   142  ASN142      0.1181
    170  CG        48.4190  -88.3080   12.0000 C.2   142  ASN142      0.2629
    171  OD1       49.3440  -89.0770   11.7050 O.2   142  ASN142     -0.2716
    172  ND2       47.1700  -88.5090   11.6080 N.am  142  ASN142     -0.0877
    173  N         53.6650  -84.2840   16.3440 N.3   144  LEU144     -0.1245
    174  CA        55.0090  -84.5980   16.8650 C.3   144  LEU144      0.1561
    175  C         55.3750  -83.6330   17.9660 C.2   144  LEU144      0.2260
    176  O         54.8660  -82.5260   17.9610 O.2   144  LEU144     -0.2867
    177  CB        56.0410  -84.5400   15.7500 C.3   144  LEU144      0.0270
    178  CG        55.8900  -85.7450   14.8210 C.3   144  LEU144      0.0019
    179  CD1       56.0980  -85.3470   13.3620 C.3   144  LEU144      0.0001
    180  CD2       56.8500  -86.8280   15.2530 C.3   144  LEU144      0.0001
    181  N         51.5530  -83.3120   11.5890 N.3   154  ALA154     -0.1231
    182  CA        52.0010  -84.1290   10.4650 C.3   154  ALA154      0.1694
    183  C         50.8440  -84.8130    9.7500 C.2   154  ALA154      0.2592
    184  O         49.6990  -84.6730   10.1290 O.2   154  ALA154     -0.2718
    185  CB        52.9780  -85.1490   10.9120 C.3   154  ALA154      0.0304
    186  N         51.1880  -85.5110    8.6690 N.am  155  ASP155     -0.1974
    187  CA        50.2980  -86.3800    7.8870 C.3   155  ASP155      0.1709
    188  C         49.1950  -85.6050    7.2360 C.2   155  ASP155      0.2293
    189  O         48.0850  -85.5420    7.7800 O.2   155  ASP155     -0.2864
    190  CB        49.7260  -87.4930    8.7680 C.3   155  ASP155      0.1436
    191  CG        48.9680  -88.5560    7.9810 C.2   155  ASP155      0.3671
    192  OD1       48.4390  -89.5200    8.5880 O.co2 155  ASP155     -0.2456
    193  OD2       48.8910  -88.4310    6.7610 O.co2 155  ASP155     -0.2456
@<TRIPOS>BOND
     1    44    45    2
     2    44    43    1
     3    42    43    1
     4    43    46    1
     5    59    60    1
     6    46    47    1
     7    60    63    1
     8    60    61    1
     9    65    64    1
    10    63    64    1
    11    47    48    1
    12    61    62    2
    13    64    66    1
    14    36    35    2
    15    49    48   ar
    16    48    50   ar
    17    35    34    1
    18    67    68    1
    19    34    33    1
    20    34    37    1
    21    37    38    1
    22    73    71    1
    23    38    39    1
    24    39    40    1
    25    40    41    1
    26    68    71    1
    27    68    69    1
    28   193   191   ar
    29    31    30    2
    30    71    72    1
    31   188   189    2
    32   188   187    1
    33    30    29    1
    34    69    70    2
    35    69    74   am
    36    54    53    2
    37   187   186    1
    38   187   190    1
    39   191   192   ar
    40   191   190    1
    41    83    81   ar
    42    83    82   ar
    43    74    75    1
    44    81    79   ar
    45   186   183   am
    46    53    52    1
    47    82    80   ar
    48    28    29    1
    49    29    32    1
    50    21    22    1
    51    58    56    1
    52    22    23    1
    53    22    25    1
    54    79    80   ar
    55    79    78    1
    56    75    78    1
    57    75    76    1
    58    56    55    1
    59    56    57    1
    60   183   184    2
    61   183   182    1
    62    27    25    1
    63    55    52    1
    64    23    24    2
    65    52    51    1
    66    25    26    1
    67   182   185    1
    68   182   181    1
    69    77    76    2
    70    76    84   am
    71    84    85    1
    72    20    19    2
    73   172   170   am
    74   171   170    2
    75     1     2    1
    76     4     3    2
    77   170   169    1
    78     3     2    1
    79    88    85    1
    80    88    89    1
    81    85    86    1
    82    19    18    1
    83     2     5    1
    84   169   166    1
    85    90    89   ar
    86    90    92   ar
    87   179   178    1
    88    89    91   ar
    89   168   167    2
    90    10    11    1
    91    18    17    1
    92    17    12   am
    93   104   102   ar
    94   104   105   ar
    95    86    87    2
    96    86    96   am
    97   166   167    1
    98   166   165    1
    99    16    14    1
   100    92    94   ar
   101     5     6    1
   102   102   101   ar
   103   105   103   ar
   104    91    93   ar
   105    96    97    1
   106    11    12    1
   107    11    14    1
   108    12    13    2
   109   178   180    1
   110   178   177    1
   111   157   156    2
   112   165   156   am
   113    14    15    1
   114     6     7    1
   115    94    93   ar
   116    94    95    1
   117   101   103   ar
   118   101   100    1
   119   156   155    1
   120   177   174    1
   121   164   162    1
   122    97   100    1
   123    97    98    1
   124   158   155    1
   125   158   159    1
   126   173   174    1
   127     7     8   ar
   128     7     9   ar
   129   160   159    1
   130   160   161    1
   131   155   154    1
   132   174   175    1
   133    99    98    2
   134    98   106   am
   135   162   161    2
   136   162   163    1
   137   106   107    1
   138   133   134    1
   139   133   130    1
   140   176   175    2
   141   130   129    1
   142   130   131    1
   143   129   127   am
   144   126   127    1
   145   126   125    1
   146   127   128    2
   147   107   110    1
   148   107   108    1
   149   111   110    1
   150   111   112    1
   151   142   140   ar
   152   125   117   am
   153   114   112   ar
   154   108   109    2
   155   108   115   am
   156   112   113   ar
   157   131   132    2
   158   140   141   ar
   159   140   139    1
   160   115   116    1
   161   117   116    1
   162   117   118    2
   163   116   119    1
   164   139   136    1
   165   135   136    1
   166   119   120    1
   167   136   137    1
   168   120   122   ar
   169   120   121   ar
   170   122   124   ar
   171   137   138    2
   172   121   123   ar
   173   153   151    1
   174   124   123   ar
   175   152   151    1
   176   151   150    2
   177   150   149    1
   178   149   148    1
   179   148   147    1
   180   143   144    1
   181   147   144    1
   182   144   145    1
   183   145   146    2
