@<TRIPOS>MOLECULE
tmp/3my0X00.pdb
 187 179 0 0 0
SMALL
GASTEIGER

@<TRIPOS>ATOM
      1  N         58.2930  -85.5610   71.7330 N.3    14  VAL14      -0.1245
      2  CA        58.8510  -85.9670   70.4470 C.3    14  VAL14       0.1561
      3  C         59.2670  -87.4430   70.4190 C.2    14  VAL14       0.2260
      4  O         59.7540  -87.9320   69.3980 O.2    14  VAL14      -0.2867
      5  CB        60.0560  -85.0830   70.0720 C.3    14  VAL14       0.0252
      6  CG1       59.6280  -83.6220   70.0050 C.3    14  VAL14       0.0019
      7  CG2       61.1990  -85.2730   71.0630 C.3    14  VAL14       0.0019
      8  N         60.8080  -88.6160   75.6750 N.3    22  VAL22      -0.1245
      9  CA        61.6400  -87.4370   75.4590 C.3    22  VAL22       0.1561
     10  C         60.7480  -86.2880   75.0090 C.2    22  VAL22       0.2260
     11  O         59.8870  -86.4590   74.1410 O.2    22  VAL22      -0.2867
     12  CB        62.7490  -87.6920   74.4260 C.3    22  VAL22       0.0252
     13  CG1       63.5030  -86.4040   74.1220 C.3    22  VAL22       0.0019
     14  CG2       63.7050  -88.7530   74.9400 C.3    22  VAL22       0.0019
     15  N         66.2910  -80.8070   75.3830 N.3    33  ALA33      -0.1245
     16  CA        65.6340  -82.1130   75.4350 C.3    33  ALA33       0.1562
     17  C         65.4840  -82.5130   76.8920 C.2    33  ALA33       0.2260
     18  O         66.4280  -82.3860   77.6660 O.2    33  ALA33      -0.2867
     19  CB        66.4510  -83.1560   74.6940 C.3    33  ALA33       0.0290
     20  N         64.4900  -85.8550   78.8770 N.3    35  LYS35      -0.1245
     21  CA        64.1470  -87.2710   78.9310 C.3    35  LYS35       0.1561
     22  C         63.6050  -87.6480   80.3060 C.2    35  LYS35       0.2260
     23  O         64.3440  -87.6480   81.2930 O.2    35  LYS35      -0.2867
     24  CB        65.3620  -88.1340   78.6110 C.3    35  LYS35       0.0271
     25  CG        65.0280  -89.6110   78.4980 C.3    35  LYS35       0.0035
     26  CD        66.2550  -90.4200   78.1540 C.3    35  LYS35       0.0206
     27  CE        65.9090  -91.8820   77.9490 C.3    35  LYS35       0.1093
     28  NZ        67.1090  -92.6830   77.5800 N.3    35  LYS35      -0.1314
     29  N         73.7140  -92.7960   83.8550 N.3    48  GLU48      -0.1245
     30  CA        73.9230  -91.6720   82.9540 C.3    48  GLU48       0.1567
     31  C         74.2050  -90.3970   83.7540 C.2    48  GLU48       0.2260
     32  O         75.0290  -89.5780   83.3500 O.2    48  GLU48      -0.2867
     33  CB        72.7100  -91.4960   82.0290 C.3    48  GLU48       0.0388
     34  CG        73.0470  -90.8130   80.7090 C.3    48  GLU48       0.1160
     35  CD        72.0000  -91.0170   79.6170 C.2    48  GLU48       0.3649
     36  OE1       70.9600  -91.6680   79.8760 O.co2  48  GLU48      -0.2457
     37  OE2       72.2290  -90.5230   78.4850 O.co2  48  GLU48      -0.2457
     38  N         76.3330  -86.1860   72.9850 N.3    63  LEU63      -0.1245
     39  CA        75.2040  -85.3400   73.3660 C.3    63  LEU63       0.1561
     40  C         75.5580  -84.5040   74.5910 C.2    63  LEU63       0.2260
     41  O         76.0290  -85.0370   75.6060 O.2    63  LEU63      -0.2867
     42  CB        73.9530  -86.1800   73.6420 C.3    63  LEU63       0.0270
     43  CG        72.6770  -85.4100   74.0190 C.3    63  LEU63       0.0019
     44  CD1       72.2080  -84.4870   72.8920 C.3    63  LEU63       0.0001
     45  CD2       71.5690  -86.3740   74.4100 C.3    63  LEU63       0.0001
     46  N         66.5010  -86.2010   82.8050 N.3    74  LEU74      -0.1245
     47  CA        67.8080  -85.8620   82.2500 C.3    74  LEU74       0.1561
     48  C         67.5680  -84.7850   81.2030 C.2    74  LEU74       0.2260
     49  O         66.8140  -85.0040   80.2470 O.2    74  LEU74      -0.2867
     50  CB        68.4620  -87.0860   81.6080 C.3    74  LEU74       0.0270
     51  CG        69.7340  -86.8900   80.7620 C.3    74  LEU74       0.0019
     52  CD1       70.9460  -86.5400   81.6100 C.3    74  LEU74       0.0001
     53  CD2       70.0290  -88.1350   79.9440 C.3    74  LEU74       0.0001
     54  N         69.1900  -82.2360   78.3380 N.3    76  THR76      -0.1203
     55  CA        70.3480  -82.1640   77.4400 C.3    76  THR76       0.1994
     56  C         70.1030  -81.1480   76.3300 C.2    76  THR76       0.2618
     57  O         69.0310  -80.5450   76.2620 O.2    76  THR76      -0.2717
     58  CB        70.6360  -83.5410   76.7940 C.3    76  THR76       0.1784
     59  OG1       69.6300  -83.8430   75.8190 O.3    76  THR76      -0.2211
     60  CG2       70.6720  -84.6480   77.8470 C.3    76  THR76       0.0376
     61  N         71.0930  -80.9510   75.4620 N.am   77  HIS77      -0.1961
     62  CA        70.8670  -80.1860   74.2350 C.3    77  HIS77       0.1787
     63  C         69.7650  -80.8630   73.4050 C.2    77  HIS77       0.2620
     64  O         69.5690  -82.0890   73.4680 O.2    77  HIS77      -0.2715
     65  CB        72.1450  -80.0590   73.3880 C.3    77  HIS77       0.0785
     66  CG        73.2280  -79.2460   74.0310 C.ar   77  HIS77       0.0821
     67  ND1       74.5550  -79.3650   73.6780 N.ar   77  HIS77      -0.2267
     68  CD2       73.1820  -78.3110   75.0090 C.ar   77  HIS77       0.1154
     69  CE1       75.2780  -78.5330   74.4050 C.ar   77  HIS77       0.1986
     70  NE2       74.4690  -77.8820   75.2220 N.ar   77  HIS77      -0.2212
     71  N         69.0400  -80.0550   72.6380 N.am   78  TYR78      -0.1960
     72  CA        67.9840  -80.5620   71.7670 C.3    78  TYR78       0.1771
     73  C         68.4360  -80.4760   70.3180 C.2    78  TYR78       0.2620
     74  O         69.0110  -79.4640   69.9090 O.2    78  TYR78      -0.2715
     75  CB        66.7080  -79.7440   71.9520 C.3    78  TYR78       0.0574
     76  CG        65.5490  -80.1940   71.0840 C.ar   78  TYR78      -0.0198
     77  CD1       64.8630  -81.3710   71.3660 C.ar   78  TYR78      -0.0009
     78  CD2       65.1350  -79.4380   69.9880 C.ar   78  TYR78      -0.0009
     79  CE1       63.7940  -81.7870   70.5770 C.ar   78  TYR78       0.0417
     80  CE2       64.0700  -79.8480   69.1890 C.ar   78  TYR78       0.0417
     81  CZ        63.4010  -81.0240   69.4880 C.ar   78  TYR78       0.1957
     82  OH        62.3370  -81.4420   68.7090 O.3    78  TYR78      -0.2866
     83  N         68.1740  -81.5390   69.5550 N.am   79  HIS79      -0.1959
     84  CA        68.4800  -81.5720   68.1240 C.3    79  HIS79       0.1787
     85  C         67.2300  -81.8780   67.2930 C.2    79  HIS79       0.2620
     86  O         66.6620  -82.9740   67.3770 O.2    79  HIS79      -0.2715
     87  CB        69.5950  -82.5750   67.8470 C.3    79  HIS79       0.0785
     88  CG        70.8810  -82.2170   68.5140 C.ar   79  HIS79       0.0821
     89  ND1       71.4590  -82.9730   69.5090 N.ar   79  HIS79      -0.2267
     90  CD2       71.6850  -81.1470   68.3460 C.ar   79  HIS79       0.1154
     91  CE1       72.5760  -82.3910   69.9110 C.ar   79  HIS79       0.1986
     92  NE2       72.7340  -81.2800   69.2210 N.ar   79  HIS79      -0.2212
     93  N         66.8260  -80.8910   66.4910 N.am   80  GLU80      -0.1963
     94  CA        65.5500  -80.9080   65.7670 C.3    80  GLU80       0.1733
     95  C         65.3760  -82.1100   64.8550 C.2    80  GLU80       0.2616
     96  O         64.2860  -82.6660   64.7800 O.2    80  GLU80      -0.2715
     97  CB        65.3900  -79.6370   64.9220 C.3    80  GLU80       0.0429
     98  CG        65.0850  -78.3670   65.7160 C.3    80  GLU80       0.1163
     99  CD        64.6970  -77.1790   64.8260 C.2    80  GLU80       0.3649
    100  OE1       64.3120  -77.3950   63.6540 O.co2  80  GLU80      -0.2457
    101  OE2       64.7720  -76.0240   65.3020 O.co2  80  GLU80      -0.2457
    102  N         66.4440  -82.4970   64.1570 N.am   81  HIS81      -0.1959
    103  CA        66.3850  -83.6150   63.2060 C.3    81  HIS81       0.1787
    104  C         66.0940  -84.9380   63.8900 C.2    81  HIS81       0.2621
    105  O         65.7020  -85.9010   63.2310 O.2    81  HIS81      -0.2715
    106  CB        67.6760  -83.7160   62.3760 C.3    81  HIS81       0.0785
    107  CG        67.7820  -82.6570   61.3270 C.ar   81  HIS81       0.0821
    108  ND1       68.9740  -82.1750   60.8280 N.ar   81  HIS81      -0.2267
    109  CD2       66.8080  -81.9620   60.7040 C.ar   81  HIS81       0.1154
    110  CE1       68.7210  -81.2370   59.9280 C.ar   81  HIS81       0.1986
    111  NE2       67.4130  -81.0890   59.8370 N.ar   81  HIS81      -0.2212
    112  N         66.2560  -84.9790   65.2080 N.am   82  GLY82      -0.1940
    113  CA        66.0300  -86.1890   65.9540 C.3    82  GLY82       0.2014
    114  C         67.1670  -87.1500   65.7850 C.2    82  GLY82       0.2639
    115  O         68.2880  -86.7380   65.5090 O.2    82  GLY82      -0.2714
    116  N         66.8770  -88.4340   65.9460 N.am   83  SER83      -0.1949
    117  CA        67.8960  -89.4660   65.8080 C.3    83  SER83       0.1924
    118  C         68.2450  -89.7460   64.3490 C.2    83  SER83       0.2314
    119  O         67.5470  -89.3060   63.4270 O.2    83  SER83      -0.2863
    120  CB        67.4400  -90.7620   66.4820 C.3    83  SER83       0.2116
    121  OG        66.1470  -91.1420   66.0460 O.3    83  SER83      -0.2180
    122  N         65.4420  -91.4730   62.7510 N.3    86  ASP86      -0.1239
    123  CA        64.4410  -90.5130   62.2730 C.3    86  ASP86       0.1674
    124  C         64.8630  -89.8470   60.9570 C.2    86  ASP86       0.2266
    125  O         64.0750  -89.7780   60.0140 O.2    86  ASP86      -0.2867
    126  CB        64.1800  -89.4360   63.3410 C.3    86  ASP86       0.1410
    127  CG        63.5130  -89.9920   64.5810 C.2    86  ASP86       0.3668
    128  OD1       62.4910  -90.6910   64.4410 O.co2  86  ASP86      -0.2456
    129  OD2       64.0030  -89.7220   65.6960 O.co2  86  ASP86      -0.2456
    130  N         63.1810  -90.1250   56.6590 N.3    90  ARG90      -0.1245
    131  CA        62.6320  -89.1000   55.7660 C.3    90  ARG90       0.1563
    132  C         63.5850  -88.6580   54.6620 C.2    90  ARG90       0.2260
    133  O         63.1430  -88.3520   53.5520 O.2    90  ARG90      -0.2867
    134  CB        62.2260  -87.8670   56.5790 C.3    90  ARG90       0.0307
    135  CG        61.0870  -88.1830   57.5520 C.3    90  ARG90       0.0489
    136  CD        60.8790  -87.0120   58.5050 C.3    90  ARG90       0.2205
    137  NE        62.1180  -86.6740   59.1980 N.pl3  90  ARG90      -0.0865
    138  CZ        62.2150  -85.9030   60.2680 C.cat  90  ARG90       0.5346
    139  NH1       61.1340  -85.3680   60.8250 N.pl3  90  ARG90       0.1354
    140  NH2       63.4100  -85.6650   60.8000 N.pl3  90  ARG90       0.1354
    141  N         69.1330  -95.2490   66.7150 N.3   128  ARG128     -0.1231
    142  CA        68.2250  -94.5120   67.6010 C.3   128  ARG128      0.1694
    143  C         68.9540  -93.7660   68.7320 C.2   128  ARG128      0.2592
    144  O         68.3930  -92.8390   69.3190 O.2   128  ARG128     -0.2718
    145  CB        67.1750  -95.4560   68.1990 C.3   128  ARG128      0.0321
    146  CG        66.3910  -96.1770   67.1460 C.3   128  ARG128      0.0489
    147  CD        65.2870  -96.9380   67.8020 C.3   128  ARG128      0.2205
    148  NE        64.4290  -97.5630   66.8230 N.pl3 128  ARG128     -0.0865
    149  CZ        64.1050  -98.8370   66.9030 C.cat 128  ARG128      0.5346
    150  NH1       64.5610  -99.5710   67.8980 N.pl3 128  ARG128      0.1354
    151  NH2       63.3470  -99.3750   65.9550 N.pl3 128  ARG128      0.1354
    152  N         70.1910  -94.1680   69.0320 N.am  129  ASN129     -0.1960
    153  CA        71.0080  -93.5090   70.0700 C.3   129  ASN129      0.1819
    154  C         72.0940  -92.5990   69.4900 C.2   129  ASN129      0.2621
    155  O         73.0660  -92.2680   70.1680 O.2   129  ASN129     -0.2715
    156  CB        71.6440  -94.5520   70.9990 C.3   129  ASN129      0.1195
    157  CG        70.6440  -95.1720   71.9630 C.2   129  ASN129      0.2630
    158  OD1       69.6290  -94.5610   72.3330 O.2   129  ASN129     -0.2716
    159  ND2       70.9330  -96.3970   72.3810 N.am  129  ASN129     -0.0877
    160  N         71.9160  -92.2080   68.2310 N.am  130  VAL130     -0.1963
    161  CA        72.7720  -91.2260   67.5720 C.3   130  VAL130      0.1727
    162  C         71.8620  -90.1200   67.0530 C.2   130  VAL130      0.2616
    163  O         70.8950  -90.3950   66.3480 O.2   130  VAL130     -0.2715
    164  CB        73.5340  -91.8470   66.3810 C.3   130  VAL130      0.0290
    165  CG1       74.3290  -90.7840   65.6320 C.3   130  VAL130      0.0023
    166  CG2       74.4450  -92.9680   66.8540 C.3   130  VAL130      0.0023
    167  N         72.1580  -88.8770   67.4180 N.am  131  LEU131     -0.1977
    168  CA        71.3600  -87.7320   66.9800 C.3   131  LEU131      0.1596
    169  C         72.0360  -87.0510   65.7970 C.2   131  LEU131      0.2287
    170  O         73.2520  -87.1580   65.6300 O.2   131  LEU131     -0.2864
    171  CB        71.1780  -86.7420   68.1280 C.3   131  LEU131      0.0297
    172  CG        70.2130  -87.2500   69.2070 C.3   131  LEU131      0.0022
    173  CD1       70.7100  -86.9040   70.6020 C.3   131  LEU131      0.0001
    174  CD2       68.8080  -86.7020   68.9720 C.3   131  LEU131      0.0001
    175  N         74.3380  -90.4920   71.9750 N.3   141  ALA141     -0.1231
    176  CA        73.5600  -90.3200   73.1940 C.3   141  ALA141      0.1694
    177  C         73.3840  -91.6490   73.9430 C.2   141  ALA141      0.2592
    178  O         73.8490  -92.7040   73.4780 O.2   141  ALA141     -0.2718
    179  CB        72.2110  -89.7160   72.8640 C.3   141  ALA141      0.0304
    180  N         72.7270  -91.5620   75.1080 N.am  142  ASP142     -0.1974
    181  CA        72.3130  -92.7150   75.9260 C.3   142  ASP142      0.1709
    182  C         73.4980  -93.5000   76.4940 C.2   142  ASP142      0.2293
    183  O         73.8750  -94.5500   75.9760 O.2   142  ASP142     -0.2864
    184  CB        71.3610  -93.6430   75.1460 C.3   142  ASP142      0.1436
    185  CG        70.7050  -94.7150   76.0350 C.2   142  ASP142      0.3671
    186  OD1       69.8570  -95.4800   75.5180 O.co2 142  ASP142     -0.2456
    187  OD2       71.0330  -94.7940   77.2430 O.co2 142  ASP142     -0.2456
@<TRIPOS>BOND
     1   133   132    2
     2   132   131    1
     3   131   134    1
     4   131   130    1
     5   134   135    1
     6   135   136    1
     7   136   137    1
     8   137   138    2
     9   111   110   ar
    10   111   109   ar
    11   110   108   ar
    12   125   124    2
    13   138   140    1
    14   138   139    1
    15   109   107   ar
    16   108   107   ar
    17   124   123    1
    18   107   106    1
    19   123   122    1
    20   123   126    1
    21   106   103    1
    22   103   104    1
    23   103   102    1
    24   105   104    2
    25   126   127    1
    26   119   118    2
    27   100    99   ar
    28   104   112   am
    29   102    95   am
    30   118   117    1
    31   128   127   ar
    32   127   129   ar
    33    96    95    2
    34    99   101   ar
    35    99    98    1
    36    95    94    1
    37    97    98    1
    38    97    94    1
    39   112   113    1
    40   115   114    2
    41   170   169    2
    42   165   164    1
    43    94    93    1
    44   114   116   am
    45   114   113    1
    46   169   168    1
    47   117   116    1
    48   117   120    1
    49   151   149    1
    50   121   120    1
    51   163   162    2
    52   164   166    1
    53   164   161    1
    54    93    85   am
    55   141   142    1
    56   148   149    2
    57   148   147    1
    58   149   150    1
    59   168   167    1
    60   168   171    1
    61   162   167   am
    62   162   161    1
    63   146   147    1
    64   146   145    1
    65    85    86    2
    66    85    84    1
    67   161   160    1
    68   142   145    1
    69   142   143    1
    70    87    84    1
    71    87    88    1
    72    84    83    1
    73   171   172    1
    74   160   154   am
    75    90    88   ar
    76    90    92   ar
    77    88    89   ar
    78    82    81    1
    79   143   152   am
    80   143   144    2
    81   174   172    1
    82   152   153    1
    83    80    81   ar
    84    80    78   ar
    85   172   173    1
    86    92    91   ar
    87     4     3    2
    88    81    79   ar
    89   154   153    1
    90   154   155    2
    91    89    91   ar
    92    83    73   am
    93    74    73    2
    94    78    76   ar
    95     6     5    1
    96   153   156    1
    97     5     2    1
    98     5     7    1
    99    73    72    1
   100     3     2    1
   101     2     1    1
   102    79    77   ar
   103   156   157    1
   104    76    77   ar
   105    76    75    1
   106    72    75    1
   107    72    71    1
   108   157   158    2
   109   157   159   am
   110   175   176    1
   111    71    63   am
   112   179   176    1
   113    44    43    1
   114    38    39    1
   115   176   177    1
   116    39    42    1
   117    39    40    1
   118    65    66    1
   119    65    62    1
   120    63    64    2
   121    63    62    1
   122   178   177    2
   123    42    43    1
   124    67    66   ar
   125    67    69   ar
   126   177   180   am
   127    43    45    1
   128    66    68   ar
   129    13    12    1
   130    11    10    2
   131    62    61    1
   132    69    70   ar
   133    12    14    1
   134    12     9    1
   135    40    41    2
   136    19    16    1
   137    68    70   ar
   138    10     9    1
   139   180   181    1
   140   184   181    1
   141   184   185    1
   142    15    16    1
   143    16    17    1
   144     9     8    1
   145    61    56   am
   146   186   185   ar
   147    59    58    1
   148   181   182    1
   149   183   182    2
   150   185   187   ar
   151    57    56    2
   152    56    55    1
   153    58    55    1
   154    58    60    1
   155    17    18    2
   156    55    54    1
   157    28    27    1
   158    27    26    1
   159    26    25    1
   160    37    35   ar
   161    25    24    1
   162    24    21    1
   163    20    21    1
   164    21    22    1
   165    35    36   ar
   166    35    34    1
   167    53    51    1
   168    49    48    2
   169    22    23    2
   170    34    33    1
   171    51    50    1
   172    51    52    1
   173    48    47    1
   174    50    47    1
   175    33    30    1
   176    47    46    1
   177    30    31    1
   178    30    29    1
   179    32    31    2
