@<TRIPOS>MOLECULE
tmp/3my1A00.pdb
 151 142 0 0 0
SMALL
GASTEIGER

@<TRIPOS>ATOM
      1  N         56.8210  -20.6480  -18.9540 N.3    20  ILE20      -0.1231
      2  CA        57.1990  -20.5820  -17.5420 C.3    20  ILE20       0.1692
      3  C         56.0290  -20.9640  -16.6400 C.2    20  ILE20       0.2593
      4  O         56.1700  -21.0090  -15.4150 O.2    20  ILE20      -0.2718
      5  CB        57.6280  -19.1640  -17.1370 C.3    20  ILE20       0.0266
      6  CG1       56.4440  -18.2050  -17.2700 C.3    20  ILE20       0.0019
      7  CG2       58.7810  -18.6930  -17.9860 C.3    20  ILE20       0.0020
      8  CD1       56.6220  -16.8920  -16.5450 C.3    20  ILE20       0.0001
      9  N         54.8780  -21.2320  -17.2570 N.am   21  GLY21      -0.1942
     10  CA        53.6230  -21.4180  -16.5400 C.3    21  GLY21       0.2014
     11  C         53.4050  -22.8270  -16.0310 C.2    21  GLY21       0.2638
     12  O         52.3070  -23.3870  -16.1470 O.2    21  GLY21      -0.2714
     13  N         54.4620  -23.3730  -15.4310 N.am   22  GLN22      -0.1977
     14  CA        54.5570  -24.7950  -15.1060 C.3    22  GLN22       0.1601
     15  C         53.4240  -25.3510  -14.2280 C.2    22  GLN22       0.2287
     16  O         52.5120  -24.6240  -13.8110 O.2    22  GLN22      -0.2864
     17  CB        55.9540  -25.1280  -14.5580 C.3    22  GLN22       0.0394
     18  CG        57.0550  -24.9110  -15.6010 C.3    22  GLN22       0.0908
     19  CD        58.4470  -25.2390  -15.0920 C.2    22  GLN22       0.2608
     20  OE1       58.7380  -25.0960  -13.9050 O.2    22  GLN22      -0.2717
     21  NE2       59.3180  -25.6730  -15.9950 N.am   22  GLN22      -0.0878
     22  N         49.9320  -25.7420  -16.5050 N.3    25  PHE25      -0.1227
     23  CA        48.6600  -25.0180  -16.5290 C.3    25  PHE25       0.1736
     24  C         48.7470  -23.5030  -16.6810 C.2    25  PHE25       0.2596
     25  O         49.6690  -22.8590  -16.1820 O.2    25  PHE25      -0.2718
     26  CB        47.7640  -25.4100  -15.3500 C.3    25  PHE25       0.0547
     27  CG        46.8310  -26.5440  -15.6680 C.ar   25  PHE25      -0.0202
     28  CD1       45.5570  -26.2940  -16.1550 C.ar   25  PHE25      -0.0042
     29  CD2       47.2420  -27.8630  -15.5150 C.ar   25  PHE25      -0.0042
     30  CE1       44.7010  -27.3360  -16.4650 C.ar   25  PHE25      -0.0003
     31  CE2       46.3920  -28.9110  -15.8210 C.ar   25  PHE25      -0.0003
     32  CZ        45.1180  -28.6470  -16.2970 C.ar   25  PHE25      -0.0000
     33  N         47.7530  -22.9600  -17.3810 N.am   26  GLY26      -0.1957
     34  CA        47.7090  -21.5590  -17.7470 C.3    26  GLY26       0.1869
     35  C         48.1710  -21.3260  -19.1770 C.2    26  GLY26       0.2309
     36  O         47.5000  -20.6330  -19.9500 O.2    26  GLY26      -0.2863
     37  N         51.6460  -20.0080  -19.7820 N.3    28  VAL28      -0.1245
     38  CA        52.2570  -18.7200  -19.4650 C.3    28  VAL28       0.1561
     39  C         53.6340  -18.5750  -20.1230 C.2    28  VAL28       0.2260
     40  O         54.4810  -19.4500  -19.9920 O.2    28  VAL28      -0.2867
     41  CB        52.4290  -18.5810  -17.9480 C.3    28  VAL28       0.0252
     42  CG1       53.0170  -17.2470  -17.5990 C.3    28  VAL28       0.0019
     43  CG2       51.0960  -18.7880  -17.2470 C.3    28  VAL28       0.0019
     44  N         55.0010  -11.1670  -18.4480 N.3    41  ALA41      -0.1245
     45  CA        54.4350  -12.5090  -18.4830 C.3    41  ALA41       0.1562
     46  C         53.1280  -12.4680  -19.2710 C.2    41  ALA41       0.2260
     47  O         52.3160  -11.5750  -19.0820 O.2    41  ALA41      -0.2867
     48  CB        54.1930  -13.0160  -17.0840 C.3    41  ALA41       0.0290
     49  N         49.8150  -14.5280  -19.9310 N.3    43  LYS43      -0.1245
     50  CA        48.9690  -15.6360  -19.5630 C.3    43  LYS43       0.1561
     51  C         47.7970  -15.6970  -20.5620 C.2    43  LYS43       0.2260
     52  O         46.8890  -14.8720  -20.5360 O.2    43  LYS43      -0.2867
     53  CB        48.5290  -15.4680  -18.1050 C.3    43  LYS43       0.0271
     54  CG        47.5710  -16.5340  -17.5720 C.3    43  LYS43       0.0035
     55  CD        47.3760  -16.3760  -16.0610 C.3    43  LYS43       0.0206
     56  CE        46.1230  -17.0770  -15.5680 C.3    43  LYS43       0.1093
     57  NZ        46.1080  -17.1210  -14.0780 N.3    43  LYS43      -0.1314
     58  N         50.6380   -8.8530   -7.8560 N.3    74  VAL74      -0.1245
     59  CA        51.1120   -8.8880   -9.2170 C.3    74  VAL74       0.1561
     60  C         50.3840   -7.7770   -9.9790 C.2    74  VAL74       0.2260
     61  O         49.3670   -7.2730   -9.5240 O.2    74  VAL74      -0.2867
     62  CB        50.8720  -10.2740   -9.8190 C.3    74  VAL74       0.0252
     63  CG1       49.4020  -10.4620  -10.1340 C.3    74  VAL74       0.0019
     64  CG2       51.7190  -10.4710  -11.0450 C.3    74  VAL74       0.0019
     65  N         51.3340   -9.3580  -17.6800 N.3    91  PHE91      -0.1227
     66  CA        51.8450   -8.9210  -16.3650 C.3    91  PHE91       0.1736
     67  C         53.2660   -8.3330  -16.4000 C.2    91  PHE91       0.2595
     68  O         54.0420   -8.6720  -17.2880 O.2    91  PHE91      -0.2718
     69  CB        51.8640  -10.0980  -15.3960 C.3    91  PHE91       0.0547
     70  CG        50.5220  -10.6830  -15.1200 C.ar   91  PHE91      -0.0202
     71  CD1       49.7550  -10.2210  -14.0700 C.ar   91  PHE91      -0.0042
     72  CD2       50.0310  -11.7010  -15.8950 C.ar   91  PHE91      -0.0042
     73  CE1       48.5160  -10.7640  -13.8070 C.ar   91  PHE91      -0.0003
     74  CE2       48.7900  -12.2410  -15.6350 C.ar   91  PHE91      -0.0003
     75  CZ        48.0370  -11.7750  -14.5840 C.ar   91  PHE91      -0.0000
     76  N         53.6110   -7.4760  -15.4300 N.am   92  ASP92      -0.1960
     77  CA        55.0160   -7.0790  -15.2200 C.3    92  ASP92       0.1840
     78  C         55.7610   -8.3380  -14.8160 C.2    92  ASP92       0.2622
     79  O         55.3700   -9.0070  -13.8670 O.2    92  ASP92      -0.2715
     80  CB        55.1650   -6.0440  -14.0990 C.3    92  ASP92       0.1450
     81  CG        54.9990   -4.5920  -14.5820 C.2    92  ASP92       0.3671
     82  OD1       55.3780   -4.2940  -15.7390 O.co2  92  ASP92      -0.2456
     83  OD2       54.5090   -3.7400  -13.7860 O.co2  92  ASP92      -0.2456
     84  N         56.8330   -8.6680  -15.5260 N.am   93  PHE93      -0.1960
     85  CA        57.5880   -9.8750  -15.2220 C.3    93  PHE93       0.1771
     86  C         58.3100   -9.8180  -13.8680 C.2    93  PHE93       0.2619
     87  O         58.6670   -8.7390  -13.3670 O.2    93  PHE93      -0.2715
     88  CB        58.5830  -10.1600  -16.3340 C.3    93  PHE93       0.0574
     89  CG        59.2280  -11.5030  -16.2320 C.ar   93  PHE93      -0.0200
     90  CD1       58.4990  -12.6550  -16.4580 C.ar   93  PHE93      -0.0042
     91  CD2       60.5730  -11.6200  -15.9300 C.ar   93  PHE93      -0.0042
     92  CE1       59.1120  -13.9100  -16.3750 C.ar   93  PHE93      -0.0003
     93  CE2       61.1770  -12.8700  -15.8440 C.ar   93  PHE93      -0.0003
     94  CZ        60.4520  -14.0090  -16.0610 C.ar   93  PHE93      -0.0000
     95  N         58.5120  -11.0030  -13.2960 N.am   94  CYS94      -0.1968
     96  CA        59.1230  -11.1750  -11.9860 C.3    94  CYS94       0.1712
     97  C         60.0270  -12.3910  -12.1030 C.2    94  CYS94       0.2296
     98  O         59.5640  -13.4690  -12.4810 O.2    94  CYS94      -0.2864
     99  CB        58.0500  -11.4330  -10.9200 C.3    94  CYS94       0.0983
    100  SG        56.8000  -10.0930  -10.6760 S.3    94  CYS94      -0.0798
    101  N         60.0820  -17.1750   -8.1960 N.3    97  ASP97      -0.1239
    102  CA        58.9980  -17.4950   -7.2820 C.3    97  ASP97       0.1674
    103  C         59.5080  -18.2800   -6.0750 C.2    97  ASP97       0.2266
    104  O         60.6190  -18.8070   -6.0810 O.2    97  ASP97      -0.2867
    105  CB        57.8450  -18.2150   -7.9780 C.3    97  ASP97       0.1410
    106  CG        58.2220  -19.5730   -8.4560 C.2    97  ASP97       0.3668
    107  OD1       58.9380  -19.6510   -9.4760 O.co2  97  ASP97      -0.2456
    108  OD2       57.8010  -20.5570   -7.8130 O.co2  97  ASP97      -0.2456
    109  N         49.9860  -20.6300   -2.1680 N.3   139  LYS139     -0.1245
    110  CA        50.9960  -21.6800   -2.2200 C.3   139  LYS139      0.1561
    111  C         52.2760  -21.0440   -2.7360 C.2   139  LYS139      0.2260
    112  O         52.2350  -20.1960   -3.6210 O.2   139  LYS139     -0.2867
    113  CB        50.5410  -22.8670   -3.0890 C.3   139  LYS139      0.0271
    114  CG        50.4670  -22.6060   -4.5920 C.3   139  LYS139      0.0035
    115  CD        49.7560  -23.7470   -5.3410 C.3   139  LYS139      0.0206
    116  CE        49.8580  -23.5850   -6.8670 C.3   139  LYS139      0.1093
    117  NZ        48.6180  -24.0270   -7.6090 N.3   139  LYS139     -0.1314
    118  N         54.2440  -21.3780   -4.8120 N.3   141  ALA141     -0.1231
    119  CA        54.3870  -21.2480   -6.2610 C.3   141  ALA141      0.1694
    120  C         53.7880  -19.9380   -6.7730 C.2   141  ALA141      0.2592
    121  O         54.2870  -19.3220   -7.7220 O.2   141  ALA141     -0.2718
    122  CB        53.7590  -22.4410   -6.9530 C.3   141  ALA141      0.0304
    123  N         52.7160  -19.5170   -6.1180 N.am  142  ASN142     -0.1974
    124  CA        52.0180  -18.2970   -6.4690 C.3   142  ASN142      0.1688
    125  C         52.5850  -17.0410   -5.7910 C.2   142  ASN142      0.2292
    126  O         52.0360  -15.9450   -5.9330 O.2   142  ASN142     -0.2864
    127  CB        50.5410  -18.4650   -6.1520 C.3   142  ASN142      0.1181
    128  CG        49.8500  -19.3730   -7.1290 C.2   142  ASN142      0.2629
    129  OD1       50.1400  -19.3470   -8.3280 O.2   142  ASN142     -0.2716
    130  ND2       48.9190  -20.1770   -6.6300 N.am  142  ASN142     -0.0877
    131  N         55.5930  -14.6210   -5.9580 N.3   144  LEU144     -0.1245
    132  CA        56.7420  -14.2680   -6.7680 C.3   144  LEU144      0.1561
    133  C         57.6110  -13.2720   -6.0350 C.2   144  LEU144      0.2260
    134  O         57.2070  -12.7070   -5.0220 O.2   144  LEU144     -0.2867
    135  CB        56.2920  -13.6370   -8.0770 C.3   144  LEU144      0.0270
    136  CG        55.1190  -14.3110   -8.7860 C.3   144  LEU144      0.0019
    137  CD1       54.9170  -13.6500  -10.1300 C.3   144  LEU144      0.0001
    138  CD2       55.3480  -15.8020   -8.9470 C.3   144  LEU144      0.0001
    139  N         50.4000  -13.7220   -6.6530 N.3   154  ALA154     -0.1231
    140  CA        49.9540  -13.8350   -8.0360 C.3   154  ALA154      0.1694
    141  C         48.9410  -14.9470   -8.2780 C.2   154  ALA154      0.2592
    142  O         48.5280  -15.6620   -7.3570 O.2   154  ALA154     -0.2718
    143  CB        51.1520  -13.9840   -8.9750 C.3   154  ALA154      0.0304
    144  N         48.5510  -15.0710   -9.5410 N.am  155  ASP155     -0.1974
    145  CA        47.5860  -16.0660   -9.9620 C.3   155  ASP155      0.1709
    146  C         46.3040  -15.9120   -9.1590 C.2   155  ASP155      0.2293
    147  O         46.0790  -16.5960   -8.1650 O.2   155  ASP155     -0.2864
    148  CB        48.1550  -17.4800   -9.8440 C.3   155  ASP155      0.1436
    149  CG        47.3590  -18.4940  -10.6510 C.2   155  ASP155      0.3671
    150  OD1       46.5050  -18.0780  -11.4730 O.co2 155  ASP155     -0.2456
    151  OD2       47.5880  -19.7090  -10.4590 O.co2 155  ASP155     -0.2456
@<TRIPOS>BOND
     1    51    52    2
     2    51    50    1
     3    39    40    2
     4    39    38    1
     5    36    35    2
     6    49    50    1
     7    37    38    1
     8    50    53    1
     9    38    41    1
    10    46    47    2
    11    46    45    1
    12    35    34    1
    13     1     2    1
    14    45    44    1
    15    45    48    1
    16    53    54    1
    17     7     5    1
    18    41    42    1
    19    41    43    1
    20    34    33    1
    21    65    66    1
    22    54    55    1
    23     2     5    1
    24     2     3    1
    25    33    24   am
    26    68    67    2
    27     6     5    1
    28     6     8    1
    29     9     3   am
    30     9    10    1
    31    24    23    1
    32    24    25    2
    33     3     4    2
    34    10    11    1
    35    23    22    1
    36    23    26    1
    37    30    32   ar
    38    30    28   ar
    39    90    92   ar
    40    90    89   ar
    41    67    66    1
    42    67    76   am
    43    92    94   ar
    44    66    69    1
    45    88    89    1
    46    88    85    1
    47    32    31   ar
    48    89    91   ar
    49    28    27   ar
    50    12    11    2
    51    94    93   ar
    52    55    56    1
    53    11    13   am
    54    21    19   am
    55    91    93   ar
    56    72    74   ar
    57    72    70   ar
    58    31    29   ar
    59    82    81   ar
    60    27    29   ar
    61    27    26    1
    62    74    75   ar
    63    18    19    1
    64    18    17    1
    65    56    57    1
    66    84    85    1
    67    84    78   am
    68    13    14    1
    69    76    77    1
    70    69    70    1
    71    85    86    1
    72    77    78    1
    73    77    80    1
    74    70    71   ar
    75    14    17    1
    76    14    15    1
    77    19    20    2
    78    78    79    2
    79    75    73   ar
    80    81    80    1
    81    81    83   ar
    82    15    16    2
    83    71    73   ar
    84    86    87    2
    85    86    95   am
    86    95    96    1
    87    98    97    2
    88    97    96    1
    89    96    99    1
    90   150   149   ar
    91    64    62    1
    92    99   100    1
    93   149   151   ar
    94   149   148    1
    95    63    62    1
    96   137   136    1
    97    60    61    2
    98    60    59    1
    99   145   148    1
   100   145   144    1
   101   145   146    1
   102    62    59    1
   103   144   141   am
   104   107   106   ar
   105    59    58    1
   106   146   147    2
   107   143   140    1
   108   138   136    1
   109   136   135    1
   110   106   105    1
   111   106   108   ar
   112   129   128    2
   113   141   140    1
   114   141   142    2
   115   101   102    1
   116   135   132    1
   117   140   139    1
   118   105   102    1
   119   121   120    2
   120   117   116    1
   121   102   103    1
   122   128   130   am
   123   128   127    1
   124   122   119    1
   125   116   115    1
   126   120   119    1
   127   120   123   am
   128   132   133    1
   129   132   131    1
   130   124   127    1
   131   124   123    1
   132   124   125    1
   133   119   118    1
   134   104   103    2
   135   133   134    2
   136   126   125    2
   137   115   114    1
   138   114   113    1
   139   112   111    2
   140   113   110    1
   141   111   110    1
   142   110   109    1
