@<TRIPOS>MOLECULE
tmp/3my5A00.pdb
 177 169 0 0 0
SMALL
GASTEIGER

@<TRIPOS>ATOM
      1  N         -2.5730   20.3000  -29.0330 N.3    12  ILE12      -0.1231
      2  CA        -2.7600   21.5460  -28.2860 C.3    12  ILE12       0.1692
      3  C         -2.2060   21.5100  -26.8670 C.2    12  ILE12       0.2593
      4  O         -2.2050   22.5200  -26.1620 O.2    12  ILE12      -0.2718
      5  CB        -4.2450   22.0060  -28.2570 C.3    12  ILE12       0.0266
      6  CG1       -5.1490   20.9440  -27.6120 C.3    12  ILE12       0.0019
      7  CG2       -4.7170   22.3280  -29.6630 C.3    12  ILE12       0.0020
      8  CD1       -6.6250   21.3600  -27.5190 C.3    12  ILE12       0.0001
      9  N         -1.7320   20.3510  -26.4440 N.am   13  GLY13      -0.1942
     10  CA        -1.2030   20.2360  -25.1030 C.3    13  GLY13       0.2014
     11  C         -0.7480   18.8390  -24.7670 C.2    13  GLY13       0.2639
     12  O         -0.7790   17.9450  -25.6070 O.2    13  GLY13      -0.2714
     13  N         -0.3390   18.6570  -23.5190 N.am   14  GLU14      -0.1963
     14  CA         0.1900   17.3870  -23.0560 C.3    14  GLU14       0.1733
     15  C          0.1620   17.3390  -21.5310 C.2    14  GLU14       0.2617
     16  O          0.2090   18.3700  -20.8630 O.2    14  GLU14      -0.2715
     17  CB         1.6190   17.2060  -23.5660 C.3    14  GLU14       0.0429
     18  CG         2.0960   15.7690  -23.6210 C.3    14  GLU14       0.1163
     19  CD         3.4280   15.6370  -24.3360 C.2    14  GLU14       0.3649
     20  OE1        4.1090   16.6710  -24.5140 O.co2  14  GLU14      -0.2457
     21  OE2        3.7880   14.5030  -24.7240 O.co2  14  GLU14      -0.2457
     22  N          0.0520   16.1320  -20.9950 N.am   15  GLY15      -0.1940
     23  CA         0.1670   15.8850  -19.5720 C.3    15  GLY15       0.2014
     24  C          0.5160   14.4200  -19.4570 C.2    15  GLY15       0.2639
     25  O          1.5750   13.9850  -19.9050 O.2    15  GLY15      -0.2714
     26  N         -0.3820   13.6550  -18.8550 N.am   16  THR16      -0.1950
     27  CA        -0.3490   12.2060  -18.9850 C.3    16  THR16       0.1897
     28  C         -1.8020   11.7520  -19.0470 C.2    16  THR16       0.2313
     29  O         -2.6740   12.3930  -18.4510 O.2    16  THR16      -0.2863
     30  CB         0.4620   11.5300  -17.8510 C.3    16  THR16       0.1794
     31  OG1        1.0600   12.5380  -17.0270 O.3    16  THR16      -0.2208
     32  CG2        1.5720   10.6650  -18.4450 C.3    16  THR16       0.0378
     33  N         -1.1480   10.9110  -22.6140 N.3    18  GLY18      -0.1225
     34  CA        -1.1510   12.2220  -21.9890 C.3    18  GLY18       0.1811
     35  C         -1.2350   13.3760  -22.9650 C.2    18  GLY18       0.2280
     36  O         -1.1740   14.5290  -22.5640 O.2    18  GLY18      -0.2866
     37  N         -3.0540   15.8520  -25.8130 N.3    20  VAL20      -0.1245
     38  CA        -4.3520   16.4450  -26.1230 C.3    20  VAL20       0.1561
     39  C         -4.3930   17.0350  -27.5220 C.2    20  VAL20       0.2260
     40  O         -3.5480   17.8620  -27.8820 O.2    20  VAL20      -0.2867
     41  CB        -4.7140   17.5550  -25.1250 C.3    20  VAL20       0.0252
     42  CG1       -6.1010   18.0970  -25.4220 C.3    20  VAL20       0.0019
     43  CG2       -4.6660   17.0100  -23.7210 C.3    20  VAL20       0.0019
     44  N        -11.7110   18.9200  -27.7900 N.3    33  ALA33      -0.1245
     45  CA       -10.3640   18.5530  -27.4180 C.3    33  ALA33       0.1562
     46  C        -10.4410   17.0920  -27.0560 C.2    33  ALA33       0.2260
     47  O        -11.3550   16.6890  -26.3270 O.2    33  ALA33      -0.2867
     48  CB        -9.8770   19.3880  -26.2240 C.3    33  ALA33       0.0290
     49  N         -8.4850   14.1280  -25.2220 N.3    35  LYS35      -0.1245
     50  CA        -7.4270   13.8100  -24.2880 C.3    35  LYS35       0.1561
     51  C         -7.2560   12.3060  -24.3580 C.2    35  LYS35       0.2260
     52  O         -8.1590   11.5520  -24.0170 O.2    35  LYS35      -0.2867
     53  CB        -7.8080   14.2790  -22.8790 C.3    35  LYS35       0.0271
     54  CG        -6.7340   14.0930  -21.8280 C.3    35  LYS35       0.0035
     55  CD        -7.2420   14.5130  -20.4460 C.3    35  LYS35       0.0206
     56  CE        -6.5370   15.7610  -19.9100 C.3    35  LYS35       0.1093
     57  NZ        -7.1410   16.2790  -18.6390 N.3    35  LYS35      -0.1314
     58  N        -15.0640   22.8780  -17.2810 N.3    63  VAL63      -0.1245
     59  CA       -14.9260   22.2980  -18.6060 C.3    63  VAL63       0.1561
     60  C        -15.8650   21.0880  -18.7830 C.2    63  VAL63       0.2260
     61  O        -16.0190   20.2320  -17.8910 O.2    63  VAL63      -0.2867
     62  CB       -13.4700   21.8900  -18.9000 C.3    63  VAL63       0.0252
     63  CG1      -13.1160   20.6330  -18.0920 C.3    63  VAL63       0.0019
     64  CG2      -13.3030   21.6450  -20.3890 C.3    63  VAL63       0.0019
     65  N        -13.6700   16.5430  -24.6680 N.3    79  PHE79      -0.1227
     66  CA       -14.0730   17.7600  -23.9670 C.3    79  PHE79       0.1736
     67  C        -14.5230   18.7940  -24.9770 C.2    79  PHE79       0.2595
     68  O        -14.1170   18.7440  -26.1370 O.2    79  PHE79      -0.2718
     69  CB       -12.8910   18.3550  -23.2140 C.3    79  PHE79       0.0547
     70  CG       -12.3670   17.4930  -22.0990 C.ar   79  PHE79      -0.0202
     71  CD1      -12.8880   17.6050  -20.8140 C.ar   79  PHE79      -0.0042
     72  CD2      -11.3260   16.6050  -22.3170 C.ar   79  PHE79      -0.0042
     73  CE1      -12.3910   16.8260  -19.7680 C.ar   79  PHE79      -0.0003
     74  CE2      -10.8260   15.8220  -21.2740 C.ar   79  PHE79      -0.0003
     75  CZ       -11.3620   15.9410  -19.9940 C.ar   79  PHE79      -0.0000
     76  N        -15.3450   19.7410  -24.5380 N.am   80  GLU80      -0.1965
     77  CA       -15.6240   20.9280  -25.3290 C.3    80  GLU80       0.1733
     78  C        -14.3060   21.6790  -25.5500 C.2    80  GLU80       0.2616
     79  O        -13.4850   21.7590  -24.6360 O.2    80  GLU80      -0.2715
     80  CB       -16.5910   21.8390  -24.5700 C.3    80  GLU80       0.0429
     81  CG       -15.9690   22.4550  -23.2930 C.3    80  GLU80       0.1163
     82  CD       -16.8850   23.4640  -22.5920 C.2    80  GLU80       0.3649
     83  OE1      -17.3770   24.4120  -23.2430 O.co2  80  GLU80      -0.2457
     84  OE2      -17.1290   23.2980  -21.3820 O.co2  80  GLU80      -0.2457
     85  N        -14.1040   22.2570  -26.7380 N.am   81  PHE81      -0.1960
     86  CA       -12.8480   22.9590  -27.0260 C.3    81  PHE81       0.1771
     87  C        -12.7990   24.3870  -26.4750 C.2    81  PHE81       0.2619
     88  O        -13.7210   25.1700  -26.6610 O.2    81  PHE81      -0.2715
     89  CB       -12.5630   22.9740  -28.5310 C.3    81  PHE81       0.0574
     90  CG       -11.3250   23.7460  -28.9050 C.ar   81  PHE81      -0.0200
     91  CD1      -10.0740   23.1860  -28.7460 C.ar   81  PHE81      -0.0042
     92  CD2      -11.4180   25.0320  -29.4140 C.ar   81  PHE81      -0.0042
     93  CE1       -8.9350   23.8900  -29.0860 C.ar   81  PHE81      -0.0003
     94  CE2      -10.2740   25.7460  -29.7550 C.ar   81  PHE81      -0.0003
     95  CZ        -9.0290   25.1690  -29.5800 C.ar   81  PHE81      -0.0000
     96  N        -11.7060   24.7210  -25.8010 N.am   82  LEU82      -0.1963
     97  CA       -11.4940   26.0790  -25.3140 C.3    82  LEU82       0.1728
     98  C        -10.1430   26.5350  -25.8300 C.2    82  LEU82       0.2616
     99  O         -9.1890   25.7800  -25.7950 O.2    82  LEU82      -0.2715
    100  CB       -11.5450   26.1010  -23.7830 C.3    82  LEU82       0.0311
    101  CG       -12.9470   25.7210  -23.2820 C.3    82  LEU82       0.0022
    102  CD1      -12.9000   24.9900  -21.9630 C.3    82  LEU82       0.0001
    103  CD2      -13.7850   26.9570  -23.1680 C.3    82  LEU82       0.0001
    104  N        -10.0750   27.7740  -26.2880 N.am   83  HIS83      -0.1959
    105  CA        -8.9860   28.2490  -27.1420 C.3    83  HIS83       0.1787
    106  C         -7.6470   28.4670  -26.4690 C.2    83  HIS83       0.2620
    107  O         -6.6100   28.3000  -27.1000 O.2    83  HIS83      -0.2715
    108  CB        -9.4140   29.5330  -27.8400 C.3    83  HIS83       0.0785
    109  CG       -10.7530   29.4200  -28.5020 C.ar   83  HIS83       0.0821
    110  ND1      -11.9180   29.1970  -27.7940 N.ar   83  HIS83      -0.2267
    111  CD2      -11.1090   29.4620  -29.8090 C.ar   83  HIS83       0.1154
    112  CE1      -12.9340   29.1260  -28.6350 C.ar   83  HIS83       0.1986
    113  NE2      -12.4710   29.2850  -29.8630 N.ar   83  HIS83      -0.2212
    114  N         -7.6510   28.8350  -25.1960 N.am   84  GLN84      -0.1963
    115  CA        -6.3960   29.2030  -24.5620 C.3    84  GLN84       0.1733
    116  C         -6.4450   28.9910  -23.0560 C.2    84  GLN84       0.2616
    117  O         -7.5250   28.9540  -22.4700 O.2    84  GLN84      -0.2715
    118  CB        -6.1280   30.6720  -24.8870 C.3    84  GLN84       0.0408
    119  CG        -4.8240   31.2030  -24.3920 C.3    84  GLN84       0.0908
    120  CD        -4.2990   32.3100  -25.2770 C.2    84  GLN84       0.2608
    121  OE1       -4.4070   33.4940  -24.9490 O.2    84  GLN84      -0.2717
    122  NE2       -3.7250   31.9290  -26.4180 N.am   84  GLN84      -0.0878
    123  N         -5.2870   28.8380  -22.4200 N.am   85  ASP85      -0.1971
    124  CA        -5.2470   28.8380  -20.9570 C.3    85  ASP85       0.1709
    125  C         -4.8810   30.2230  -20.4390 C.2    85  ASP85       0.2293
    126  O         -4.3230   31.0450  -21.1630 O.2    85  ASP85      -0.2864
    127  CB        -4.3200   27.7650  -20.3950 C.3    85  ASP85       0.1436
    128  CG        -2.8710   28.0230  -20.7240 C.2    85  ASP85       0.3671
    129  OD1       -2.3440   29.0560  -20.2730 O.co2  85  ASP85      -0.2456
    130  OD2       -2.2590   27.1970  -21.4290 O.co2  85  ASP85      -0.2456
    131  N         -1.1830   31.5570  -20.8100 N.3    88  LYS88      -0.1245
    132  CA        -0.8370   32.0890  -22.1350 C.3    88  LYS88       0.1561
    133  C         -1.4550   33.4560  -22.3690 C.2    88  LYS88       0.2260
    134  O         -0.8360   34.3310  -22.9610 O.2    88  LYS88      -0.2867
    135  CB        -1.2490   31.1260  -23.2530 C.3    88  LYS88       0.0271
    136  CG        -0.4340   29.8460  -23.2680 C.3    88  LYS88       0.0035
    137  CD        -0.9700   28.8730  -24.3030 C.3    88  LYS88       0.0206
    138  CE        -0.3200   27.5030  -24.1640 C.3    88  LYS88       0.1093
    139  NZ        -0.8080   26.5490  -25.2020 N.3    88  LYS88      -0.1314
    140  N         -2.4320   27.6830  -15.7390 N.3   130  GLN130     -0.1231
    141  CA        -2.3170   26.6670  -16.7800 C.3   130  GLN130      0.1698
    142  C         -3.5480   25.7690  -16.8560 C.2   130  GLN130      0.2592
    143  O         -3.8180   25.1860  -17.9000 O.2   130  GLN130     -0.2718
    144  CB        -1.0760   25.7950  -16.5590 C.3   130  GLN130      0.0381
    145  CG         0.2720   26.5250  -16.7010 C.3   130  GLN130      0.0905
    146  CD         0.6810   27.3310  -15.4580 C.2   130  GLN130      0.2608
    147  OE1       -0.0740   27.4640  -14.4900 O.2   130  GLN130     -0.2717
    148  NE2        1.8910   27.8760  -15.4920 N.am  130  GLN130     -0.0878
    149  N         -4.3030   25.6670  -15.7620 N.am  131  ASN131     -0.1974
    150  CA        -5.4570   24.7670  -15.7180 C.3   131  ASN131      0.1688
    151  C         -6.7750   25.5360  -15.7990 C.2   131  ASN131      0.2292
    152  O         -7.8310   24.9920  -15.4980 O.2   131  ASN131     -0.2864
    153  CB        -5.4440   23.9000  -14.4460 C.3   131  ASN131      0.1181
    154  CG        -4.3490   22.8340  -14.4610 C.2   131  ASN131      0.2629
    155  OD1       -3.8170   22.5040  -15.5070 O.2   131  ASN131     -0.2716
    156  ND2       -4.0320   22.2740  -13.2870 N.am  131  ASN131     -0.0877
    157  N         -9.1390   27.6300  -18.4490 N.3   133  LEU133     -0.1245
    158  CA        -9.2480   27.7440  -19.9030 C.3   133  LEU133      0.1561
    159  C        -10.2380   28.8360  -20.2780 C.2   133  LEU133      0.2260
    160  O        -11.2990   28.9550  -19.6540 O.2   133  LEU133     -0.2867
    161  CB        -9.6820   26.4070  -20.5090 C.3   133  LEU133      0.0270
    162  CG        -8.8080   25.1730  -20.2530 C.3   133  LEU133      0.0019
    163  CD1       -9.4090   23.9270  -20.9170 C.3   133  LEU133      0.0001
    164  CD2       -7.3620   25.3800  -20.7040 C.3   133  LEU133      0.0001
    165  N        -10.4320   23.4810  -15.4140 N.3   143  ALA143     -0.1231
    166  CA       -10.1290   22.2840  -16.1910 C.3   143  ALA143      0.1694
    167  C         -9.0980   21.4380  -15.4450 C.2   143  ALA143      0.2592
    168  O         -8.6780   21.7930  -14.3500 O.2   143  ALA143     -0.2718
    169  CB        -9.6150   22.6700  -17.5590 C.3   143  ALA143      0.0304
    170  N         -8.6930   20.3320  -16.0520 N.am  144  ASP144     -0.1974
    171  CA        -7.7190   19.3990  -15.4700 C.3   144  ASP144      0.1709
    172  C         -8.0790   18.9080  -14.0650 C.2   144  ASP144      0.2293
    173  O         -7.4790   19.3370  -13.0820 O.2   144  ASP144     -0.2864
    174  CB        -6.2930   19.9660  -15.4720 C.3   144  ASP144      0.1436
    175  CG        -5.2340   18.8620  -15.4170 C.2   144  ASP144      0.3671
    176  OD1       -5.6100   17.6970  -15.1220 O.co2 144  ASP144     -0.2456
    177  OD2       -4.0360   19.1490  -15.6760 O.co2 144  ASP144     -0.2456
@<TRIPOS>BOND
     1   113   111   ar
     2   113   112   ar
     3   111   109   ar
     4    94    95   ar
     5    94    92   ar
     6     7     5    1
     7    95    93   ar
     8    92    90   ar
     9    93    91   ar
    10     1     2    1
    11    90    91   ar
    12    90    89    1
    13   112   110   ar
    14    89    86    1
    15   109   108    1
    16   109   110   ar
    17     2     5    1
    18     2     3    1
    19     5     6    1
    20    40    39    2
    21   108   105    1
    22    44    45    1
    23     6     8    1
    24    39    38    1
    25    45    46    1
    26    45    48    1
    27   105   106    1
    28   105   104    1
    29   107   106    2
    30    46    47    2
    31    86    85    1
    32    86    87    1
    33     3     9   am
    34     3     4    2
    35    85    78   am
    36    88    87    2
    37    87    96   am
    38   106   114   am
    39     9    10    1
    40   122   120   am
    41   104    98   am
    42    68    67    2
    43    38    37    1
    44    38    41    1
    45    98    99    2
    46    98    97    1
    47    96    97    1
    48    12    11    2
    49    78    77    1
    50    78    79    2
    51    42    41    1
    52    77    80    1
    53    77    76    1
    54    97   100    1
    55   120   121    2
    56   120   119    1
    57    49    50    1
    58   139   138    1
    59   114   115    1
    60    41    43    1
    61    10    11    1
    62    67    76   am
    63    67    66    1
    64   118   115    1
    65   118   119    1
    66    11    13   am
    67    21    19   ar
    68    65    66    1
    69    80    81    1
    70   115   116    1
    71    20    19   ar
    72    51    50    1
    73    51    52    2
    74    19    18    1
    75   137   138    1
    76   137   136    1
    77    50    53    1
    78    66    69    1
    79   100   101    1
    80    18    17    1
    81    17    14    1
    82    13    14    1
    83    81    82    1
    84   101   103    1
    85   101   102    1
    86   136   135    1
    87   135   132    1
    88    83    82   ar
    89    69    70    1
    90    14    15    1
    91   116   117    2
    92   116   123   am
    93    35    36    2
    94    35    34    1
    95   134   133    2
    96    53    54    1
    97    33    34    1
    98    82    84   ar
    99   123   124    1
   100   133   132    1
   101    72    70   ar
   102    72    74   ar
   103   132   131    1
   104    70    71   ar
   105    54    55    1
   106    15    22   am
   107    15    16    2
   108   130   128   ar
   109    74    75   ar
   110   126   125    2
   111    22    23    1
   112   124   125    1
   113   124   127    1
   114   163   162    1
   115    71    73   ar
   116   128   127    1
   117   128   129   ar
   118   164   162    1
   119   161   162    1
   120   161   158    1
   121    55    56    1
   122    64    62    1
   123   159   158    1
   124   159   160    2
   125    75    73   ar
   126    56    57    1
   127    25    24    2
   128   158   157    1
   129    23    24    1
   130    24    26   am
   131    28    27    1
   132    28    29    2
   133    27    26    1
   134    27    30    1
   135    62    59    1
   136    62    63    1
   137    60    59    1
   138    60    61    2
   139    59    58    1
   140    32    30    1
   141   143   142    2
   142    30    31    1
   143   169   166    1
   144   142   141    1
   145   142   149   am
   146   141   144    1
   147   141   140    1
   148   145   144    1
   149   145   146    1
   150   166   167    1
   151   166   165    1
   152   170   171    1
   153   170   167   am
   154   151   150    1
   155   151   152    2
   156   149   150    1
   157   150   153    1
   158   177   175   ar
   159   155   154    2
   160   148   146   am
   161   174   171    1
   162   174   175    1
   163   171   172    1
   164   146   147    2
   165   167   168    2
   166   175   176   ar
   167   154   153    1
   168   154   156   am
   169   172   173    2
