@<TRIPOS>MOLECULE
tmp/3mygA01.pdb
 171 160 0 0 0
SMALL
GASTEIGER

@<TRIPOS>ATOM
      1  N          5.6280   27.1230   81.1700 N.3    12  ARG12      -0.1245
      2  CA         4.8590   26.9910   82.4160 C.3    12  ARG12       0.1563
      3  C          3.3820   26.6670   82.2170 C.2    12  ARG12       0.2260
      4  O          2.8080   27.1010   81.2060 O.2    12  ARG12      -0.2867
      5  CB         5.0440   28.2020   83.3570 C.3    12  ARG12       0.0307
      6  CG         4.5540   29.5270   82.7980 C.3    12  ARG12       0.0489
      7  CD         4.3020   30.5390   83.8930 C.3    12  ARG12       0.2205
      8  NE         3.3300   31.5290   83.4360 N.pl3  12  ARG12      -0.0865
      9  CZ         2.0290   31.4760   83.7030 C.cat  12  ARG12       0.5346
     10  NH1        1.5410   30.5100   84.4730 N.pl3  12  ARG12       0.1354
     11  NH2        1.2090   32.3890   83.2100 N.pl3  12  ARG12       0.1354
     12  N         -0.3160   27.2760   82.3240 N.3    14  LEU14      -0.1231
     13  CA        -1.0990   28.5140   82.3440 C.3    14  LEU14       0.1693
     14  C         -2.3530   28.3470   83.1760 C.2    14  LEU14       0.2592
     15  O         -2.7700   29.2740   83.8670 O.2    14  LEU14      -0.2718
     16  CB        -1.4210   29.0060   80.9180 C.3    14  LEU14       0.0284
     17  CG        -0.2270   29.2150   79.9620 C.3    14  LEU14       0.0019
     18  CD1       -0.6970   29.3950   78.5290 C.3    14  LEU14       0.0001
     19  CD2        0.6640   30.3770   80.3930 C.3    14  LEU14       0.0001
     20  N         -2.9360   27.1530   83.1250 N.am   15  GLY15      -0.1957
     21  CA        -4.1390   26.7730   83.8430 C.3    15  GLY15       0.1869
     22  C         -4.1370   25.2640   84.0630 C.2    15  GLY15       0.2309
     23  O         -3.6280   24.5070   83.2320 O.2    15  GLY15      -0.2863
     24  N         -3.3430   23.5230   80.4250 N.3    22  VAL22      -0.1245
     25  CA        -2.9890   24.3920   79.2970 C.3    22  VAL22       0.1561
     26  C         -1.5710   24.9080   79.6090 C.2    22  VAL22       0.2260
     27  O         -1.3300   25.4200   80.7060 O.2    22  VAL22      -0.2867
     28  CB        -3.9980   25.5620   79.0360 C.3    22  VAL22       0.0252
     29  CG1       -3.6260   26.3450   77.7730 C.3    22  VAL22       0.0019
     30  CG2       -5.4380   25.0610   78.9410 C.3    22  VAL22       0.0019
     31  N         -0.5920   28.3550   72.9700 N.3    35  ALA35      -0.1245
     32  CA        -1.1390   27.6910   74.1610 C.3    35  ALA35       0.1562
     33  C         -1.4150   26.2300   73.7880 C.2    35  ALA35       0.2260
     34  O         -2.0920   25.9470   72.7910 O.2    35  ALA35      -0.2867
     35  CB        -2.4180   28.3710   74.6190 C.3    35  ALA35       0.0290
     36  N         -3.0350   22.8930   74.9700 N.3    37  LYS37      -0.1245
     37  CA        -3.9890   22.2570   75.8690 C.3    37  LYS37       0.1561
     38  C         -3.7050   20.7400   75.8240 C.2    37  LYS37       0.2260
     39  O         -3.9060   20.1030   74.7830 O.2    37  LYS37      -0.2867
     40  CB        -5.4210   22.6120   75.4350 C.3    37  LYS37       0.0271
     41  CG        -6.4900   22.3490   76.4790 C.3    37  LYS37       0.0035
     42  CD        -7.8610   22.4000   75.8560 C.3    37  LYS37       0.0206
     43  CE        -8.4460   23.7940   75.7700 C.3    37  LYS37       0.1093
     44  NZ        -9.8980   23.7940   76.1090 N.3    37  LYS37      -0.1314
     45  N        -15.0400   21.3170   69.7720 N.3    56  GLU56      -0.1245
     46  CA       -14.0890   22.3970   70.0620 C.3    56  GLU56       0.1567
     47  C        -13.1120   22.5150   68.8950 C.2    56  GLU56       0.2260
     48  O        -12.7700   23.6280   68.4890 O.2    56  GLU56      -0.2867
     49  CB       -13.3140   22.1180   71.3630 C.3    56  GLU56       0.0388
     50  CG       -12.4050   23.2670   71.7760 C.3    56  GLU56       0.1160
     51  CD       -11.6510   23.1230   73.0840 C.2    56  GLU56       0.3649
     52  OE1      -11.9580   22.1880   73.8590 O.co2  56  GLU56      -0.2457
     53  OE2      -10.7610   23.9650   73.3450 O.co2  56  GLU56      -0.2457
     54  N        -10.8380   33.0080   70.3520 N.3    69  LEU69      -0.1245
     55  CA        -9.5360   32.3640   70.4110 C.3    69  LEU69       0.1561
     56  C         -9.4170   31.3230   69.2980 C.2    69  LEU69       0.2260
     57  O        -10.3030   30.4720   69.1510 O.2    69  LEU69      -0.2867
     58  CB        -9.3400   31.6980   71.7760 C.3    69  LEU69       0.0270
     59  CG        -7.9130   31.6320   72.2630 C.3    69  LEU69       0.0019
     60  CD1       -7.4100   33.0050   72.6930 C.3    69  LEU69       0.0001
     61  CD2       -7.8010   30.6650   73.3800 C.3    69  LEU69       0.0001
     62  N         -3.4440   25.9460   70.3690 N.3    85  LEU85      -0.1231
     63  CA        -4.2950   27.1150   70.3930 C.3    85  LEU85       0.1693
     64  C         -3.5460   28.4070   70.3800 C.2    85  LEU85       0.2592
     65  O         -2.3510   28.4740   70.7000 O.2    85  LEU85      -0.2718
     66  CB        -5.2280   27.0520   71.6310 C.3    85  LEU85       0.0284
     67  CG        -6.3700   26.0370   71.5250 C.3    85  LEU85       0.0019
     68  CD1       -6.4490   25.1610   72.7490 C.3    85  LEU85       0.0001
     69  CD2       -7.7000   26.7150   71.1620 C.3    85  LEU85       0.0001
     70  N         -4.2790   29.4540   70.0250 N.am   86  GLU86      -0.1966
     71  CA        -3.7760   30.8090   70.0900 C.3    86  GLU86       0.1733
     72  C         -3.5280   31.1220   71.5950 C.2    86  GLU86       0.2616
     73  O         -4.3260   30.7340   72.4640 O.2    86  GLU86      -0.2715
     74  CB        -4.7930   31.7680   69.4540 C.3    86  GLU86       0.0429
     75  CG        -4.4960   33.2260   69.7140 C.3    86  GLU86       0.1163
     76  CD        -5.5540   34.2120   69.2830 C.2    86  GLU86       0.3649
     77  OE1       -6.5870   33.7930   68.7100 O.co2  86  GLU86      -0.2457
     78  OE2       -5.3570   35.4180   69.5510 O.co2  86  GLU86      -0.2457
     79  N         -2.3800   31.7570   71.8790 N.am   87  TYR87      -0.1960
     80  CA        -2.0130   32.1570   73.2330 C.3    87  TYR87       0.1771
     81  C         -2.5070   33.5820   73.4670 C.2    87  TYR87       0.2619
     82  O         -2.2970   34.4840   72.6400 O.2    87  TYR87      -0.2715
     83  CB        -0.4860   32.0030   73.4640 C.3    87  TYR87       0.0574
     84  CG         0.0920   32.8050   74.6130 C.ar   87  TYR87      -0.0198
     85  CD1       -0.2620   32.5280   75.9330 C.ar   87  TYR87      -0.0009
     86  CD2        1.0150   33.8180   74.3840 C.ar   87  TYR87      -0.0009
     87  CE1        0.2690   33.2560   76.9930 C.ar   87  TYR87       0.0417
     88  CE2        1.5700   34.5440   75.4420 C.ar   87  TYR87       0.0417
     89  CZ         1.2040   34.2470   76.7440 C.ar   87  TYR87       0.1957
     90  OH         1.7150   34.9840   77.7800 O.3    87  TYR87      -0.2866
     91  N         -3.2210   33.7550   74.5790 N.am   88  ALA88      -0.1964
     92  CA        -3.7420   35.0410   75.0230 C.3    88  ALA88       0.1713
     93  C         -2.7930   35.5350   76.1550 C.2    88  ALA88       0.2458
     94  O         -2.8280   34.9880   77.2650 O.2    88  ALA88      -0.2730
     95  CB        -5.1660   34.8790   75.5220 C.3    88  ALA88       0.0333
     96  N         -1.9120   36.5270   75.8430 N.am   89  PRO89      -0.2716
     97  CA        -0.8900   37.0270   76.7670 C.3    89  PRO89       0.1536
     98  C         -1.3610   37.6990   78.0200 C.2    89  PRO89       0.2598
     99  O         -0.6210   37.6660   79.0060 O.2    89  PRO89      -0.2715
    100  CB        -0.0630   38.0020   75.9110 C.3    89  PRO89       0.0310
    101  CG        -0.5160   37.7900   74.5100 C.3    89  PRO89       0.0237
    102  CD        -1.9300   37.3430   74.6140 C.3    89  PRO89       0.0939
    103  N         -2.5480   38.3560   77.9940 N.am   90  LEU90      -0.1964
    104  CA        -3.0600   39.0700   79.1770 C.3    90  LEU90       0.1728
    105  C         -3.9650   38.2420   80.0920 C.2    90  LEU90       0.2617
    106  O         -4.5860   38.7920   81.0050 O.2    90  LEU90      -0.2715
    107  CB        -3.6330   40.4640   78.8540 C.3    90  LEU90       0.0311
    108  CG        -2.7190   41.5340   78.2120 C.3    90  LEU90       0.0022
    109  CD1       -3.3430   42.9020   78.3320 C.3    90  LEU90       0.0001
    110  CD2       -1.3820   41.5910   78.8570 C.3    90  LEU90       0.0001
    111  N         -3.9680   36.9100   79.8980 N.am   91  GLY91      -0.1940
    112  CA        -4.6990   35.9370   80.7240 C.3    91  GLY91       0.2014
    113  C         -6.2340   36.0030   80.7180 C.2    91  GLY91       0.2639
    114  O         -6.8350   36.5480   79.7910 O.2    91  GLY91      -0.2714
    115  N         -6.8640   35.4070   81.7540 N.am   92  THR92      -0.1950
    116  CA        -8.3270   35.3620   81.8770 C.3    92  THR92       0.1897
    117  C         -8.9180   36.6110   82.5090 C.2    92  THR92       0.2313
    118  O         -8.3010   37.2590   83.3690 O.2    92  THR92      -0.2863
    119  CB        -8.8290   34.0960   82.6320 C.3    92  THR92       0.1794
    120  OG1       -8.4610   34.1650   84.0040 O.3    92  THR92      -0.2208
    121  CG2       -8.3520   32.7810   82.0200 C.3    92  THR92       0.0378
    122  N         -9.0830   36.0920   86.3110 N.3    95  ARG95      -0.1245
    123  CA        -7.9130   36.5730   87.0530 C.3    95  ARG95       0.1563
    124  C         -7.9580   38.0830   87.2240 C.2    95  ARG95       0.2260
    125  O         -7.6970   38.5690   88.3240 O.2    95  ARG95      -0.2867
    126  CB        -6.6040   36.1160   86.3640 C.3    95  ARG95       0.0307
    127  CG        -5.2910   36.5460   87.0420 C.3    95  ARG95       0.0489
    128  CD        -4.9450   35.7690   88.3100 C.3    95  ARG95       0.2205
    129  NE        -5.0590   34.3190   88.1240 N.pl3  95  ARG95      -0.0865
    130  CZ        -5.4890   33.4750   89.0560 C.cat  95  ARG95       0.5346
    131  NH1       -5.8280   33.9190   90.2600 N.pl3  95  ARG95       0.1354
    132  NH2       -5.5770   32.1780   88.7950 N.pl3  95  ARG95       0.1354
    133  N         -8.0680   40.3530   90.8430 N.3    99  LYS99      -0.1245
    134  CA        -7.1320   41.4450   91.0680 C.3    99  LYS99       0.1561
    135  C         -7.8500   42.7780   91.2800 C.2    99  LYS99       0.2260
    136  O         -7.5930   43.4360   92.2810 O.2    99  LYS99      -0.2867
    137  CB        -6.1320   41.5460   89.9010 C.3    99  LYS99       0.0271
    138  CG        -5.1950   40.3440   89.7740 C.3    99  LYS99       0.0035
    139  CD        -3.9740   40.7200   88.9440 C.3    99  LYS99       0.0206
    140  CE        -3.4150   39.5790   88.1300 C.3    99  LYS99       0.1093
    141  NZ        -2.4040   40.0600   87.1550 N.3    99  LYS99      -0.1314
    142  N        -13.6590   32.4280   83.2450 N.3   135  GLU135     -0.1245
    143  CA       -12.5590   31.4670   82.9950 C.3   135  GLU135      0.1567
    144  C        -12.3340   31.2010   81.5230 C.2   135  GLU135      0.2260
    145  O        -11.2220   30.8160   81.1460 O.2   135  GLU135     -0.2867
    146  CB       -12.7870   30.1110   83.7040 C.3   135  GLU135      0.0388
    147  CG       -12.9900   30.2040   85.2090 C.3   135  GLU135      0.1160
    148  CD       -14.4430   30.3080   85.6330 C.2   135  GLU135      0.3649
    149  OE1      -15.1150   31.2930   85.2440 O.co2 135  GLU135     -0.2457
    150  OE2      -14.9100   29.3950   86.3540 O.co2 135  GLU135     -0.2457
    151  N        -10.6840   35.3060   77.5470 N.3   138  LEU138     -0.1245
    152  CA        -9.2510   35.5940   77.5320 C.3   138  LEU138      0.1561
    153  C         -8.8920   36.9570   76.9870 C.2   138  LEU138      0.2260
    154  O         -9.6940   37.5740   76.2840 O.2   138  LEU138     -0.2867
    155  CB        -8.4910   34.4550   76.8350 C.3   138  LEU138      0.0270
    156  CG        -8.2800   33.2340   77.7320 C.3   138  LEU138      0.0019
    157  CD1       -8.2830   31.9890   76.9420 C.3   138  LEU138      0.0001
    158  CD2       -6.9870   33.3210   78.4870 C.3   138  LEU138      0.0001
    159  N        -12.8680   31.4330   74.4890 N.3   148  ALA148     -0.1231
    160  CA       -12.1840   30.1530   74.3780 C.3   148  ALA148      0.1694
    161  C        -13.1240   29.0580   74.8330 C.2   148  ALA148      0.2592
    162  O        -14.2470   29.3390   75.2500 O.2   148  ALA148     -0.2718
    163  CB       -10.9610   30.1660   75.2870 C.3   148  ALA148      0.0304
    164  N        -12.6390   27.8100   74.8020 N.am  149  ASP149     -0.1974
    165  CA       -13.2960   26.6160   75.3370 C.3   149  ASP149      0.1709
    166  C        -14.6840   26.3090   74.7940 C.2   149  ASP149      0.2293
    167  O        -15.6530   26.2300   75.5460 O.2   149  ASP149     -0.2864
    168  CB       -13.2420   26.6290   76.8820 C.3   149  ASP149      0.1436
    169  CG       -11.8410   26.7210   77.4600 C.2   149  ASP149      0.3671
    170  OD1      -11.7150   27.0820   78.6370 O.co2 149  ASP149     -0.2456
    171  OD2      -10.8700   26.4330   76.7270 O.co2 149  ASP149     -0.2456
@<TRIPOS>BOND
     1    48    47    2
     2    77    76   ar
     3    47    46    1
     4    57    56    2
     5    76    78   ar
     6    76    75    1
     7    56    55    1
     8    74    75    1
     9    74    71    1
    10    45    46    1
    11    70    71    1
    12    70    64   am
    13    46    49    1
    14    71    72    1
    15    54    55    1
    16    62    63    1
    17    64    63    1
    18    64    65    2
    19    63    66    1
    20    55    58    1
    21    69    67    1
    22    49    50    1
    23    67    66    1
    24    67    68    1
    25    72    79   am
    26    72    73    2
    27    50    51    1
    28    58    59    1
    29    79    80    1
    30    59    60    1
    31    59    61    1
    32    82    81    2
    33    34    33    2
    34    31    32    1
    35    51    53   ar
    36    51    52   ar
    37    80    83    1
    38    80    81    1
    39    83    84    1
    40    81    91   am
    41    33    32    1
    42    32    35    1
    43   160   159    1
    44   160   161    1
    45   160   163    1
    46    86    84   ar
    47    86    88   ar
    48   101   102    1
    49   101   100    1
    50    91    92    1
    51    84    85   ar
    52   102    96    1
    53    39    38    2
    54   166   165    1
    55   166   167    2
    56   164   161   am
    57   164   165    1
    58   161   162    2
    59    36    37    1
    60    92    95    1
    61    92    93    1
    62   165   168    1
    63    40    37    1
    64    40    41    1
    65    88    89   ar
    66    43    42    1
    67    43    44    1
    68    38    37    1
    69    96    93   am
    70    96    97    1
    71    42    41    1
    72   100    97    1
    73    85    87   ar
    74    93    94    2
    75   154   153    2
    76   171   169   ar
    77    89    87   ar
    78    89    90    1
    79    97    98    1
    80   155   152    1
    81   155   156    1
    82   168   169    1
    83   157   156    1
    84   153   152    1
    85   169   170   ar
    86   152   151    1
    87   156   158    1
    88    29    28    1
    89   103    98   am
    90   103   104    1
    91    98    99    2
    92   108   109    1
    93   108   107    1
    94   108   110    1
    95    18    17    1
    96   107   104    1
    97    30    28    1
    98    28    25    1
    99   104   105    1
   100    25    26    1
   101    25    24    1
   102    26    27    2
   103   114   113    2
   104   111   105   am
   105   111   112    1
   106    17    19    1
   107    17    16    1
   108   105   106    2
   109   113   112    1
   110   113   115   am
   111    16    13    1
   112   145   144    2
   113     1     2    1
   114     4     3    2
   115   144   143    1
   116   115   116    1
   117   116   117    1
   118   116   119    1
   119   121   119    1
   120     3     2    1
   121    12    13    1
   122    13    14    1
   123     2     5    1
   124   117   118    2
   125   119   120    1
   126     6     5    1
   127     6     7    1
   128   143   142    1
   129   143   146    1
   130    20    14   am
   131    20    21    1
   132    14    15    2
   133    11     9    1
   134    23    22    2
   135     8     9    2
   136     8     7    1
   137     9    10    1
   138   146   147    1
   139    21    22    1
   140   147   148    1
   141   149   148   ar
   142   148   150   ar
   143   122   123    1
   144   126   127    1
   145   126   123    1
   146   127   128    1
   147   123   124    1
   148   141   140    1
   149   124   125    2
   150   129   128    1
   151   129   130    2
   152   140   139    1
   153   132   130    1
   154   139   138    1
   155   130   131    1
   156   138   137    1
   157   137   134    1
   158   133   134    1
   159   134   135    1
   160   135   136    2
