@<TRIPOS>MOLECULE
tmp/3myhA01.pdb
 160 152 0 0 0
SMALL
GASTEIGER

@<TRIPOS>ATOM
      1  N         24.1590  -29.2720   33.4730 N.3   231  ARG231     -0.1245
      2  CA        24.7940  -29.5730   34.7900 C.3   231  ARG231      0.1563
      3  C         23.6330  -29.8890   35.7810 C.2   231  ARG231      0.2260
      4  O         23.8190  -29.9980   36.9700 O.2   231  ARG231     -0.2867
      5  CB        25.5780  -28.3690   35.2590 C.3   231  ARG231      0.0307
      6  CG        26.5970  -27.9230   34.1410 C.3   231  ARG231      0.0489
      7  CD        27.3430  -29.1620   33.5440 C.3   231  ARG231      0.2205
      8  NE        28.1920  -29.8300   34.5460 N.pl3 231  ARG231     -0.0865
      9  CZ        28.5440  -31.1120   34.4470 C.cat 231  ARG231      0.5346
     10  NH1       28.1060  -31.8320   33.4170 N.pl3 231  ARG231      0.1354
     11  NH2       29.3520  -31.6730   35.3250 N.pl3 231  ARG231      0.1354
     12  N         19.8280  -32.4570   35.6180 N.3   233  GLY233     -0.1225
     13  CA        18.9750  -33.2760   34.8200 C.3   233  GLY233      0.1811
     14  C         17.5370  -32.7530   34.8960 C.2   233  GLY233      0.2280
     15  O         17.1870  -31.9900   35.8300 O.2   233  GLY233     -0.2866
     16  N         16.3760  -31.7140   38.5550 N.3   254  TYR254     -0.1227
     17  CA        17.0910  -32.5580   39.4750 C.3   254  TYR254      0.1736
     18  C         18.3100  -31.7840   39.9700 C.2   254  TYR254      0.2595
     19  O         18.5760  -30.6930   39.5280 O.2   254  TYR254     -0.2718
     20  CB        17.4480  -33.9100   38.8520 C.3   254  TYR254      0.0548
     21  CG        16.1980  -34.6790   38.4450 C.ar  254  TYR254     -0.0200
     22  CD1       15.2450  -35.0450   39.4120 C.ar  254  TYR254     -0.0009
     23  CD2       15.9980  -35.0700   37.0990 C.ar  254  TYR254     -0.0009
     24  CE1       14.0720  -35.7710   38.9980 C.ar  254  TYR254      0.0417
     25  CE2       14.8890  -35.7910   36.6990 C.ar  254  TYR254      0.0417
     26  CZ        13.9180  -36.1240   37.6640 C.ar  254  TYR254      0.1957
     27  OH        12.8100  -36.8230   37.2800 O.3   254  TYR254     -0.2866
     28  N         19.0080  -32.3340   40.9490 N.am  255  LEU255     -0.1966
     29  CA        20.0390  -31.5620   41.6420 C.3   255  LEU255      0.1728
     30  C         20.9950  -30.8530   40.6520 C.2   255  LEU255      0.2616
     31  O         21.5150  -31.4840   39.6980 O.2   255  LEU255     -0.2715
     32  CB        20.8620  -32.5500   42.5180 C.3   255  LEU255      0.0311
     33  CG        20.2480  -33.0880   43.8460 C.3   255  LEU255      0.0022
     34  CD1       21.0490  -34.2440   44.4810 C.3   255  LEU255      0.0001
     35  CD2       19.9950  -31.9050   44.8730 C.3   255  LEU255      0.0001
     36  N         21.2770  -29.5870   40.9050 N.am  256  LEU256     -0.1963
     37  CA        22.1830  -28.8140   40.0610 C.3   256  LEU256      0.1728
     38  C         23.6380  -28.9480   40.5910 C.2   256  LEU256      0.2616
     39  O         23.8590  -28.9940   41.8420 O.2   256  LEU256     -0.2715
     40  CB        21.7640  -27.3460   40.2090 C.3   256  LEU256      0.0311
     41  CG        22.6600  -26.3390   39.4430 C.3   256  LEU256      0.0022
     42  CD1       22.5740  -26.5010   37.8680 C.3   256  LEU256      0.0001
     43  CD2       22.2520  -24.9290   39.8260 C.3   256  LEU256      0.0001
     44  N         24.6090  -29.0210   39.6820 N.am  257  GLU257     -0.1963
     45  CA        25.9980  -29.0710   40.1010 C.3   257  GLU257      0.1733
     46  C         26.4550  -27.6870   40.6400 C.2   257  GLU257      0.2616
     47  O         27.1480  -26.8970   39.9600 O.2   257  GLU257     -0.2715
     48  CB        26.8610  -29.4630   38.9200 C.3   257  GLU257      0.0429
     49  CG        28.3260  -29.6180   39.2140 C.3   257  GLU257      0.1163
     50  CD        29.1060  -29.4210   37.9150 C.2   257  GLU257      0.3649
     51  OE1       28.6630  -28.6180   37.0670 O.co2 257  GLU257     -0.2457
     52  OE2       30.1350  -30.0730   37.7550 O.co2 257  GLU257     -0.2457
     53  N         26.0800  -27.3630   41.8560 N.am  258  LYS258     -0.1977
     54  CA        26.3600  -25.9860   42.2840 C.3   258  LYS258      0.1596
     55  C         27.8290  -25.7560   42.6420 C.2   258  LYS258      0.2287
     56  O         28.3030  -24.6390   42.6390 O.2   258  LYS258     -0.2864
     57  CB        25.3230  -25.5220   43.3650 C.3   258  LYS258      0.0298
     58  CG        25.3330  -26.3030   44.5830 C.3   258  LYS258      0.0038
     59  CD        24.0690  -25.8790   45.5470 C.3   258  LYS258      0.0206
     60  CE        24.2840  -26.6290   46.9250 C.3   258  LYS258      0.1093
     61  NZ        23.9570  -25.9440   48.2900 N.3   258  LYS258     -0.1314
     62  N         18.7040  -36.3000   31.3070 N.3   448  ILE448     -0.1231
     63  CA        19.6740  -36.2770   32.3970 C.3   448  ILE448      0.1692
     64  C         21.0510  -35.7150   31.9740 C.2   448  ILE448      0.2592
     65  O         21.3250  -35.5720   30.7820 O.2   448  ILE448     -0.2718
     66  CB        19.8590  -37.7230   32.9440 C.3   448  ILE448      0.0266
     67  CG1       20.5140  -38.6890   31.9300 C.3   448  ILE448      0.0019
     68  CG2       18.5380  -38.3590   33.2870 C.3   448  ILE448      0.0020
     69  CD1       20.8530  -40.0550   32.6340 C.3   448  ILE448      0.0001
     70  N         21.8550  -35.2830   32.9310 N.am  449  SER449     -0.1952
     71  CA        23.2780  -35.1200   32.6880 C.3   449  SER449      0.1924
     72  C         23.8420  -36.5190   32.3460 C.2   449  SER449      0.2314
     73  O         23.6210  -37.4950   33.0350 O.2   449  SER449     -0.2863
     74  CB        24.0130  -34.5520   33.9060 C.3   449  SER449      0.2116
     75  OG        23.5280  -33.2450   34.1330 O.3   449  SER449     -0.2180
     76  N         32.0670  -36.3610   43.8770 N.3   459  PHE459     -0.1227
     77  CA        30.7800  -36.9020   44.3090 C.3   459  PHE459      0.1736
     78  C         29.7060  -36.5900   43.2550 C.2   459  PHE459      0.2595
     79  O         28.8120  -37.4150   43.0250 O.2   459  PHE459     -0.2718
     80  CB        30.3810  -36.2010   45.6030 C.3   459  PHE459      0.0547
     81  CG        28.9990  -36.5170   46.0720 C.ar  459  PHE459     -0.0202
     82  CD1       28.6510  -37.8110   46.4070 C.ar  459  PHE459     -0.0042
     83  CD2       28.0570  -35.4990   46.2270 C.ar  459  PHE459     -0.0042
     84  CE1       27.3440  -38.1050   46.8760 C.ar  459  PHE459     -0.0003
     85  CE2       26.7270  -35.8240   46.6700 C.ar  459  PHE459     -0.0003
     86  CZ        26.4310  -37.1090   46.9980 C.ar  459  PHE459     -0.0000
     87  N         29.7590  -35.4120   42.6400 N.am  460  GLU460     -0.1979
     88  CA        28.7430  -35.1020   41.5900 C.3   460  GLU460      0.1602
     89  C         28.8220  -36.1230   40.4270 C.2   460  GLU460      0.2287
     90  O         27.7830  -36.5380   39.8550 O.2   460  GLU460     -0.2864
     91  CB        28.9580  -33.6380   41.0470 C.3   460  GLU460      0.0415
     92  CG        28.6620  -32.5570   42.1300 C.3   460  GLU460      0.1163
     93  CD        29.9300  -32.1930   42.9320 C.2   460  GLU460      0.3649
     94  OE1       30.8910  -33.0240   42.9580 O.co2 460  GLU460     -0.2457
     95  OE2       29.9190  -31.0850   43.5480 O.co2 460  GLU460     -0.2457
     96  N         27.1790  -39.4480   41.2670 N.3   463  CYS463     -0.1221
     97  CA        25.6830  -39.4340   41.2170 C.3   463  CYS463      0.1808
     98  C         25.2260  -39.3690   39.7220 C.2   463  CYS463      0.2601
     99  O         24.2880  -40.0100   39.3270 O.2   463  CYS463     -0.2717
    100  CB        25.1300  -38.2280   41.9380 C.3   463  CYS463      0.0970
    101  SG        25.3920  -38.3450   43.7720 S.3   463  CYS463     -0.0800
    102  N         25.8790  -38.5300   38.9390 N.am  464  ILE464     -0.1979
    103  CA        25.5990  -38.5050   37.5070 C.3   464  ILE464      0.1595
    104  C         25.6930  -39.8840   36.8920 C.2   464  ILE464      0.2287
    105  O         24.7820  -40.3660   36.1510 O.2   464  ILE464     -0.2864
    106  CB        26.5450  -37.5060   36.8050 C.3   464  ILE464      0.0276
    107  CG1       26.0860  -36.1200   37.1440 C.3   464  ILE464      0.0022
    108  CG2       26.5460  -37.6940   35.2360 C.3   464  ILE464      0.0022
    109  CD1       27.0610  -35.0520   36.7430 C.3   464  ILE464      0.0001
    110  N         23.1250  -42.3280   37.8480 N.3   467  THR467     -0.1218
    111  CA        21.8570  -42.0010   37.1630 C.3   467  THR467      0.1862
    112  C         21.8710  -42.6330   35.8100 C.2   467  THR467      0.2287
    113  O         20.8730  -43.2650   35.4080 O.2   467  THR467     -0.2866
    114  CB        21.6180  -40.5010   37.0050 C.3   467  THR467      0.1770
    115  OG1       21.7000  -39.8550   38.2930 O.3   467  THR467     -0.2211
    116  CG2       20.1510  -40.2730   36.4280 C.3   467  THR467      0.0375
    117  N         22.7860  -34.6550   50.8250 N.3   623  VAL623     -0.1245
    118  CA        22.6880  -34.5540   49.3710 C.3   623  VAL623      0.1561
    119  C         22.4630  -35.9660   48.8120 C.2   623  VAL623      0.2260
    120  O         21.5530  -36.1340   47.9800 O.2   623  VAL623     -0.2867
    121  CB        23.8680  -33.7720   48.7010 C.3   623  VAL623      0.0252
    122  CG1       23.7310  -33.7530   47.1320 C.3   623  VAL623      0.0019
    123  CG2       23.9550  -32.2880   49.2620 C.3   623  VAL623      0.0019
    124  N         19.4750  -36.8860   46.5410 N.3   627  TYR627     -0.1241
    125  CA        19.7140  -37.5860   45.2550 C.3   627  TYR627      0.1605
    126  C         18.7650  -38.8190   45.1420 C.2   627  TYR627      0.2264
    127  O         17.9620  -38.9960   44.1590 O.2   627  TYR627     -0.2867
    128  CB        21.2090  -37.9920   45.0720 C.3   627  TYR627      0.0534
    129  CG        21.3000  -38.8520   43.8610 C.ar  627  TYR627     -0.0201
    130  CD1       21.4450  -38.2680   42.6040 C.ar  627  TYR627     -0.0009
    131  CD2       21.2150  -40.2300   43.9500 C.ar  627  TYR627     -0.0009
    132  CE1       21.4990  -39.0380   41.4560 C.ar  627  TYR627      0.0417
    133  CE2       21.2530  -41.0080   42.8210 C.ar  627  TYR627      0.0417
    134  CZ        21.3560  -40.4330   41.5930 C.ar  627  TYR627      0.1957
    135  OH        21.3230  -41.2200   40.4690 O.3   627  TYR627     -0.2866
    136  N         15.1410  -38.1400   44.6440 N.3   630  GLN630     -0.1231
    137  CA        14.7810  -37.6880   43.2650 C.3   630  GLN630      0.1698
    138  C         14.7860  -38.8310   42.2710 C.2   630  GLN630      0.2592
    139  O         13.8820  -38.9840   41.4340 O.2   630  GLN630     -0.2718
    140  CB        15.7490  -36.5650   42.8400 C.3   630  GLN630      0.0381
    141  CG        15.4240  -35.2400   43.5370 C.3   630  GLN630      0.0905
    142  CD        16.3790  -34.1030   43.1630 C.2   630  GLN630      0.2608
    143  OE1       17.2470  -34.2670   42.3050 O.2   630  GLN630     -0.2717
    144  NE2       16.2990  -32.9840   43.9110 N.am  630  GLN630     -0.0878
    145  N         15.8060  -39.6680   42.3680 N.am  631  LEU631     -0.1980
    146  CA        15.9110  -40.7750   41.4620 C.3   631  LEU631      0.1596
    147  C         14.7210  -41.7330   41.7230 C.2   631  LEU631      0.2287
    148  O         14.1320  -42.2420   40.8080 O.2   631  LEU631     -0.2864
    149  CB        17.2470  -41.5200   41.7310 C.3   631  LEU631      0.0297
    150  CG        17.4240  -42.8740   40.9650 C.3   631  LEU631      0.0022
    151  CD1       17.6340  -42.5580   39.4860 C.3   631  LEU631      0.0001
    152  CD2       18.6270  -43.6390   41.4510 C.3   631  LEU631      0.0001
    153  N         11.6880  -40.3930   40.0640 N.3   634  LEU634     -0.1245
    154  CA        11.7050  -40.5610   38.6070 C.3   634  LEU634      0.1561
    155  C         11.3640  -42.0080   38.2670 C.2   634  LEU634      0.2260
    156  O         10.5560  -42.2680   37.3700 O.2   634  LEU634     -0.2867
    157  CB        13.1210  -40.2110   38.0200 C.3   634  LEU634      0.0270
    158  CG        13.3600  -40.6350   36.5600 C.3   634  LEU634      0.0019
    159  CD1       12.3570  -39.9080   35.6140 C.3   634  LEU634      0.0001
    160  CD2       14.8750  -40.3600   36.1550 C.3   634  LEU634      0.0001
@<TRIPOS>BOND
     1    65    64    2
     2    62    63    1
     3    67    69    1
     4    67    66    1
     5    64    63    1
     6    64    70   am
     7    72    71    1
     8    72    73    2
     9    63    66    1
    10    71    70    1
    11    71    74    1
    12    66    68    1
    13    10     9    1
    14     1     2    1
    15     7     6    1
    16     7     8    1
    17    74    75    1
    18     6     5    1
    19     9     8    2
    20     9    11    1
    21     2     5    1
    22     2     3    1
    23    13    14    1
    24    13    12    1
    25    14    15    2
    26   108   106    1
    27   113   112    2
    28   159   158    1
    29     3     4    2
    30   112   111    1
    31   105   104    2
    32   160   158    1
    33   116   114    1
    34   158   157    1
    35    25    23   ar
    36    25    26   ar
    37   109   107    1
    38   106   107    1
    39   106   103    1
    40   104   103    1
    41   114   111    1
    42   114   115    1
    43    51    50   ar
    44    23    21   ar
    45   111   110    1
    46    27    26    1
    47   156   155    2
    48   103   102    1
    49    26    24   ar
    50    52    50   ar
    51    42    41    1
    52    50    49    1
    53   157   154    1
    54   155   154    1
    55    21    20    1
    56    21    22   ar
    57    16    17    1
    58   154   153    1
    59    20    17    1
    60    48    49    1
    61    48    45    1
    62   102    98   am
    63    24    22   ar
    64    99    98    2
    65    41    43    1
    66    41    40    1
    67    17    18    1
    68   151   150    1
    69    19    18    2
    70    44    45    1
    71    44    38   am
    72    31    30    2
    73    98    97    1
    74    90    89    2
    75    47    46    2
    76    18    28   am
    77    37    40    1
    78    37    38    1
    79    37    36    1
    80    45    46    1
    81    89    88    1
    82   135   134    1
    83    38    39    2
    84    46    53   am
    85    30    36   am
    86    30    29    1
    87   148   147    2
    88    28    29    1
    89   150   152    1
    90   150   149    1
    91    91    88    1
    92    91    92    1
    93    97    96    1
    94    97   100    1
    95   139   138    2
    96   132   134   ar
    97   132   130   ar
    98   146   147    1
    99   146   149    1
   100   146   145    1
   101    88    87    1
   102   134   133   ar
   103    29    32    1
   104    53    54    1
   105   100   101    1
   106    92    93    1
   107   138   145   am
   108   138   137    1
   109    54    55    1
   110    54    57    1
   111   143   142    2
   112    32    33    1
   113   130   129   ar
   114    56    55    2
   115    87    78   am
   116   133   131   ar
   117   140   137    1
   118   140   141    1
   119    93    94   ar
   120    93    95   ar
   121    79    78    2
   122   142   141    1
   123   142   144   am
   124    78    77    1
   125   137   136    1
   126    57    58    1
   127    33    34    1
   128    33    35    1
   129   129   131   ar
   130   129   128    1
   131    76    77    1
   132   127   126    2
   133    77    80    1
   134    58    59    1
   135   128   125    1
   136   126   125    1
   137   125   124    1
   138    59    60    1
   139    80    81    1
   140    81    83   ar
   141    81    82   ar
   142    83    85   ar
   143    82    84   ar
   144    85    86   ar
   145    84    86   ar
   146    60    61    1
   147   122   121    1
   148   120   119    2
   149   121   123    1
   150   121   118    1
   151   119   118    1
   152   118   117    1
