@<TRIPOS>MOLECULE
tmp/3mykA01.pdb
 220 216 0 0 0
SMALL
GASTEIGER

@<TRIPOS>ATOM
      1  N         21.4800   39.2060  -10.1350 N.3   114  ILE114     -0.1231
      2  CA        21.9320   39.4400  -11.5110 C.3   114  ILE114      0.1692
      3  C         20.9790   40.3390  -12.2590 C.2   114  ILE114      0.2592
      4  O         21.3380   40.8590  -13.3230 O.2   114  ILE114     -0.2718
      5  CB        22.0480   38.0870  -12.2640 C.3   114  ILE114      0.0266
      6  CG1       20.6540   37.3750  -12.3990 C.3   114  ILE114      0.0019
      7  CG2       23.2110   37.2290  -11.6480 C.3   114  ILE114      0.0020
      8  CD1       20.7540   36.0610  -13.2460 C.3   114  ILE114      0.0001
      9  N         19.7620   40.5420  -11.7470 N.am  115  TYR115     -0.1976
     10  CA        18.8030   41.3940  -12.4500 C.3   115  TYR115      0.1639
     11  C         18.6870   42.7600  -11.7670 C.2   115  TYR115      0.2290
     12  O         18.5570   42.8360  -10.5220 O.2   115  TYR115     -0.2864
     13  CB        17.3730   40.7760  -12.4050 C.3   115  TYR115      0.0560
     14  CG        17.2940   39.5010  -13.2200 C.ar  115  TYR115     -0.0198
     15  CD1       17.5460   39.5320  -14.6280 C.ar  115  TYR115     -0.0009
     16  CD2       16.9800   38.2920  -12.6120 C.ar  115  TYR115     -0.0009
     17  CE1       17.5450   38.3180  -15.3550 C.ar  115  TYR115      0.0417
     18  CE2       16.9270   37.0830  -13.3470 C.ar  115  TYR115      0.0417
     19  CZ        17.2110   37.1200  -14.7290 C.ar  115  TYR115      0.1957
     20  OH        17.1790   35.9050  -15.5110 O.3   115  TYR115     -0.2866
     21  N         25.2980   38.1220  -16.5930 N.3   126  ASN126     -0.1226
     22  CA        25.4480   36.6510  -16.5720 C.3   126  ASN126      0.1770
     23  C         26.2330   36.2030  -15.3140 C.2   126  ASN126      0.2439
     24  O         27.3580   36.6080  -15.1410 O.2   126  ASN126     -0.2733
     25  CB        26.2000   36.2000  -17.8340 C.3   126  ASN126      0.1168
     26  CG        26.1720   34.6650  -18.0570 C.2   126  ASN126      0.2627
     27  OD1       25.9120   33.8660  -17.1360 O.2   126  ASN126     -0.2716
     28  ND2       26.4010   34.2700  -19.3290 N.am  126  ASN126     -0.0877
     29  N         25.6200   35.3440  -14.4610 N.am  127  PRO127     -0.2718
     30  CA        26.3140   34.8030  -13.2380 C.3   127  PRO127      0.1535
     31  C         27.3400   33.7150  -13.5750 C.2   127  PRO127      0.2599
     32  O         28.2980   33.5360  -12.8040 O.2   127  PRO127     -0.2715
     33  CB        25.1860   34.1650  -12.4340 C.3   127  PRO127      0.0310
     34  CG        24.1820   33.6900  -13.5520 C.3   127  PRO127      0.0237
     35  CD        24.2380   34.8470  -14.5850 C.3   127  PRO127      0.0939
     36  N         27.2210   33.0760  -14.7570 N.am  128  PHE128     -0.1960
     37  CA        28.0650   31.8730  -15.1030 C.3   128  PHE128      0.1771
     38  C         28.0590   30.8480  -13.9670 C.2   128  PHE128      0.2619
     39  O         29.0800   30.1720  -13.7100 O.2   128  PHE128     -0.2715
     40  CB        29.5000   32.2340  -15.4680 C.3   128  PHE128      0.0574
     41  CG        29.6220   32.8130  -16.8630 C.ar  128  PHE128     -0.0200
     42  CD1       29.2320   31.9970  -17.9830 C.ar  128  PHE128     -0.0042
     43  CD2       30.0500   34.1000  -17.0660 C.ar  128  PHE128     -0.0042
     44  CE1       29.3600   32.4410  -19.3110 C.ar  128  PHE128     -0.0003
     45  CE2       30.1000   34.6050  -18.3630 C.ar  128  PHE128     -0.0003
     46  CZ        29.7270   33.7900  -19.5340 C.ar  128  PHE128     -0.0000
     47  N         26.9250   30.7630  -13.2820 N.am  129  LYS129     -0.1963
     48  CA        26.6640   29.6130  -12.3980 C.3   129  LYS129      0.1728
     49  C         25.1990   29.5540  -12.0860 C.2   129  LYS129      0.2616
     50  O         24.4380   30.5120  -12.3210 O.2   129  LYS129     -0.2715
     51  CB        27.4110   29.7640  -11.0970 C.3   129  LYS129      0.0311
     52  CG        26.9970   31.0560  -10.3050 C.3   129  LYS129      0.0038
     53  CD        27.3960   30.8400   -8.7900 C.3   129  LYS129      0.0206
     54  CE        26.8860   32.0730   -8.0010 C.3   129  LYS129      0.1093
     55  NZ        27.3680   32.0090   -6.5760 N.3   129  LYS129     -0.1314
     56  N         24.7420   28.4420  -11.5270 N.am  130  ARG130     -0.1963
     57  CA        23.2810   28.3500  -11.3310 C.3   130  ARG130      0.1729
     58  C         22.8780   29.1060  -10.0840 C.2   130  ARG130      0.2616
     59  O         23.5790   29.0760   -9.0970 O.2   130  ARG130     -0.2715
     60  CB        22.8420   26.8760  -11.2200 C.3   130  ARG130      0.0348
     61  CG        22.9820   26.1220  -12.5230 C.3   130  ARG130      0.0492
     62  CD        22.1520   26.5950  -13.7130 C.3   130  ARG130      0.2205
     63  NE        20.7130   26.4500  -13.3880 N.pl3 130  ARG130     -0.0865
     64  CZ        19.7750   27.1070  -14.0750 C.cat 130  ARG130      0.5346
     65  NH1       19.9960   27.9250  -15.0920 N.pl3 130  ARG130      0.1354
     66  NH2       18.4940   26.9380  -13.6760 N.pl3 130  ARG130      0.1354
     67  N         21.7720   29.8060  -10.1520 N.am  131  ILE131     -0.1977
     68  CA        21.1870   30.5240   -9.0160 C.3   131  ILE131      0.1596
     69  C         19.6950   30.0780   -8.9390 C.2   131  ILE131      0.2287
     70  O         18.9610   30.1470   -9.9500 O.2   131  ILE131     -0.2864
     71  CB        21.2900   32.0480   -9.2490 C.3   131  ILE131      0.0276
     72  CG1       22.7980   32.4640   -9.1600 C.3   131  ILE131      0.0022
     73  CG2       20.5040   32.8070   -8.1350 C.3   131  ILE131      0.0022
     74  CD1       23.0680   33.7890   -9.7470 C.3   131  ILE131      0.0001
     75  N         14.5750   30.3070  -10.4690 N.3   134  TYR134     -0.1241
     76  CA        13.6590   30.0010  -11.5660 C.3   134  TYR134      0.1605
     77  C         12.7500   28.8130  -11.2820 C.2   134  TYR134      0.2264
     78  O         12.3070   28.0980  -12.2120 O.2   134  TYR134     -0.2867
     79  CB        14.5130   29.6260  -12.7690 C.3   134  TYR134      0.0534
     80  CG        15.4970   30.7490  -13.1160 C.ar  134  TYR134     -0.0201
     81  CD1       15.0260   31.9920  -13.5720 C.ar  134  TYR134     -0.0009
     82  CD2       16.8640   30.5420  -12.9820 C.ar  134  TYR134     -0.0009
     83  CE1       15.9360   33.0130  -13.9200 C.ar  134  TYR134      0.0417
     84  CE2       17.7680   31.5570  -13.3220 C.ar  134  TYR134      0.0417
     85  CZ        17.2910   32.7570  -13.7950 C.ar  134  TYR134      0.1957
     86  OH        18.2480   33.7050  -14.1370 O.3   134  TYR134     -0.2866
     87  N         27.8700   37.7250  -27.7630 N.3   180  SER180     -0.1202
     88  CA        27.8690   36.2950  -27.5700 C.3   180  SER180      0.2020
     89  C         28.2900   35.8950  -26.1580 C.2   180  SER180      0.2619
     90  O         29.2950   36.4180  -25.6260 O.2   180  SER180     -0.2717
     91  CB        28.8510   35.6420  -28.5920 C.3   180  SER180      0.2103
     92  OG        28.8490   34.2450  -28.3950 O.3   180  SER180     -0.2182
     93  N         27.5420   34.9890  -25.5330 N.am  181  GLY181     -0.1942
     94  CA        27.8660   34.5560  -24.1620 C.3   181  GLY181      0.2014
     95  C         27.1530   35.3320  -23.0460 C.2   181  GLY181      0.2639
     96  O         27.3080   35.0160  -21.8590 O.2   181  GLY181     -0.2714
     97  N         26.4700   36.4080  -23.4210 N.am  182  ALA182     -0.1963
     98  CA        25.9300   37.3330  -22.3920 C.3   182  ALA182      0.1728
     99  C         24.7330   36.7770  -21.5910 C.2   182  ALA182      0.2617
    100  O         24.5090   37.2640  -20.4720 O.2   182  ALA182     -0.2715
    101  CB        25.5680   38.7270  -23.0190 C.3   182  ALA182      0.0334
    102  N         23.9510   35.8320  -22.1500 N.am  183  GLY183     -0.1940
    103  CA        22.7940   35.2450  -21.4590 C.3   183  GLY183      0.2014
    104  C         21.4560   35.2880  -22.2110 C.2   183  GLY183      0.2639
    105  O         20.3710   35.0390  -21.5990 O.2   183  GLY183     -0.2714
    106  N         21.4660   35.6530  -23.5130 N.am  184  LYS184     -0.1963
    107  CA        20.1920   35.8120  -24.2410 C.3   184  LYS184      0.1728
    108  C         19.3800   34.5360  -24.3040 C.2   184  LYS184      0.2617
    109  O         18.1300   34.5670  -24.1190 O.2   184  LYS184     -0.2715
    110  CB        20.4430   36.2250  -25.7240 C.3   184  LYS184      0.0311
    111  CG        21.1790   37.6290  -25.8120 C.3   184  LYS184      0.0038
    112  CD        21.3790   38.0300  -27.2760 C.3   184  LYS184      0.0206
    113  CE        22.3300   37.0780  -28.0110 C.3   184  LYS184      0.1093
    114  NZ        23.7090   36.9520  -27.4100 N.3   184  LYS184     -0.1314
    115  N         20.0550   33.4510  -24.6530 N.am  185  THR185     -0.1937
    116  CA        19.3480   32.1510  -24.8740 C.3   185  THR185      0.2028
    117  C         18.7950   31.6430  -23.5350 C.2   185  THR185      0.2642
    118  O         17.6370   31.1220  -23.4560 O.2   185  THR185     -0.2714
    119  CB        20.3070   31.2030  -25.5290 C.3   185  THR185      0.1808
    120  OG1       20.4560   31.6360  -26.8860 O.3   185  THR185     -0.2208
    121  CG2       19.7750   29.7770  -25.5250 C.3   185  THR185      0.0379
    122  N         19.5820   31.7880  -22.4630 N.am  186  GLU186     -0.1963
    123  CA        19.0520   31.3690  -21.1250 C.3   186  GLU186      0.1733
    124  C         17.9120   32.2120  -20.7090 C.2   186  GLU186      0.2616
    125  O         16.9170   31.6650  -20.1980 O.2   186  GLU186     -0.2715
    126  CB        20.1420   31.4640  -20.0430 C.3   186  GLU186      0.0429
    127  CG        21.3060   30.5010  -20.2430 C.3   186  GLU186      0.1163
    128  CD        20.8590   29.0320  -20.3550 C.2   186  GLU186      0.3649
    129  OE1       20.0000   28.5940  -19.5700 O.co2 186  GLU186     -0.2457
    130  OE2       21.3010   28.3520  -21.2780 O.co2 186  GLU186     -0.2457
    131  N         17.9750   33.5350  -20.8970 N.am  187  ASN187     -0.1972
    132  CA        16.8710   34.3330  -20.4850 C.3   187  ASN187      0.1688
    133  C         15.6290   34.1310  -21.3690 C.2   187  ASN187      0.2292
    134  O         14.4770   34.1380  -20.8520 O.2   187  ASN187     -0.2864
    135  CB        17.2450   35.8240  -20.4060 C.3   187  ASN187      0.1181
    136  CG        17.9490   36.1200  -19.1050 C.2   187  ASN187      0.2629
    137  OD1       17.3050   36.3710  -18.0620 O.2   187  ASN187     -0.2716
    138  ND2       19.2720   35.9960  -19.1270 N.am  187  ASN187     -0.0877
    139  N         13.7510   31.3280  -20.0160 N.3   190  LYS190     -0.1245
    140  CA        13.0110   31.6620  -18.7750 C.3   190  LYS190      0.1561
    141  C         11.7400   32.3980  -19.0700 C.2   190  LYS190      0.2260
    142  O         10.7020   32.2030  -18.3550 O.2   190  LYS190     -0.2867
    143  CB        13.8470   32.5270  -17.8210 C.3   190  LYS190      0.0271
    144  CG        15.1600   31.8250  -17.4050 C.3   190  LYS190      0.0035
    145  CD        15.0000   30.4200  -16.9110 C.3   190  LYS190      0.0206
    146  CE        16.4370   29.9190  -16.5960 C.3   190  LYS190      0.1093
    147  NZ        16.5740   28.5350  -16.0640 N.3   190  LYS190     -0.1314
    148  N         31.3680   31.2920  -26.3250 N.3   228  ASN228     -0.1225
    149  CA        30.2840   30.6810  -25.5990 C.3   228  ASN228      0.1785
    150  C         30.3180   29.1870  -25.8700 C.2   228  ASN228      0.2597
    151  O         30.2540   28.7890  -27.0420 O.2   228  ASN228     -0.2718
    152  CB        28.9080   31.2970  -26.0350 C.3   228  ASN228      0.1169
    153  CG        27.7330   30.7510  -25.2780 C.2   228  ASN228      0.2627
    154  OD1       27.8650   29.8570  -24.4470 O.2   228  ASN228     -0.2716
    155  ND2       26.5260   31.2770  -25.5560 N.am  228  ASN228     -0.0877
    156  N         30.4240   28.3800  -24.7890 N.am  229  ASN229     -0.1960
    157  CA        30.3620   26.9100  -24.9140 C.3   229  ASN229      0.1819
    158  C         29.0580   26.4260  -25.5140 C.2   229  ASN229      0.2621
    159  O         28.9980   25.2940  -25.9850 O.2   229  ASN229     -0.2715
    160  CB        30.4930   26.2480  -23.5090 C.3   229  ASN229      0.1195
    161  CG        31.9340   26.2270  -23.0170 C.2   229  ASN229      0.2630
    162  OD1       32.1930   26.2520  -21.7990 O.2   229  ASN229     -0.2716
    163  ND2       32.8430   26.3080  -23.8990 N.am  229  ASN229     -0.0877
    164  N         28.0080   27.2510  -25.3980 N.am  230  ASN230     -0.1958
    165  CA        26.7030   26.8910  -26.0150 C.3   230  ASN230      0.1819
    166  C         26.2130   28.0220  -26.9550 C.2   230  ASN230      0.2621
    167  O         25.0290   28.3920  -26.8950 O.2   230  ASN230     -0.2715
    168  CB        25.6430   26.5980  -24.9100 C.3   230  ASN230      0.1195
    169  CG        24.3660   25.9700  -25.4850 C.2   230  ASN230      0.2630
    170  OD1       24.4260   25.2090  -26.4450 O.2   230  ASN230     -0.2716
    171  ND2       23.2250   26.3180  -24.9240 N.am  230  ASN230     -0.0877
    172  N         27.0950   28.4700  -27.8710 N.am  231  ALA231     -0.1963
    173  CA        26.7810   29.6480  -28.7740 C.3   231  ALA231      0.1728
    174  C         25.6370   29.2750  -29.7020 C.2   231  ALA231      0.2617
    175  O         25.6480   28.1610  -30.3000 O.2   231  ALA231     -0.2715
    176  CB        28.0270   30.0420  -29.6440 C.3   231  ALA231      0.0334
    177  N         24.6740   30.1780  -29.8120 N.am  232  SER232     -0.1936
    178  CA        23.5750   29.9760  -30.7770 C.3   232  SER232      0.2055
    179  C         24.1150   30.2980  -32.1610 C.2   232  SER232      0.2642
    180  O         24.6160   31.4080  -32.3670 O.2   232  SER232     -0.2714
    181  CB        22.4420   30.9960  -30.4930 C.3   232  SER232      0.2130
    182  OG        21.9090   30.7310  -29.2190 O.3   232  SER232     -0.2179
    183  N         24.0340   29.3880  -33.1310 N.am  233  ARG233     -0.1977
    184  CA        24.6650   29.6980  -34.4600 C.3   233  ARG233      0.1597
    185  C         23.5040   29.8800  -35.4770 C.2   233  ARG233      0.2287
    186  O         23.7270   29.9040  -36.6910 O.2   233  ARG233     -0.2864
    187  CB        25.5790   28.5730  -34.9880 C.3   233  ARG233      0.0334
    188  CG        26.6670   28.1430  -33.9480 C.3   233  ARG233      0.0492
    189  CD        27.3450   29.4540  -33.4360 C.3   233  ARG233      0.2205
    190  NE        28.1350   30.1210  -34.4770 N.pl3 233  ARG233     -0.0865
    191  CZ        28.6550   31.3410  -34.3250 C.cat 233  ARG233      0.5346
    192  NH1       28.4760   32.0140  -33.1790 N.pl3 233  ARG233      0.1354
    193  NH2       29.4280   31.8540  -35.2670 N.pl3 233  ARG233      0.1354
    194  N         18.5890   36.4600  -30.9330 N.3   450  ILE450     -0.1231
    195  CA        19.5440   36.4100  -32.1220 C.3   450  ILE450      0.1692
    196  C         20.8960   35.8330  -31.7020 C.2   450  ILE450      0.2593
    197  O         21.2250   35.7840  -30.5060 O.2   450  ILE450     -0.2718
    198  CB        19.7730   37.8560  -32.6730 C.3   450  ILE450      0.0266
    199  CG1       20.4620   38.7780  -31.6440 C.3   450  ILE450      0.0019
    200  CG2       18.4100   38.5360  -33.1400 C.3   450  ILE450      0.0020
    201  CD1       20.8030   40.1720  -32.3320 C.3   450  ILE450      0.0001
    202  N         21.6950   35.4470  -32.6740 N.am  451  SER451     -0.1938
    203  CA        23.1130   35.2290  -32.3960 C.3   451  SER451      0.2055
    204  C         23.7790   36.5820  -32.0080 C.2   451  SER451      0.2643
    205  O         23.6360   37.5820  -32.6710 O.2   451  SER451     -0.2714
    206  CB        23.8620   34.6460  -33.6290 C.3   451  SER451      0.2130
    207  OG        23.1620   33.4560  -33.9420 O.3   451  SER451     -0.2179
    208  N         24.5490   36.5660  -30.9210 N.am  452  GLY452     -0.1954
    209  CA        25.0910   37.8040  -30.3500 C.3   452  GLY452      0.1869
    210  C         26.3350   38.3310  -31.0570 C.2   452  GLY452      0.2309
    211  O         27.0760   37.6010  -31.7160 O.2   452  GLY452     -0.2863
    212  N         34.0260   33.2460  -19.2930 N.3   657  GLN657     -0.1245
    213  CA        32.9170   32.3560  -18.9360 C.3   657  GLN657      0.1566
    214  C         33.0620   31.8590  -17.4920 C.2   657  GLN657      0.2260
    215  O         32.7330   30.6860  -17.1830 O.2   657  GLN657     -0.2867
    216  CB        32.7110   31.1650  -19.9300 C.3   657  GLN657      0.0367
    217  CG        32.4430   31.7020  -21.3810 C.3   657  GLN657      0.0905
    218  CD        32.3680   30.5750  -22.3860 C.2   657  GLN657      0.2608
    219  OE1       33.2790   30.4190  -23.1790 O.2   657  GLN657     -0.2717
    220  NE2       31.3040   29.8050  -22.3560 N.am  657  GLN657     -0.0878
@<TRIPOS>BOND
     1   186   185    2
     2   185   184    1
     3   193   191    1
     4   187   184    1
     5   187   188    1
     6   190   191    2
     7   190   189    1
     8   184   183    1
     9   191   192    1
    10   188   189    1
    11   207   206    1
    12   206   203    1
    13   200   198    1
    14   183   179   am
    15   202   203    1
    16   202   196   am
    17   198   195    1
    18   198   199    1
    19   205   204    2
    20   203   204    1
    21   180   179    2
    22   201   199    1
    23   179   178    1
    24   195   196    1
    25   195   194    1
    26   204   208   am
    27   211   210    2
    28   196   197    2
    29   210   209    1
    30   208   209    1
    31   178   181    1
    32   178   177    1
    33   181   182    1
    34   175   174    2
    35   177   174   am
    36   174   173    1
    37   176   173    1
    38   173   172    1
    39    91    92    1
    40    91    88    1
    41   113   114    1
    42   113   112    1
    43   172   166   am
    44    87    88    1
    45    88    89    1
    46   112   111    1
    47   151   150    2
    48   166   167    2
    49   166   165    1
    50   120   119    1
    51   170   169    2
    52   148   149    1
    53    89    90    2
    54    89    93   am
    55   152   149    1
    56   152   153    1
    57   165   164    1
    58   165   168    1
    59   159   158    2
    60   150   149    1
    61   150   156   am
    62   111   110    1
    63   110   107    1
    64   155   153   am
    65    93    94    1
    66   119   121    1
    67   119   116    1
    68   158   164   am
    69   158   157    1
    70   169   171   am
    71   169   168    1
    72   153   154    2
    73   157   156    1
    74   157   160    1
    75   116   115    1
    76   116   117    1
    77   115   108   am
    78   108   107    1
    79   108   109    2
    80   107   106    1
    81    94    95    1
    82   163   161   am
    83   117   118    2
    84   117   122   am
    85   106   104   am
    86   160   161    1
    87    97    95   am
    88    97    98    1
    89   219   218    2
    90    95    96    2
    91   101    98    1
    92   161   162    2
    93   122   123    1
    94    98    99    1
    95   218   220   am
    96   218   217    1
    97   104   105    2
    98   104   103    1
    99   102    99   am
   100   102   103    1
   101    99   100    2
   102   217   216    1
   103   133   134    2
   104   133   132    1
   105   130   128   ar
   106   123   124    1
   107   123   126    1
   108   131   124   am
   109   131   132    1
   110   124   125    2
   111   132   135    1
   112   135   136    1
   113   128   127    1
   114   128   129   ar
   115   127   126    1
   116   139   140    1
   117   216   213    1
   118    46    44   ar
   119    46    45   ar
   120    28    26   am
   121    44    42   ar
   122   212   213    1
   123   138   136   am
   124   136   137    2
   125   141   140    1
   126   141   142    2
   127   213   214    1
   128   140   143    1
   129    45    43   ar
   130    26    25    1
   131    26    27    2
   132    42    41   ar
   133    25    22    1
   134   143   144    1
   135   214   215    2
   136   144   145    1
   137    43    41   ar
   138   145   146    1
   139    41    40    1
   140   146   147    1
   141    21    22    1
   142    22    23    1
   143    20    19    1
   144    40    37    1
   145    17    19   ar
   146    17    15   ar
   147    23    24    2
   148    23    29   am
   149    37    36    1
   150    37    38    1
   151    65    64    1
   152    36    31   am
   153    19    18   ar
   154    15    14   ar
   155    35    29    1
   156    35    34    1
   157    29    30    1
   158    86    85    1
   159    64    66    1
   160    64    63    2
   161    38    39    2
   162    38    47   am
   163    83    85   ar
   164    83    81   ar
   165    85    84   ar
   166    62    63    1
   167    62    61    1
   168    31    30    1
   169    31    32    2
   170    81    80   ar
   171    34    33    1
   172    18    16   ar
   173     4     3    2
   174    84    82   ar
   175    47    48    1
   176     8     6    1
   177    30    33    1
   178    14    16   ar
   179    14    13    1
   180    80    82   ar
   181    80    79    1
   182    79    76    1
   183    61    60    1
   184    10    13    1
   185    10    11    1
   186    10     9    1
   187     6     5    1
   188    48    49    1
   189    48    51    1
   190    50    49    2
   191     5     7    1
   192     5     2    1
   193     3     9   am
   194     3     2    1
   195    78    77    2
   196    49    56   am
   197    11    12    2
   198    76    77    1
   199    76    75    1
   200    56    57    1
   201     2     1    1
   202    57    60    1
   203    57    58    1
   204    51    52    1
   205    52    53    1
   206    67    58   am
   207    67    68    1
   208    58    59    2
   209    70    69    2
   210    74    72    1
   211    71    72    1
   212    71    68    1
   213    71    73    1
   214    68    69    1
   215    53    54    1
   216    54    55    1
