@<TRIPOS>MOLECULE
tmp/3mylA00.pdb
 96 91 0 0 0
SMALL
GASTEIGER

@<TRIPOS>ATOM
      1  N         39.7030  -41.4510   -6.8070 N.3   126  ASN126     -0.1240
      2  CA        40.5870  -40.3190   -6.7990 C.3   126  ASN126      0.1653
      3  C         42.0190  -40.8240   -6.3590 C.2   126  ASN126      0.2266
      4  O         42.1440  -41.4690   -5.3050 O.2   126  ASN126     -0.2867
      5  CB        40.1110  -39.2820   -5.7640 C.3   126  ASN126      0.1155
      6  CG        40.7670  -37.9010   -5.9660 C.2   126  ASN126      0.2627
      7  OD1       41.8920  -37.7900   -6.4540 O.2   126  ASN126     -0.2716
      8  ND2       40.0560  -36.8640   -5.6030 N.am  126  ASN126     -0.0877
      9  N         32.0550  -35.9610   -1.3440 N.3   180  SER180     -0.1202
     10  CA        32.8820  -34.7910   -1.4640 C.3   180  SER180      0.2020
     11  C         34.4070  -35.1690   -1.5130 C.2   180  SER180      0.2619
     12  O         34.8820  -35.9810   -0.7170 O.2   180  SER180     -0.2717
     13  CB        32.6060  -33.7930   -0.3170 C.3   180  SER180      0.2103
     14  OG        33.5580  -32.6950   -0.4450 O.3   180  SER180     -0.2182
     15  N         35.1280  -34.6250   -2.5070 N.am  181  GLY181     -0.1942
     16  CA        36.5910  -34.9760   -2.6930 C.3   181  GLY181      0.2014
     17  C         36.8130  -36.1780   -3.6240 C.2   181  GLY181      0.2639
     18  O         37.9770  -36.4960   -3.9650 O.2   181  GLY181     -0.2714
     19  N         35.7280  -36.8290   -4.0770 N.am  182  ALA182     -0.1963
     20  CA        35.8540  -38.0220   -4.9230 C.3   182  ALA182      0.1728
     21  C         36.3760  -37.7140   -6.3360 C.2   182  ALA182      0.2617
     22  O         36.8820  -38.5810   -6.9880 O.2   182  ALA182     -0.2715
     23  CB        34.4920  -38.8140   -5.0170 C.3   182  ALA182      0.0334
     24  N         36.3140  -36.4560   -6.7900 N.am  183  GLY183     -0.1940
     25  CA        36.8020  -36.1080   -8.1430 C.3   183  GLY183      0.2014
     26  C         35.7630  -35.8070   -9.1930 C.2   183  GLY183      0.2639
     27  O         36.0640  -35.8100  -10.3820 O.2   183  GLY183     -0.2714
     28  N         34.5050  -35.6210   -8.7970 N.am  184  LYS184     -0.1963
     29  CA        33.4420  -35.3590   -9.7970 C.3   184  LYS184      0.1728
     30  C         33.6190  -34.1400  -10.6380 C.2   184  LYS184      0.2617
     31  O         33.4130  -34.1960  -11.8720 O.2   184  LYS184     -0.2715
     32  CB        32.1040  -35.1770   -9.0720 C.3   184  LYS184      0.0311
     33  CG        31.6390  -36.4270   -8.1690 C.3   184  LYS184      0.0038
     34  CD        30.2990  -36.0690   -7.4880 C.3   184  LYS184      0.0206
     35  CE        30.4560  -34.8880   -6.4560 C.3   184  LYS184      0.1093
     36  NZ        31.3320  -35.2340   -5.2790 N.3   184  LYS184     -0.1314
     37  N         33.9700  -33.0050   -9.9940 N.am  185  THR185     -0.1937
     38  CA        34.1390  -31.7870  -10.7570 C.3   185  THR185      0.2028
     39  C         35.3350  -31.8880  -11.7560 C.2   185  THR185      0.2642
     40  O         35.2640  -31.4280  -12.9470 O.2   185  THR185     -0.2714
     41  CB        34.2570  -30.6180   -9.7980 C.3   185  THR185      0.1808
     42  OG1       33.0000  -30.5580   -9.0960 O.3   185  THR185     -0.2208
     43  CG2       34.4560  -29.2690  -10.5530 C.3   185  THR185      0.0379
     44  N         36.4230  -32.4840  -11.3010 N.am  186  GLU186     -0.1976
     45  CA        37.5410  -32.6180  -12.2230 C.3   186  GLU186      0.1602
     46  C         37.1380  -33.5090  -13.3930 C.2   186  GLU186      0.2287
     47  O         37.4750  -33.2050  -14.5060 O.2   186  GLU186     -0.2864
     48  CB        38.7960  -33.1920  -11.5190 C.3   186  GLU186      0.0415
     49  CG        39.4720  -32.0750  -10.7040 C.3   186  GLU186      0.1163
     50  CD        40.0910  -31.0110  -11.5750 C.2   186  GLU186      0.3649
     51  OE1       40.5920  -31.3390  -12.6550 O.co2 186  GLU186     -0.2457
     52  OE2       39.9890  -29.8210  -11.2180 O.co2 186  GLU186     -0.2457
     53  N         37.5630  -31.0990    1.2210 N.3   226  ASN226     -0.1240
     54  CA        37.9810  -30.7190   -0.1100 C.3   226  ASN226      0.1653
     55  C         38.3660  -29.2650   -0.1100 C.2   226  ASN226      0.2266
     56  O         37.5730  -28.3780    0.2960 O.2   226  ASN226     -0.2867
     57  CB        36.7540  -30.9110   -1.0820 C.3   226  ASN226      0.1155
     58  CG        37.0970  -30.8300   -2.5380 C.2   226  ASN226      0.2627
     59  OD1       38.1900  -30.3690   -2.9520 O.2   226  ASN226     -0.2716
     60  ND2       36.1150  -31.2710   -3.4020 N.am  226  ASN226     -0.0877
     61  N         38.7280  -27.5720   -2.6690 N.3   228  ASN228     -0.1225
     62  CA        37.9960  -26.9350   -3.7460 C.3   228  ASN228      0.1785
     63  C         36.5610  -27.5850   -3.8760 C.2   228  ASN228      0.2597
     64  O         36.1510  -28.0610   -4.9670 O.2   228  ASN228     -0.2718
     65  CB        38.7720  -26.9670   -5.0970 C.3   228  ASN228      0.1169
     66  CG        38.0870  -26.1070   -6.1830 C.2   228  ASN228      0.2627
     67  OD1       37.3190  -25.1760   -5.8690 O.2   228  ASN228     -0.2716
     68  ND2       38.3000  -26.4530   -7.4530 N.am  228  ASN228     -0.0877
     69  N         35.8230  -27.5570   -2.7700 N.am  229  ALA229     -0.1966
     70  CA        34.5240  -28.2190   -2.7110 C.3   229  ALA229      0.1728
     71  C         33.4950  -27.4400   -3.5010 C.2   229  ALA229      0.2617
     72  O         33.3410  -26.2070   -3.2920 O.2   229  ALA229     -0.2715
     73  CB        34.0290  -28.3360   -1.2510 C.3   229  ALA229      0.0334
     74  N         32.7270  -28.1440   -4.3150 N.am  230  SER230     -0.1936
     75  CA        31.5270  -27.5430   -4.9610 C.3   230  SER230      0.2055
     76  C         30.3900  -27.4260   -3.9600 C.2   230  SER230      0.2642
     77  O         29.9400  -28.4410   -3.4520 O.2   230  SER230     -0.2714
     78  CB        31.0420  -28.4860   -6.1200 C.3   230  SER230      0.2130
     79  OG        32.1350  -28.7790   -6.9890 O.3   230  SER230     -0.2179
     80  N         29.9030  -26.2040   -3.6480 N.am  231  ARG231     -0.1977
     81  CA        28.7740  -26.1280   -2.7140 C.3   231  ARG231      0.1597
     82  C         27.4560  -25.8110   -3.4290 C.2   231  ARG231      0.2287
     83  O         26.5690  -25.1110   -2.8690 O.2   231  ARG231     -0.2864
     84  CB        29.0490  -25.0550   -1.6930 C.3   231  ARG231      0.0334
     85  CG        30.4170  -25.2550   -1.0250 C.3   231  ARG231      0.0492
     86  CD        29.9350  -25.8660    0.3420 C.3   231  ARG231      0.2205
     87  NE        30.2040  -27.1990    0.2630 N.pl3 231  ARG231     -0.0865
     88  CZ        29.8370  -28.1750    1.1020 C.cat 231  ARG231      0.5346
     89  NH1       29.1330  -28.0240    2.2200 N.pl3 231  ARG231      0.1354
     90  NH2       30.2680  -29.3530    0.7630 N.pl3 231  ARG231      0.1354
     91  N         26.5000  -34.3520   -5.7210 N.3   449  SER449     -0.1217
     92  CA        26.7270  -35.3600   -4.7020 C.3   449  SER449      0.1889
     93  C         25.8710  -36.5900   -4.8100 C.2   449  SER449      0.2288
     94  O         24.7160  -36.5100   -5.2940 O.2   449  SER449     -0.2866
     95  CB        26.5300  -34.6770   -3.3160 C.3   449  SER449      0.2089
     96  OG        26.4640  -35.6520   -2.2760 O.3   449  SER449     -0.2183
@<TRIPOS>BOND
     1    47    46    2
     2    46    45    1
     3    40    39    2
     4    51    50   ar
     5    45    48    1
     6    45    44    1
     7    31    30    2
     8    39    44   am
     9    39    38    1
    10    50    52   ar
    11    50    49    1
    12    48    49    1
    13    38    37    1
    14    38    41    1
    15    30    37   am
    16    30    29    1
    17    43    41    1
    18    27    26    2
    19    41    42    1
    20    29    32    1
    21    29    28    1
    22    26    28   am
    23    26    25    1
    24    32    33    1
    25    33    34    1
    26    25    24    1
    27    34    35    1
    28    68    66   am
    29    79    78    1
    30    22    21    2
    31     1     2    1
    32     2     3    1
    33     2     5    1
    34    24    21   am
    35    35    36    1
    36     7     6    2
    37     3     4    2
    38    21    20    1
    39    66    67    2
    40    66    65    1
    41    78    75    1
    42     6     5    1
    43     6     8   am
    44    91    92    1
    45    94    93    2
    46    65    62    1
    47    23    20    1
    48    64    63    2
    49    75    74    1
    50    75    76    1
    51    20    19    1
    52    93    92    1
    53    92    95    1
    54    74    71   am
    55    19    17   am
    56    18    17    2
    57    76    80   am
    58    76    77    2
    59    63    62    1
    60    63    69   am
    61    62    61    1
    62    80    81    1
    63    17    16    1
    64    71    72    2
    65    71    70    1
    66    82    83    2
    67    82    81    1
    68    60    58   am
    69    95    96    1
    70    59    58    2
    71    69    70    1
    72    81    84    1
    73    70    73    1
    74    16    15    1
    75    58    57    1
    76    15    11   am
    77    84    85    1
    78    11    10    1
    79    11    12    2
    80    10     9    1
    81    10    13    1
    82    57    54    1
    83    85    86    1
    84    14    13    1
    85    54    55    1
    86    54    53    1
    87    55    56    2
    88    87    86    1
    89    87    88    2
    90    90    88    1
    91    88    89    1
