@<TRIPOS>MOLECULE
tmp/3myqA01.pdb
 197 191 0 0 0
SMALL
GASTEIGER

@<TRIPOS>ATOM
      1  N          8.4810   -0.5220   10.3650 N.3     2  TRP2       -0.1241
      2  CA         7.7590   -1.4470   11.2370 C.3     2  TRP2        0.1605
      3  C          6.7480   -2.2780   10.4470 C.2     2  TRP2        0.2264
      4  O          6.2280   -1.8130    9.4150 O.2     2  TRP2       -0.2867
      5  CB         7.0550   -0.6960   12.3920 C.3     2  TRP2        0.0550
      6  CG         5.8690    0.0960   12.0410 C.ar    2  TRP2        0.0003
      7  CD1        5.8430    1.4050   11.7170 C.ar    2  TRP2        0.0946
      8  CD2        4.5030   -0.3880   11.9730 C.ar    2  TRP2        0.0152
      9  NE1        4.5580    1.7820   11.4530 N.ar    2  TRP2       -0.2442
     10  CE2        3.6990    0.7010   11.5760 C.ar    2  TRP2        0.0810
     11  CE3        3.8880   -1.6410   12.2150 C.ar    2  TRP2        0.0012
     12  CZ2        2.2890    0.6050   11.4200 C.ar    2  TRP2        0.0191
     13  CZ3        2.4550   -1.7250   12.0750 C.ar    2  TRP2        0.0001
     14  CH2        1.6880   -0.5970   11.7020 C.ar    2  TRP2        0.0015
     15  N         -3.3220    0.3440    3.6420 N.3    59  ASN59      -0.1296
     16  CA        -2.2210    1.1920    4.0960 C.3    59  ASN59       0.1339
     17  C         -0.9420    0.4200    4.3190 C.3    59  ASN59       0.2014
     18  O          0.0970    0.9680    4.8420 O.3    59  ASN59      -0.2188
     19  CB        -2.5820    1.9960    5.3590 C.3    59  ASN59       0.1102
     20  CG        -2.8760    1.1070    6.5050 C.2    59  ASN59       0.2623
     21  OD1       -2.4790   -0.1040    6.5320 O.2    59  ASN59      -0.2716
     22  ND2       -3.6140    1.6290    7.4420 N.am   59  ASN59      -0.0877
     23  N         -0.5730   -2.1740    6.2720 N.3    61  HIS61      -0.1241
     24  CA        -0.6910   -2.8760    7.5730 C.3    61  HIS61       0.1621
     25  C         -2.0760   -3.5040    7.7370 C.2    61  HIS61       0.2264
     26  O         -2.2140   -4.5270    8.3470 O.2    61  HIS61      -0.2867
     27  CB        -0.4200   -1.8790    8.7280 C.3    61  HIS61       0.0745
     28  CG         0.8510   -1.1190    8.5340 C.ar   61  HIS61       0.0817
     29  ND1        0.8850    0.2200    8.2040 N.ar   61  HIS61      -0.2268
     30  CD2        2.1360   -1.5410    8.5540 C.ar   61  HIS61       0.1154
     31  CE1        2.1440    0.5850    8.0070 C.ar   61  HIS61       0.1986
     32  NE2        2.9240   -0.4520    8.2710 N.ar   61  HIS61      -0.2212
     33  N         -8.2520    0.4600    5.8630 N.3    64  ASN64      -0.1240
     34  CA        -9.1180    1.3630    6.6240 C.3    64  ASN64       0.1653
     35  C        -10.3190    1.7560    5.7870 C.2    64  ASN64       0.2266
     36  O        -10.1690    2.1680    4.6140 O.2    64  ASN64      -0.2867
     37  CB        -8.3950    2.6810    6.9590 C.3    64  ASN64       0.1155
     38  CG        -7.3210    2.5190    7.8840 C.2    64  ASN64       0.2627
     39  OD1       -7.2080    1.4880    8.5640 O.2    64  ASN64      -0.2716
     40  ND2       -6.4590    3.5520    7.9760 N.am   64  ASN64      -0.0877
     41  N        -12.5210    6.1060   11.2020 N.3    89  GLN89      -0.1245
     42  CA       -12.2380    4.9670   10.2910 C.3    89  GLN89       0.1566
     43  C        -12.5000    3.7260   11.0990 C.2    89  GLN89       0.2260
     44  O        -12.5430    3.7480   12.3000 O.2    89  GLN89      -0.2867
     45  CB       -10.8010    4.9810    9.8250 C.3    89  GLN89       0.0367
     46  CG        -9.7490    5.0570   10.9260 C.3    89  GLN89       0.0905
     47  CD        -8.9520    3.7830   11.1340 C.2    89  GLN89       0.2608
     48  OE1       -9.5490    2.7250   11.1630 O.2    89  GLN89      -0.2717
     49  NE2       -7.6630    3.8800   11.4310 N.am   89  GLN89      -0.0878
     50  N        -11.0570   -0.5460   10.8490 N.3    91  HIS91      -0.1241
     51  CA       -10.1860   -1.5310   10.2180 C.3    91  HIS91       0.1621
     52  C        -10.2360   -2.7800   11.0430 C.2    91  HIS91       0.2264
     53  O        -10.8770   -2.8100   12.0830 O.2    91  HIS91      -0.2867
     54  CB        -8.7370   -0.9930   10.1960 C.3    91  HIS91       0.0745
     55  CG        -8.2030   -0.7190   11.5600 C.ar   91  HIS91       0.0817
     56  ND1       -8.3840    0.4770   12.2140 N.ar   91  HIS91      -0.2268
     57  CD2       -7.5880   -1.5380   12.4410 C.ar   91  HIS91       0.1154
     58  CE1       -7.9020    0.3670   13.4440 C.ar   91  HIS91       0.1986
     59  NE2       -7.3220   -0.8440   13.6020 N.ar   91  HIS91      -0.2212
     60  N         -7.9350   -6.4770   12.3610 N.3    93  HIS93      -0.1241
     61  CA        -6.7260   -7.2940   12.4780 C.3    93  HIS93       0.1621
     62  C         -7.1580   -8.7430   12.3860 C.2    93  HIS93       0.2264
     63  O         -8.2190   -9.0900   12.8660 O.2    93  HIS93      -0.2867
     64  CB        -6.0410   -7.0520   13.8590 C.3    93  HIS93       0.0745
     65  CG        -5.7660   -5.6190   14.1660 C.ar   93  HIS93       0.0817
     66  ND1       -4.5510   -5.0390   13.9360 N.ar   93  HIS93      -0.2268
     67  CD2       -6.6250   -4.6110   14.5110 C.ar   93  HIS93       0.1154
     68  CE1       -4.6300   -3.7520   14.2930 C.ar   93  HIS93       0.1986
     69  NE2       -5.8670   -3.4500   14.5770 N.ar   93  HIS93      -0.2212
     70  N        -11.8720   -2.7170   14.7250 N.3   116  HIS116     -0.1241
     71  CA       -11.6610   -1.4810   15.5220 C.3   116  HIS116      0.1621
     72  C        -12.3210   -0.3400   14.8300 C.2   116  HIS116      0.2264
     73  O        -11.9620    0.0370   13.6940 O.2   116  HIS116     -0.2867
     74  CB       -10.1770   -1.2190   15.5860 C.3   116  HIS116      0.0745
     75  CG        -9.4900   -2.1990   16.4760 C.ar  116  HIS116      0.0817
     76  ND1       -8.1120   -2.4510   16.4400 N.ar  116  HIS116     -0.2268
     77  CD2      -10.0010   -3.0190   17.4180 C.ar  116  HIS116      0.1154
     78  CE1       -7.8110   -3.3410   17.3830 C.ar  116  HIS116      0.1986
     79  NE2       -8.9510   -3.7480   17.9500 N.ar  116  HIS116     -0.2212
     80  N        -12.5840    3.4440   15.1050 N.3   118  VAL118     -0.1245
     81  CA       -11.7570    4.4550   15.7840 C.3   118  VAL118      0.1561
     82  C        -12.4800    5.7910   15.8090 C.2   118  VAL118      0.2260
     83  O        -12.9240    6.2740   14.7350 O.2   118  VAL118     -0.2867
     84  CB       -10.4220    4.5910   14.9960 C.3   118  VAL118      0.0252
     85  CG1       -9.5510    5.6780   15.6210 C.3   118  VAL118      0.0019
     86  CG2       -9.7080    3.2520   14.8760 C.3   118  VAL118      0.0019
     87  N         -8.3010   14.5160   14.6500 N.3   127  PHE127     -0.1227
     88  CA        -7.6430   13.2660   15.0560 C.3   127  PHE127      0.1736
     89  C         -6.1870   13.5040   15.4460 C.2   127  PHE127      0.2596
     90  O         -5.7460   12.9520   16.4260 O.2   127  PHE127     -0.2718
     91  CB        -7.7460   12.2700   13.8940 C.3   127  PHE127      0.0547
     92  CG        -7.0500   10.9890   14.1360 C.ar  127  PHE127     -0.0202
     93  CD1       -7.6460    9.9540   14.8460 C.ar  127  PHE127     -0.0042
     94  CD2       -5.7060   10.8500   13.7460 C.ar  127  PHE127     -0.0042
     95  CE1       -6.9730    8.7890   15.0140 C.ar  127  PHE127     -0.0003
     96  CE2       -5.0490    9.6560   13.8880 C.ar  127  PHE127     -0.0003
     97  CZ        -5.7220    8.6170   14.5530 C.ar  127  PHE127     -0.0000
     98  N         -5.4650   14.2840   14.6350 N.am  128  GLY128     -0.1957
     99  CA        -4.0600   14.4650   14.9320 C.3   128  GLY128      0.1869
    100  C         -3.7870   15.1010   16.2720 C.2   128  GLY128      0.2309
    101  O         -2.7700   14.7890   16.9420 O.2   128  GLY128     -0.2863
    102  N         -4.7670   12.4210   19.2580 N.3   131  VAL131     -0.1231
    103  CA        -3.9170   11.3170   19.6440 C.3   131  VAL131      0.1692
    104  C         -2.8040   11.7540   20.6020 C.2   131  VAL131      0.2591
    105  O         -2.1120   10.8910   21.1670 O.2   131  VAL131     -0.2718
    106  CB        -3.2670   10.6110   18.4260 C.3   131  VAL131      0.0266
    107  CG1       -4.3510    9.9650   17.6000 C.3   131  VAL131      0.0020
    108  CG2       -2.3830   11.5000   17.6130 C.3   131  VAL131      0.0020
    109  N         -2.6260   13.0740   20.7790 N.am  132  GLN132     -0.1979
    110  CA        -1.6610   13.5370   21.7860 C.3   132  GLN132      0.1601
    111  C         -2.2820   13.7820   23.1470 C.2   132  GLN132      0.2287
    112  O         -1.7060   14.4980   23.9790 O.2   132  GLN132     -0.2864
    113  CB        -0.9810   14.8330   21.3000 C.3   132  GLN132      0.0394
    114  CG        -0.2940   14.7030   19.9480 C.3   132  GLN132      0.0908
    115  CD         0.9210   13.8340   19.9930 C.2   132  GLN132      0.2608
    116  OE1        1.6230   13.7810   21.0020 O.2   132  GLN132     -0.2717
    117  NE2        1.1930   13.1490   18.8880 N.am  132  GLN132     -0.0878
    118  N         -8.8970    9.3350   22.0440 N.3   137  LEU137     -0.1245
    119  CA        -9.6060    8.4330   21.1530 C.3   137  LEU137      0.1561
    120  C        -10.4740    7.4940   21.9800 C.2   137  LEU137      0.2260
    121  O        -10.1830    7.2370   23.1420 O.2   137  LEU137     -0.2867
    122  CB        -8.6060    7.5440   20.4060 C.3   137  LEU137      0.0270
    123  CG        -7.6940    8.2920   19.4330 C.3   137  LEU137      0.0019
    124  CD1       -6.9090    7.2380   18.6210 C.3   137  LEU137      0.0001
    125  CD2       -8.3210    9.3160   18.5090 C.3   137  LEU137      0.0001
    126  N        -11.8700    3.6050   21.0300 N.3   139  VAL139     -0.1245
    127  CA       -11.9200    2.6060   20.0140 C.3   139  VAL139      0.1561
    128  C        -12.9260    1.5550   20.4720 C.2   139  VAL139      0.2260
    129  O        -12.8110    1.0360   21.5750 O.2   139  VAL139     -0.2867
    130  CB       -10.5520    1.9750   19.6580 C.3   139  VAL139      0.0252
    131  CG1      -10.7450    0.9450   18.5200 C.3   139  VAL139      0.0019
    132  CG2       -9.5980    3.0820   19.2250 C.3   139  VAL139      0.0019
    133  N         -2.9250    3.0910   21.0500 N.3   194  LEU194     -0.1231
    134  CA        -2.9330    2.5020   19.7270 C.3   194  LEU194      0.1693
    135  C         -2.2230    1.1610   19.8180 C.2   194  LEU194      0.2593
    136  O         -1.2020    1.0150   20.4950 O.2   194  LEU194     -0.2718
    137  CB        -2.1540    3.3440   18.7450 C.3   194  LEU194      0.0284
    138  CG        -2.5140    4.8090   18.6280 C.3   194  LEU194      0.0019
    139  CD1       -1.7060    5.3900   17.4520 C.3   194  LEU194      0.0001
    140  CD2       -3.7990    5.3690   18.7020 C.3   194  LEU194      0.0001
    141  N         -2.7070    0.2070   19.0000 N.am  195  THR195     -0.1939
    142  CA        -1.9820   -1.1040   18.9200 C.3   195  THR195      0.2028
    143  C         -1.0020   -1.1290   17.8040 C.2   195  THR195      0.2643
    144  O         -0.3240   -2.1400   17.6360 O.2   195  THR195     -0.2714
    145  CB        -3.0360   -2.1790   18.7230 C.3   195  THR195      0.1808
    146  OG1       -3.5700   -2.1110   17.4890 O.3   195  THR195     -0.2208
    147  CG2       -4.0000   -2.2620   19.8650 C.3   195  THR195      0.0379
    148  N         -0.9020   -0.0510   17.0340 N.am  196  THR196     -0.1937
    149  CA         0.0890    0.0480   15.9600 C.3   196  THR196      0.2013
    150  C          0.9520    1.2490   16.2760 C.2   196  THR196      0.2484
    151  O          0.5130    2.2120   16.8870 O.2   196  THR196     -0.2729
    152  CB        -0.5900    0.3170   14.6480 C.3   196  THR196      0.1807
    153  OG1       -1.5110    1.4040   14.7890 O.3   196  THR196     -0.2208
    154  CG2       -1.3580   -0.9230   14.1830 C.3   196  THR196      0.0379
    155  N          2.2170    1.2220   15.8590 N.am  197  PRO197     -0.2715
    156  CA         3.0670    2.4490   15.9570 C.3   197  PRO197      0.1521
    157  C          2.2400    3.6490   15.4180 C.2   197  PRO197      0.2440
    158  O          1.6220    3.5590   14.3480 O.2   197  PRO197     -0.2731
    159  CB         4.2470    2.0890   15.0170 C.3   197  PRO197      0.0310
    160  CG         4.4150    0.5990   15.2810 C.3   197  PRO197      0.0237
    161  CD         2.9670    0.1020   15.2360 C.3   197  PRO197      0.0939
    162  N          2.3230    4.7920   16.0880 N.am  198  PRO198     -0.2727
    163  CA         3.2570    5.1430   17.1840 C.3   198  PRO198      0.1402
    164  C          2.8650    4.7090   18.5830 C.2   198  PRO198      0.2269
    165  O          3.4780    5.1530   19.5120 O.2   198  PRO198     -0.2865
    166  CB         3.3420    6.6760   17.0490 C.3   198  PRO198      0.0296
    167  CG         1.9770    7.1010   16.4890 C.3   198  PRO198      0.0237
    168  CD         1.5530    5.9670   15.5620 C.3   198  PRO198      0.0939
    169  N          0.6190    5.4440   20.6720 N.3   200  LEU200     -0.1245
    170  CA         0.3120    6.5280   21.5920 C.3   200  LEU200      0.1561
    171  C         -0.7100    6.1170   22.6310 C.2   200  LEU200      0.2260
    172  O         -1.6890    5.4100   22.3130 O.2   200  LEU200     -0.2867
    173  CB        -0.1910    7.7550   20.8150 C.3   200  LEU200      0.0270
    174  CG         0.9020    8.3110   19.8820 C.3   200  LEU200      0.0019
    175  CD1        0.3140    9.3610   18.9840 C.3   200  LEU200      0.0001
    176  CD2        2.0520    8.9640   20.7060 C.3   200  LEU200      0.0001
    177  N         -6.0100    6.1180   24.0980 N.3   203  VAL203     -0.1245
    178  CA        -7.2510    5.4040   23.7910 C.3   203  VAL203      0.1561
    179  C         -8.0140    4.9660   25.0040 C.2   203  VAL203      0.2260
    180  O         -7.4720    4.3130   25.8880 O.2   203  VAL203     -0.2867
    181  CB        -6.9370    4.1460   22.9200 C.3   203  VAL203      0.0252
    182  CG1       -8.2770    3.4280   22.5700 C.3   203  VAL203      0.0019
    183  CG2       -6.1610    4.5370   21.6520 C.3   203  VAL203      0.0019
    184  N        -10.3960    2.1530   25.4890 N.3   205  TRP205     -0.1241
    185  CA       -10.8220    0.9590   24.7950 C.3   205  TRP205      0.1605
    186  C        -12.1960    0.5150   25.2810 C.2   205  TRP205      0.2264
    187  O        -12.4290    0.4640   26.5160 O.2   205  TRP205     -0.2867
    188  CB        -9.8160   -0.1830   25.0120 C.3   205  TRP205      0.0550
    189  CG        -8.7010   -0.0880   24.0280 C.ar  205  TRP205      0.0003
    190  CD1       -7.4660    0.5560   24.1870 C.ar  205  TRP205      0.0946
    191  CD2       -8.7910   -0.4720   22.6580 C.ar  205  TRP205      0.0152
    192  NE1       -6.7800    0.5280   23.0140 N.ar  205  TRP205     -0.2442
    193  CE2       -7.5460   -0.0750   22.0380 C.ar  205  TRP205      0.0810
    194  CE3       -9.7720   -1.1090   21.8840 C.ar  205  TRP205      0.0012
    195  CZ2       -7.2890   -0.3070   20.6970 C.ar  205  TRP205      0.0191
    196  CZ3       -9.4740   -1.4100   20.6000 C.ar  205  TRP205      0.0001
    197  CH2       -8.2690   -0.9730   19.9860 C.ar  205  TRP205      0.0015
@<TRIPOS>BOND
     1    15    16    1
     2    16    17    1
     3    16    19    1
     4    17    18    1
     5    36    35    2
     6    19    20    1
     7    35    34    1
     8    33    34    1
     9    23    24    1
    10    20    21    2
    11    20    22   am
    12    34    37    1
    13    37    38    1
    14    24    25    1
    15    24    27    1
    16    25    26    2
    17    38    40   am
    18    38    39    2
    19    31    29   ar
    20    31    32   ar
    21    29    28   ar
    22    32    30   ar
    23    28    30   ar
    24    28    27    1
    25     4     3    2
    26    45    42    1
    27    45    46    1
    28    54    51    1
    29    54    55    1
    30    51    50    1
    31    51    52    1
    32    42    43    1
    33    42    41    1
    34     1     2    1
    35     3     2    1
    36    46    47    1
    37    52    53    2
    38    43    44    2
    39    47    48    2
    40    47    49   am
    41     2     5    1
    42    12    10   ar
    43    12    14   ar
    44     9    10   ar
    45     9     7   ar
    46    55    56   ar
    47    55    57   ar
    48    10     8   ar
    49    14    13   ar
    50     7     6   ar
    51     8     6   ar
    52     8    11   ar
    53     6     5    1
    54    13    11   ar
    55    56    58   ar
    56    60    61    1
    57    62    61    1
    58    62    63    2
    59    57    59   ar
    60    61    64    1
    61    58    59   ar
    62    73    72    2
    63    94    96   ar
    64    94    92   ar
    65    64    65    1
    66    96    97   ar
    67    91    92    1
    68    91    88    1
    69    66    65   ar
    70    66    68   ar
    71    92    93   ar
    72    65    67   ar
    73   154   152    1
    74    68    69   ar
    75   158   157    2
    76    67    69   ar
    77    97    95   ar
    78    98    99    1
    79    98    89   am
    80   152   153    1
    81   152   149    1
    82    87    88    1
    83    70    71    1
    84    83    82    2
    85    72    71    1
    86    93    95   ar
    87    86    84    1
    88    99   100    1
    89    84    85    1
    90    84    81    1
    91   159   160    1
    92   159   156    1
    93    88    89    1
    94    80    81    1
    95   161   160    1
    96   161   155    1
    97   157   156    1
    98   157   162   am
    99    89    90    2
   100    71    74    1
   101   168   162    1
   102   168   167    1
   103    74    75    1
   104    81    82    1
   105   155   156    1
   106   155   150   am
   107   149   150    1
   108   149   148    1
   109   162   163    1
   110   100   101    2
   111   150   151    2
   112    76    75   ar
   113    76    78   ar
   114    75    77   ar
   115   167   166    1
   116   148   143   am
   117   166   163    1
   118   163   164    1
   119    78    79   ar
   120    77    79   ar
   121   139   138    1
   122   146   145    1
   123   107   106    1
   124   108   106    1
   125   144   143    2
   126   143   142    1
   127   106   103    1
   128   125   123    1
   129   131   130    1
   130   164   165    2
   131   124   123    1
   132   138   140    1
   133   138   137    1
   134   145   142    1
   135   145   147    1
   136   137   134    1
   137   117   115   am
   138   142   141    1
   139   175   174    1
   140   141   135   am
   141   132   130    1
   142   102   103    1
   143   123   122    1
   144   103   104    1
   145   130   127    1
   146   134   135    1
   147   134   133    1
   148   135   136    2
   149   174   176    1
   150   174   173    1
   151   114   115    1
   152   114   113    1
   153   197   196   ar
   154   197   195   ar
   155   115   116    2
   156   127   128    1
   157   127   126    1
   158   122   119    1
   159   128   129    2
   160   196   194   ar
   161   104   109   am
   162   104   105    2
   163   169   170    1
   164   195   193   ar
   165   109   110    1
   166   173   170    1
   167   119   120    1
   168   119   118    1
   169   113   110    1
   170   170   171    1
   171   183   181    1
   172   110   111    1
   173   194   191   ar
   174   120   121    2
   175   193   191   ar
   176   193   192   ar
   177   172   171    2
   178   182   181    1
   179   191   189   ar
   180   181   178    1
   181   192   190   ar
   182   111   112    2
   183   178   177    1
   184   178   179    1
   185   189   190   ar
   186   189   188    1
   187   185   188    1
   188   185   186    1
   189   185   184    1
   190   179   180    2
   191   186   187    2
