@<TRIPOS>MOLECULE
tmp/3myuB00.pdb
 157 154 0 0 0
SMALL
GASTEIGER

@<TRIPOS>ATOM
      1  N          0.7390    6.1030   -1.1640 N.3    10  ASP10      -0.1225
      2  CA         0.9290    4.6630   -1.3870 C.3    10  ASP10       0.1805
      3  C          0.5740    4.3800   -2.8460 C.2    10  ASP10       0.2597
      4  O         -0.0510    5.2170   -3.5050 O.2    10  ASP10      -0.2718
      5  CB         0.0240    3.8490   -0.4470 C.3    10  ASP10       0.1424
      6  CG         0.4540    2.3660   -0.3130 C.2    10  ASP10       0.3668
      7  OD1        1.3740    1.9060   -1.0370 O.co2  10  ASP10      -0.2456
      8  OD2       -0.1470    1.6540    0.5300 O.co2  10  ASP10      -0.2456
      9  N          0.9780    3.2200   -3.3560 N.am   11  HIS11      -0.1975
     10  CA         0.6000    2.7920   -4.7120 C.3    11  HIS11       0.1656
     11  C          0.7010    3.8410   -5.8110 C.2    11  HIS11       0.2291
     12  O         -0.2610    4.0490   -6.5520 O.2    11  HIS11      -0.2864
     13  CB        -0.8440    2.3170   -4.7210 C.3    11  HIS11       0.0771
     14  CG        -1.1150    1.2260   -3.7510 C.ar   11  HIS11       0.0820
     15  ND1       -1.9800    1.3720   -2.6800 N.ar   11  HIS11      -0.2267
     16  CD2       -0.6310   -0.0390   -3.6610 C.ar   11  HIS11       0.1154
     17  CE1       -2.0180    0.2500   -1.9920 C.ar   11  HIS11       0.1986
     18  NE2       -1.2090   -0.6220   -2.5650 N.ar   11  HIS11      -0.2212
     19  N         -5.5110    8.1940   12.2390 N.3    64  ASN64      -0.1240
     20  CA        -6.0750    7.0410   12.9420 C.3    64  ASN64       0.1653
     21  C         -7.2020    7.4730   13.8660 C.2    64  ASN64       0.2266
     22  O         -7.0700    8.4280   14.6410 O.2    64  ASN64      -0.2867
     23  CB        -4.9960    6.3400   13.7680 C.3    64  ASN64       0.1155
     24  CG        -3.9650    5.6230   12.9230 C.2    64  ASN64       0.2627
     25  OD1       -4.1430    5.4150   11.7150 O.2    64  ASN64      -0.2716
     26  ND2       -2.8820    5.2150   13.5640 N.am   64  ASN64      -0.0877
     27  N        -14.1650    2.5320    3.3970 N.3    84  THR84      -0.1218
     28  CA       -13.3440    1.6320    2.5940 C.3    84  THR84       0.1862
     29  C        -14.2400    0.5300    2.0480 C.2    84  THR84       0.2287
     30  O        -15.2420    0.1740    2.6710 O.2    84  THR84      -0.2866
     31  CB       -12.1760    1.0400    3.4250 C.3    84  THR84       0.1770
     32  OG1      -11.1840    0.4880    2.5470 O.3    84  THR84      -0.2211
     33  CG2      -12.6840   -0.0370    4.4260 C.3    84  THR84       0.0375
     34  N         -4.4730   -0.5330   -6.9440 N.3   130  ASN130     -0.1225
     35  CA        -4.3500   -0.3790   -5.5040 C.3   130  ASN130      0.1785
     36  C         -4.6670   -1.6390   -4.7010 C.2   130  ASN130      0.2597
     37  O         -4.2600   -1.7470   -3.5440 O.2   130  ASN130     -0.2718
     38  CB        -5.2470    0.7510   -5.0320 C.3   130  ASN130      0.1169
     39  CG        -4.9650    2.0310   -5.7550 C.2   130  ASN130      0.2627
     40  OD1       -3.8650    2.5700   -5.6690 O.2   130  ASN130     -0.2716
     41  ND2       -5.9450    2.5170   -6.4900 N.am  130  ASN130     -0.0877
     42  N         -5.3930   -2.5820   -5.3020 N.am  131  ARG131     -0.1979
     43  CA        -5.8570   -3.7640   -4.5730 C.3   131  ARG131      0.1597
     44  C         -6.2610   -4.9190   -5.5040 C.2   131  ARG131      0.2287
     45  O         -6.5400   -4.7040   -6.6820 O.2   131  ARG131     -0.2864
     46  CB        -7.0690   -3.4010   -3.7250 C.3   131  ARG131      0.0334
     47  CG        -8.3550   -3.3670   -4.5140 C.3   131  ARG131      0.0492
     48  CD        -9.4490   -2.5770   -3.7990 C.3   131  ARG131      0.2205
     49  NE       -10.7070   -2.6570   -4.5470 N.pl3 131  ARG131     -0.0865
     50  CZ       -11.7780   -1.9150   -4.2840 C.cat 131  ARG131      0.5346
     51  NH1      -12.8740   -2.0480   -5.0190 N.pl3 131  ARG131      0.1354
     52  NH2      -11.7500   -1.0290   -3.2850 N.pl3 131  ARG131      0.1354
     53  N        -12.8260   -8.2730   -2.3940 N.3   136  TYR136     -0.1241
     54  CA       -13.7290   -7.2120   -1.9660 C.3   136  TYR136      0.1605
     55  C        -15.1360   -7.3660   -2.5250 C.2   136  TYR136      0.2264
     56  O        -15.3430   -7.9870   -3.5690 O.2   136  TYR136     -0.2867
     57  CB       -13.2010   -5.8600   -2.4640 C.3   136  TYR136      0.0534
     58  CG       -11.8720   -5.4500   -1.8810 C.ar  136  TYR136     -0.0201
     59  CD1      -11.8040   -4.5140   -0.8580 C.ar  136  TYR136     -0.0009
     60  CD2      -10.6800   -5.9970   -2.3520 C.ar  136  TYR136     -0.0009
     61  CE1      -10.5810   -4.1260   -0.3150 C.ar  136  TYR136      0.0417
     62  CE2       -9.4490   -5.6230   -1.8110 C.ar  136  TYR136      0.0417
     63  CZ        -9.4070   -4.6790   -0.7940 C.ar  136  TYR136      0.1957
     64  OH        -8.1950   -4.2970   -0.2480 O.3   136  TYR136     -0.2866
     65  N        -12.1410   -1.3020   10.1570 N.3   145  TYR145     -0.1241
     66  CA       -11.1580   -2.3040    9.7360 C.3   145  TYR145      0.1605
     67  C        -10.6720   -3.0190   11.0030 C.2   145  TYR145      0.2264
     68  O        -11.1110   -2.6900   12.1060 O.2   145  TYR145     -0.2867
     69  CB        -9.9950   -1.6550    8.9570 C.3   145  TYR145      0.0534
     70  CG        -8.9360   -1.0290    9.8330 C.ar  145  TYR145     -0.0201
     71  CD1       -7.6650   -1.5900    9.9250 C.ar  145  TYR145     -0.0009
     72  CD2       -9.2150    0.0980   10.6030 C.ar  145  TYR145     -0.0009
     73  CE1       -6.6850   -1.0340   10.7430 C.ar  145  TYR145      0.0417
     74  CE2       -8.2380    0.6720   11.4210 C.ar  145  TYR145      0.0417
     75  CZ        -6.9770    0.1020   11.4900 C.ar  145  TYR145      0.1957
     76  OH        -5.9870    0.6400   12.3120 O.3   145  TYR145     -0.2866
     77  N         -2.2310   -5.4840    9.6260 N.3   238  ASP238     -0.1239
     78  CA        -3.5490   -5.0100    9.2170 C.3   238  ASP238      0.1674
     79  C         -4.2970   -6.1600    8.5550 C.2   238  ASP238      0.2266
     80  O         -3.6890   -6.9710    7.8440 O.2   238  ASP238     -0.2867
     81  CB        -3.4250   -3.8220    8.2530 C.3   238  ASP238      0.1410
     82  CG        -2.8060   -2.6020    8.9210 C.2   238  ASP238      0.3668
     83  OD1       -3.4700   -2.0250    9.8050 O.co2 238  ASP238     -0.2456
     84  OD2       -1.6660   -2.2240    8.5650 O.co2 238  ASP238     -0.2456
     85  N         -3.8210   -5.4490   -0.5940 N.3   244  TRP244     -0.1241
     86  CA        -3.3260   -4.2140   -1.1980 C.3   244  TRP244      0.1605
     87  C         -1.8090   -4.2170   -1.3610 C.2   244  TRP244      0.2264
     88  O         -1.2030   -3.1680   -1.5660 O.2   244  TRP244     -0.2867
     89  CB        -3.7750   -2.9710   -0.4040 C.3   244  TRP244      0.0550
     90  CG        -3.2580   -2.9120    0.9910 C.ar  244  TRP244      0.0003
     91  CD1       -2.0200   -2.5010    1.3890 C.ar  244  TRP244      0.0946
     92  CD2       -3.9680   -3.2660    2.1780 C.ar  244  TRP244      0.0152
     93  NE1       -1.9170   -2.5650    2.7510 N.ar  244  TRP244     -0.2442
     94  CE2       -3.0940   -3.0490    3.2640 C.ar  244  TRP244      0.0810
     95  CE3       -5.2590   -3.7490    2.4330 C.ar  244  TRP244      0.0012
     96  CZ2       -3.4650   -3.3060    4.5880 C.ar  244  TRP244      0.0191
     97  CZ3       -5.6230   -4.0040    3.7460 C.ar  244  TRP244      0.0001
     98  CH2       -4.7310   -3.7560    4.8080 C.ar  244  TRP244      0.0015
     99  N        -12.4910    2.2900   13.7390 N.3   273  LEU273     -0.1231
    100  CA       -12.9280    3.1030   12.6130 C.3   273  LEU273      0.1693
    101  C        -11.7460    3.3460   11.6750 C.2   273  LEU273      0.2592
    102  O        -10.5970    3.5250   12.1290 O.2   273  LEU273     -0.2718
    103  CB       -13.4990    4.4520   13.0860 C.3   273  LEU273      0.0284
    104  CG       -14.8910    4.3510   13.7260 C.3   273  LEU273      0.0019
    105  CD1      -15.8690    3.5650   12.8190 C.3   273  LEU273      0.0001
    106  CD2      -14.8100    3.6790   15.0660 C.3   273  LEU273      0.0001
    107  N        -12.0330    3.3600   10.3730 N.am  274  TYR274     -0.1962
    108  CA       -11.0490    3.7670    9.3840 C.3   274  TYR274      0.1771
    109  C        -10.6680    5.2100    9.6820 C.2   274  TYR274      0.2619
    110  O        -11.2830    5.8630   10.5260 O.2   274  TYR274     -0.2715
    111  CB       -11.5980    3.6320    7.9620 C.3   274  TYR274      0.0574
    112  CG       -10.6470    2.8840    7.0380 C.ar  274  TYR274     -0.0198
    113  CD1      -10.3350    1.5490    7.2690 C.ar  274  TYR274     -0.0009
    114  CD2      -10.0720    3.5110    5.9360 C.ar  274  TYR274     -0.0009
    115  CE1       -9.4690    0.8480    6.4260 C.ar  274  TYR274      0.0417
    116  CE2       -9.1970    2.8210    5.0820 C.ar  274  TYR274      0.0417
    117  CZ        -8.9020    1.4920    5.3410 C.ar  274  TYR274      0.1957
    118  OH        -8.0420    0.8130    4.5170 O.3   274  TYR274     -0.2866
    119  N         -9.6400    5.6930    9.0110 N.am  275  ASP275     -0.1971
    120  CA        -9.1010    7.0170    9.3000 C.3   275  ASP275      0.1709
    121  C        -10.1500    8.1140    9.2130 C.2   275  ASP275      0.2293
    122  O        -11.1470    7.9980    8.5050 O.2   275  ASP275     -0.2864
    123  CB        -7.9340    7.3290    8.3610 C.3   275  ASP275      0.1436
    124  CG        -6.7200    6.4500    8.6360 C.2   275  ASP275      0.3671
    125  OD1       -6.6500    5.8160    9.7250 O.co2 275  ASP275     -0.2456
    126  OD2       -5.8270    6.3940    7.7700 O.co2 275  ASP275     -0.2456
    127  N         -8.6010    6.1750   -3.2300 N.3   308  PRO308     -0.2116
    128  CA        -8.4130    4.7420   -3.4810 C.3   308  PRO308      0.1372
    129  C         -6.9800    4.2390   -3.3180 C.2   308  PRO308      0.2244
    130  O         -6.8080    3.0500   -3.0600 O.2   308  PRO308     -0.2868
    131  CB        -8.8840    4.5780   -4.9210 C.3   308  PRO308      0.0268
    132  CG        -9.9250    5.6500   -5.0740 C.3   308  PRO308      0.0207
    133  CD        -9.3910    6.8180   -4.2920 C.3   308  PRO308      0.0892
    134  N         -5.0660    4.6710   -0.9750 N.3   310  ILE310     -0.1231
    135  CA        -4.7650    4.3650    0.4150 C.3   310  ILE310      0.1692
    136  C         -5.9970    3.7670    1.0960 C.2   310  ILE310      0.2593
    137  O         -6.1210    3.7590    2.3190 O.2   310  ILE310     -0.2718
    138  CB        -4.2200    5.6290    1.1340 C.3   310  ILE310      0.0266
    139  CG1       -3.6160    5.2750    2.4930 C.3   310  ILE310      0.0019
    140  CG2       -5.3050    6.7170    1.2770 C.3   310  ILE310      0.0020
    141  CD1       -2.4990    6.2140    2.8900 C.3   310  ILE310      0.0001
    142  N         -6.9200    3.2680    0.2840 N.am  311  GLY311     -0.1942
    143  CA        -8.0660    2.5520    0.8090 C.3   311  GLY311      0.2014
    144  C         -9.2470    3.4180    1.2140 C.2   311  GLY311      0.2638
    145  O        -10.1860    2.9210    1.8400 O.2   311  GLY311     -0.2714
    146  N         -9.2310    4.7030    0.8750 N.am  312  TYR312     -0.1973
    147  CA       -10.3970    5.5380    1.1530 C.3   312  TYR312      0.1639
    148  C        -11.2690    5.5080   -0.0880 C.2   312  TYR312      0.2290
    149  O        -11.0130    6.2480   -1.0370 O.2   312  TYR312     -0.2864
    150  CB       -10.0090    6.9930    1.4540 C.3   312  TYR312      0.0560
    151  CG        -8.9830    7.1850    2.5620 C.ar  312  TYR312     -0.0198
    152  CD1       -8.7740    6.2090    3.5380 C.ar  312  TYR312     -0.0009
    153  CD2       -8.2270    8.3600    2.6320 C.ar  312  TYR312     -0.0009
    154  CE1       -7.8250    6.3870    4.5470 C.ar  312  TYR312      0.0417
    155  CE2       -7.2740    8.5540    3.6480 C.ar  312  TYR312      0.0417
    156  CZ        -7.0740    7.5630    4.5960 C.ar  312  TYR312      0.1957
    157  OH        -6.1290    7.7520    5.5970 O.3   312  TYR312     -0.2866
@<TRIPOS>BOND
     1    34    35    1
     2    45    44    2
     3    12    11    2
     4    41    39   am
     5    11    10    1
     6    39    40    2
     7    39    38    1
     8    35    38    1
     9    35    36    1
    10    44    43    1
    11    42    36   am
    12    42    43    1
    13   132   131    1
    14   132   133    1
    15    51    50    1
    16   131   128    1
    17    13    10    1
    18    13    14    1
    19    10     9    1
    20    36    37    2
    21    43    46    1
    22    49    50    2
    23    49    48    1
    24    47    48    1
    25    47    46    1
    26   133   127    1
    27    50    52    1
    28    14    16   ar
    29    14    15   ar
    30    16    18   ar
    31    56    55    2
    32     4     3    2
    33   128   129    1
    34   128   127    1
    35     9     3   am
    36   129   130    2
    37     3     2    1
    38    15    17   ar
    39    18    17   ar
    40    55    54    1
    41    57    54    1
    42    57    58    1
    43    53    54    1
    44    60    58   ar
    45    60    62   ar
    46    58    59   ar
    47    62    63   ar
    48    88    87    2
    49     2     1    1
    50     2     5    1
    51    87    86    1
    52    86    85    1
    53    86    89    1
    54   149   148    2
    55     7     6   ar
    56   134   135    1
    57    59    61   ar
    58    63    61   ar
    59    63    64    1
    60     5     6    1
    61    89    90    1
    62     6     8   ar
    63   148   147    1
    64   142   143    1
    65   142   136   am
    66   135   136    1
    67   135   138    1
    68   143   144    1
    69   146   147    1
    70   146   144   am
    71    90    91   ar
    72    90    92   ar
    73   136   137    2
    74   138   140    1
    75   138   139    1
    76   147   150    1
    77   144   145    2
    78    91    93   ar
    79   150   151    1
    80    29    28    1
    81    29    30    2
    82    92    95   ar
    83    92    94   ar
    84    95    97   ar
    85   139   141    1
    86    32    31    1
    87   151   153   ar
    88   151   152   ar
    89    28    27    1
    90    28    31    1
    91   153   155   ar
    92    93    94   ar
    93    94    96   ar
    94    31    33    1
    95   152   154   ar
    96   155   156   ar
    97    97    98   ar
    98   118   117    1
    99   154   156   ar
   100    96    98   ar
   101   156   157    1
   102   116   117   ar
   103   116   114   ar
   104   117   115   ar
   105   114   112   ar
   106   115   113   ar
   107   112   113   ar
   108   112   111    1
   109   126   124   ar
   110    80    79    2
   111   111   108    1
   112    81    82    1
   113    81    78    1
   114   123   124    1
   115   123   120    1
   116   122   121    2
   117    79    78    1
   118    84    82   ar
   119   124   125   ar
   120    82    83   ar
   121    69    66    1
   122    69    70    1
   123   119   120    1
   124   119   109   am
   125   121   120    1
   126    78    77    1
   127   108   109    1
   128   108   107    1
   129   109   110    2
   130    66    65    1
   131    66    67    1
   132    70    71   ar
   133    70    72   ar
   134    71    73   ar
   135   107   101   am
   136    72    74   ar
   137    73    75   ar
   138    67    68    2
   139    74    75   ar
   140    75    76    1
   141   101   102    2
   142   101   100    1
   143    25    24    2
   144    19    20    1
   145   100   103    1
   146   100    99    1
   147   105   104    1
   148    24    26   am
   149    24    23    1
   150    20    23    1
   151    20    21    1
   152   103   104    1
   153   104   106    1
   154    21    22    2
