@<TRIPOS>MOLECULE
tmp/3mz2B01.pdb
 95 93 0 0 0
SMALL
GASTEIGER

@<TRIPOS>ATOM
      1  N         28.1140   75.1290   64.5760 N.3    23  ILE23      -0.1231
      2  CA        29.3890   75.3150   63.8620 C.3    23  ILE23       0.1678
      3  C         29.2320   74.7480   62.4510 C.2    23  ILE23       0.2434
      4  O         28.8680   73.5760   62.3050 O.2    23  ILE23      -0.2733
      5  CB        30.5190   74.6340   64.6260 C.3    23  ILE23       0.0265
      6  CG1       30.6880   75.3530   65.9900 C.3    23  ILE23       0.0019
      7  CG2       31.8050   74.5420   63.7870 C.3    23  ILE23       0.0020
      8  CD1       31.5240   74.6150   66.9390 C.3    23  ILE23       0.0001
      9  N         29.4670   75.5750   61.4170 N.am   24  PRO24      -0.2718
     10  CA        29.4340   75.0230   60.0530 C.3    24  PRO24       0.1535
     11  C         30.3910   73.8420   59.9160 C.2    24  PRO24       0.2598
     12  O         31.5460   73.8930   60.3990 O.2    24  PRO24      -0.2715
     13  CB        29.8840   76.1930   59.1720 C.3    24  PRO24       0.0310
     14  CG        29.5590   77.3990   59.9280 C.3    24  PRO24       0.0237
     15  CD        29.7650   77.0200   61.4040 C.3    24  PRO24       0.0939
     16  N         29.9160   72.8100   59.2440 N.am   25  LEU25      -0.1964
     17  CA        30.6310   71.5480   59.1600 C.3    25  LEU25       0.1728
     18  C         31.1180   71.3090   57.7370 C.2    25  LEU25       0.2616
     19  O         30.5350   71.8270   56.7800 O.2    25  LEU25      -0.2715
     20  CB        29.7160   70.4130   59.5940 C.3    25  LEU25       0.0311
     21  CG        29.1370   70.4380   61.0020 C.3    25  LEU25       0.0022
     22  CD1       28.2440   69.2000   61.2220 C.3    25  LEU25       0.0001
     23  CD2       30.1740   70.5010   62.1440 C.3    25  LEU25       0.0001
     24  N         32.1840   70.5230   57.6450 N.am   26  ILE26      -0.1977
     25  CA        32.7900   70.1500   56.3860 C.3    26  ILE26       0.1596
     26  C         32.8820   68.6320   56.2980 C.2    26  ILE26       0.2287
     27  O         33.2540   67.9500   57.2700 O.2    26  ILE26      -0.2864
     28  CB        34.1580   70.7190   56.3070 C.3    26  ILE26       0.0276
     29  CG1       34.0930   72.2710   56.2920 C.3    26  ILE26       0.0022
     30  CG2       34.9070   70.3100   55.0170 C.3    26  ILE26       0.0022
     31  CD1       35.4230   72.9300   56.4370 C.3    26  ILE26       0.0001
     32  N         44.2920   70.0040   59.0020 N.3    50  TYR50      -0.1227
     33  CA        43.8340   71.3530   58.6820 C.3    50  TYR50       0.1736
     34  C         42.4350   71.7140   59.2020 C.2    50  TYR50       0.2596
     35  O         42.1730   72.8940   59.4190 O.2    50  TYR50      -0.2718
     36  CB        43.8190   71.5810   57.1590 C.3    50  TYR50       0.0548
     37  CG        45.1690   71.4610   56.5320 C.ar   50  TYR50      -0.0200
     38  CD1       45.6670   70.2350   56.1280 C.ar   50  TYR50      -0.0009
     39  CD2       45.9840   72.5970   56.3730 C.ar   50  TYR50      -0.0009
     40  CE1       46.9560   70.1190   55.5760 C.ar   50  TYR50       0.0417
     41  CE2       47.2630   72.4920   55.8240 C.ar   50  TYR50       0.0417
     42  CZ        47.7370   71.2490   55.4220 C.ar   50  TYR50       0.1957
     43  OH        48.9980   71.1560   54.8770 O.3    50  TYR50      -0.2866
     44  N         41.5010   70.7560   59.2800 N.am   51  THR51      -0.1939
     45  CA        40.1470   71.0430   59.6830 C.3    51  THR51       0.2013
     46  C         39.5030   69.8080   60.3330 C.2    51  THR51       0.2484
     47  O         39.7870   68.6780   59.9270 O.2    51  THR51      -0.2729
     48  CB        39.2760   71.5140   58.4540 C.3    51  THR51       0.1807
     49  OG1       37.9410   71.7920   58.9060 O.3    51  THR51      -0.2208
     50  CG2       39.2470   70.4270   57.3700 C.3    51  THR51       0.0379
     51  N         38.5800   70.0040   61.3140 N.am   52  PRO52      -0.2726
     52  CA        37.7250   68.8650   61.5810 C.3    52  PRO52       0.1402
     53  C         36.8800   68.5900   60.3740 C.2    52  PRO52       0.2269
     54  O         36.5870   69.5110   59.6120 O.2    52  PRO52      -0.2865
     55  CB        36.8050   69.3400   62.7100 C.3    52  PRO52       0.0296
     56  CG        36.8970   70.7830   62.7360 C.3    52  PRO52       0.0237
     57  CD        38.1450   71.2040   62.0460 C.3    52  PRO52       0.0939
     58  N         37.6050   74.8770   54.4460 N.3   254  ALA254     -0.1245
     59  CA        37.9600   75.2680   55.7860 C.3   254  ALA254      0.1562
     60  C         38.6230   76.6260   55.8310 C.2   254  ALA254      0.2260
     61  O         38.2780   77.5160   56.6690 O.2   254  ALA254     -0.2867
     62  CB        38.8500   74.1750   56.4340 C.3   254  ALA254      0.0290
     63  N         35.8770   79.4210   55.0550 N.3   257  ILE257     -0.1231
     64  CA        34.7520   79.6430   55.9760 C.3   257  ILE257      0.1692
     65  C         35.1970   79.8060   57.4320 C.2   257  ILE257      0.2592
     66  O         34.3760   80.0340   58.2750 O.2   257  ILE257     -0.2718
     67  CB        33.6140   78.5700   55.8450 C.3   257  ILE257      0.0266
     68  CG1       33.9870   77.2000   56.4190 C.3   257  ILE257      0.0019
     69  CG2       33.1380   78.4030   54.3560 C.3   257  ILE257      0.0020
     70  CD1       32.7980   76.2520   56.4830 C.3   257  ILE257      0.0001
     71  N         36.4840   79.7440   57.6920 N.am  258  SER258     -0.1952
     72  CA        36.9870   79.8600   59.0620 C.3   258  SER258      0.1924
     73  C         36.5280   81.1790   59.7330 C.2   258  SER258      0.2314
     74  O         36.1590   81.1970   60.9060 O.2   258  SER258     -0.2863
     75  CB        38.5160   79.6910   59.1010 C.3   258  SER258      0.2116
     76  OG        39.2100   80.7420   58.4530 O.3   258  SER258     -0.2180
     77  N         33.0210   80.9290   61.5250 N.3   261  ILE261     -0.1245
     78  CA        32.7750   79.9510   62.6050 C.3   261  ILE261      0.1561
     79  C         32.4290   80.7150   63.8900 C.2   261  ILE261      0.2260
     80  O         33.1810   81.5990   64.2750 O.2   261  ILE261     -0.2867
     81  CB        33.9970   79.0890   62.8380 C.3   261  ILE261      0.0252
     82  CG1       34.4300   78.3520   61.5540 C.3   261  ILE261      0.0019
     83  CG2       33.7600   78.1470   63.9870 C.3   261  ILE261      0.0019
     84  CD1       33.3770   77.4930   60.8230 C.3   261  ILE261      0.0001
     85  N         34.3110   69.1910   69.4280 N.3   271  PHE271     -0.1241
     86  CA        35.5620   69.3960   68.7110 C.3   271  PHE271      0.1605
     87  C         36.7470   69.3750   69.6680 C.2   271  PHE271      0.2264
     88  O         36.7670   70.0670   70.6930 O.2   271  PHE271     -0.2867
     89  CB        35.5400   70.7130   67.9100 C.3   271  PHE271      0.0534
     90  CG        34.4540   70.7720   66.8540 C.ar  271  PHE271     -0.0203
     91  CD1       33.1680   71.1660   67.1940 C.ar  271  PHE271     -0.0042
     92  CD2       34.7070   70.3700   65.5640 C.ar  271  PHE271     -0.0042
     93  CE1       32.1610   71.1640   66.2810 C.ar  271  PHE271     -0.0003
     94  CE2       33.6960   70.3970   64.6170 C.ar  271  PHE271     -0.0003
     95  CZ        32.4160   70.8050   64.9860 C.ar  271  PHE271     -0.0000
@<TRIPOS>BOND
     1    69    67    1
     2    58    59    1
     3    43    42    1
     4    30    28    1
     5    63    64    1
     6    42    40   ar
     7    42    41   ar
     8    40    38   ar
     9    59    60    1
    10    59    62    1
    11    41    39   ar
    12    60    61    2
    13    67    64    1
    14    67    68    1
    15    64    65    1
    16    38    37   ar
    17    29    28    1
    18    29    31    1
    19    26    25    1
    20    26    27    2
    21    28    25    1
    22    39    37   ar
    23    25    24    1
    24    68    70    1
    25    37    36    1
    26    19    18    2
    27    36    33    1
    28    50    48    1
    29    65    71   am
    30    65    66    2
    31    24    18   am
    32    71    72    1
    33    18    17    1
    34    76    75    1
    35    48    49    1
    36    48    45    1
    37    33    32    1
    38    33    34    1
    39    72    75    1
    40    72    73    1
    41    17    16    1
    42    17    20    1
    43    13    14    1
    44    13    10    1
    45    34    44   am
    46    34    35    2
    47    16    11   am
    48    44    45    1
    49    20    21    1
    50    54    53    2
    51    45    46    1
    52    73    74    2
    53    11    10    1
    54    11    12    2
    55    47    46    2
    56    14    15    1
    57    10     9    1
    58    46    51   am
    59    53    52    1
    60    84    82    1
    61    21    22    1
    62    21    23    1
    63    51    52    1
    64    51    57    1
    65    15     9    1
    66     9     3   am
    67    77    78    1
    68    82    81    1
    69    52    55    1
    70    57    56    1
    71     4     3    2
    72     3     2    1
    73    78    81    1
    74    78    79    1
    75    55    56    1
    76    81    83    1
    77     7     5    1
    78     2     1    1
    79     2     5    1
    80    79    80    2
    81    94    95   ar
    82    94    92   ar
    83     5     6    1
    84    95    93   ar
    85    92    90   ar
    86     6     8    1
    87    93    91   ar
    88    90    91   ar
    89    90    89    1
    90    89    86    1
    91    86    85    1
    92    86    87    1
    93    87    88    2
