@<TRIPOS>MOLECULE
tmp/3mz9B00.pdb
 148 145 0 0 0
SMALL
GASTEIGER

@<TRIPOS>ATOM
      1  N         44.0870   19.1720   20.6520 N.3    21  TYR21      -0.1227
      2  CA        42.7770   19.2960   20.0080 C.3    21  TYR21       0.1736
      3  C         42.9450   19.0260   18.5270 C.2    21  TYR21       0.2596
      4  O         43.5150   17.9940   18.1770 O.2    21  TYR21      -0.2718
      5  CB        42.1370   20.6590   20.3480 C.3    21  TYR21       0.0548
      6  CG        41.9700   20.8070   21.8380 C.ar   21  TYR21      -0.0200
      7  CD1       42.8740   21.5670   22.5940 C.ar   21  TYR21      -0.0009
      8  CD2       40.9180   20.1600   22.5130 C.ar   21  TYR21      -0.0009
      9  CE1       42.7310   21.6770   23.9850 C.ar   21  TYR21       0.0417
     10  CE2       40.7760   20.2570   23.9070 C.ar   21  TYR21       0.0417
     11  CZ        41.6800   21.0260   24.6280 C.ar   21  TYR21       0.1957
     12  OH        41.5480   21.1320   25.9890 O.3    21  TYR21      -0.2866
     13  N         42.4670   19.9070   17.6480 N.am   22  THR22      -0.1953
     14  CA        42.6010   19.6380   16.2100 C.3    22  THR22       0.1897
     15  C         44.0900   19.4170   15.9040 C.2    22  THR22       0.2313
     16  O         44.9390   20.0430   16.5410 O.2    22  THR22      -0.2863
     17  CB        41.9470   20.7570   15.3240 C.3    22  THR22       0.1794
     18  OG1       41.9220   20.3280   13.9500 O.3    22  THR22      -0.2208
     19  CG2       42.7020   22.0670   15.4490 C.3    22  THR22       0.0378
     20  N         38.1060   13.3970   18.3810 N.3    26  MET26      -0.1245
     21  CA        37.7750   13.0390   19.7480 C.3    26  MET26       0.1570
     22  C         37.3480   11.5950   19.8990 C.2    26  MET26       0.2261
     23  O         37.7010   10.9620   20.9030 O.2    26  MET26      -0.2867
     24  CB        36.6790   13.9620   20.2980 C.3    26  MET26       0.0387
     25  CG        37.0680   15.4190   20.2630 C.3    26  MET26       0.0595
     26  SD        35.7100   16.5090   20.7770 S.3    26  MET26      -0.1393
     27  CE        35.5790   15.9460   22.4600 C.3    26  MET26       0.0692
     28  N         45.8810   26.6830   26.8720 N.3    96  ARG96      -0.1245
     29  CA        45.1250   26.0690   25.7630 C.3    96  ARG96       0.1563
     30  C         43.8490   25.3490   26.2550 C.2    96  ARG96       0.2260
     31  O         42.9530   25.0500   25.4680 O.2    96  ARG96      -0.2867
     32  CB        46.0180   25.0820   25.0030 C.3    96  ARG96       0.0307
     33  CG        45.5590   24.7430   23.5920 C.3    96  ARG96       0.0489
     34  CD        46.2810   23.5040   23.0840 C.3    96  ARG96       0.2205
     35  NE        47.7100   23.7460   22.8550 N.pl3  96  ARG96      -0.0865
     36  CZ        48.3100   23.6930   21.6710 C.cat  96  ARG96       0.5346
     37  NH1       49.6090   23.9290   21.5980 N.pl3  96  ARG96       0.1354
     38  NH2       47.6200   23.3940   20.5660 N.pl3  96  ARG96       0.1354
     39  N         39.1380   27.0230   28.2040 N.3    99  TRP99      -0.1241
     40  CA        37.7030   26.7420   28.0500 C.3    99  TRP99       0.1605
     41  C         37.1530   25.8140   29.1340 C.2    99  TRP99       0.2264
     42  O         35.9660   25.8560   29.4610 O.2    99  TRP99      -0.2867
     43  CB        37.4470   26.1120   26.6690 C.3    99  TRP99       0.0550
     44  CG        38.0100   24.7000   26.5510 C.ar   99  TRP99       0.0003
     45  CD1       39.2760   24.3430   26.1630 C.ar   99  TRP99       0.0946
     46  CD2       37.3250   23.4770   26.8530 C.ar   99  TRP99       0.0152
     47  NE1       39.4100   22.9630   26.1760 N.ar   99  TRP99      -0.2442
     48  CE2       38.2290   22.4130   26.6030 C.ar   99  TRP99       0.0810
     49  CE3       36.0260   23.1730   27.2860 C.ar   99  TRP99       0.0012
     50  CZ2       37.8770   21.0700   26.7870 C.ar   99  TRP99       0.0191
     51  CZ3       35.6760   21.8290   27.4790 C.ar   99  TRP99       0.0001
     52  CH2       36.6010   20.7970   27.2220 C.ar   99  TRP99       0.0015
     53  N         38.9410   14.5350   26.4500 N.3   136  ARG136     -0.1245
     54  CA        40.2320   15.2010   26.5260 C.3   136  ARG136      0.1563
     55  C         40.0710   16.5020   27.3310 C.2   136  ARG136      0.2260
     56  O         38.9680   17.0590   27.3950 O.2   136  ARG136     -0.2867
     57  CB        40.7990   15.4610   25.1010 C.3   136  ARG136      0.0307
     58  CG        39.9140   16.3710   24.2470 C.3   136  ARG136      0.0489
     59  CD        40.2440   16.2790   22.7770 C.3   136  ARG136      0.2205
     60  NE        39.5260   17.2900   21.9820 N.pl3 136  ARG136     -0.0865
     61  CZ        39.6060   17.4080   20.6580 C.cat 136  ARG136      0.5346
     62  NH1       40.3300   16.5550   19.9340 N.pl3 136  ARG136      0.1354
     63  NH2       38.9240   18.3660   20.0430 N.pl3 136  ARG136      0.1354
     64  N         21.7300   17.6630   21.1860 N.3   246  GLU246     -0.1245
     65  CA        22.2970   19.0280   21.2810 C.3   246  GLU246      0.1567
     66  C         21.5750   19.9810   20.3360 C.2   246  GLU246      0.2260
     67  O         20.7570   19.5460   19.5240 O.2   246  GLU246     -0.2867
     68  CB        23.8210   19.0180   21.0080 C.3   246  GLU246      0.0388
     69  CG        24.1620   18.6950   19.5650 C.3   246  GLU246      0.1160
     70  CD        25.5720   18.1020   19.4000 C.2   246  GLU246      0.3649
     71  OE1       26.1520   17.6410   20.4070 O.co2 246  GLU246     -0.2457
     72  OE2       26.0780   18.0890   18.2440 O.co2 246  GLU246     -0.2457
     73  N         36.8260   29.4550   10.8390 N.3   381  TYR381     -0.1241
     74  CA        37.4980   29.3470   12.1300 C.3   381  TYR381      0.1605
     75  C         38.0480   30.6970   12.5760 C.2   381  TYR381      0.2264
     76  O         37.8130   31.1330   13.7080 O.2   381  TYR381     -0.2867
     77  CB        38.6340   28.3140   12.0690 C.3   381  TYR381      0.0534
     78  CG        39.5200   28.3310   13.3000 C.ar  381  TYR381     -0.0201
     79  CD1       39.2310   27.5220   14.3940 C.ar  381  TYR381     -0.0009
     80  CD2       40.6380   29.1820   13.3790 C.ar  381  TYR381     -0.0009
     81  CE1       40.0300   27.5410   15.5400 C.ar  381  TYR381      0.0417
     82  CE2       41.4450   29.2060   14.5240 C.ar  381  TYR381      0.0417
     83  CZ        41.1310   28.3810   15.5970 C.ar  381  TYR381      0.1957
     84  OH        41.9080   28.3850   16.7390 O.3   381  TYR381     -0.2866
     85  N         26.2230   27.5150   14.5580 N.3   394  HIS394     -0.1226
     86  CA        26.8990   27.1290   15.7710 C.3   394  HIS394      0.1752
     87  C         26.1190   25.9720   16.3890 C.2   394  HIS394      0.2595
     88  O         24.9550   25.7240   16.0130 O.2   394  HIS394     -0.2718
     89  CB        26.9760   28.3600   16.6940 C.3   394  HIS394      0.0759
     90  CG        27.9620   28.2390   17.8070 C.ar  394  HIS394      0.0818
     91  ND1       29.2570   27.8120   17.6140 N.ar  394  HIS394     -0.2268
     92  CD2       27.8460   28.5110   19.1290 C.ar  394  HIS394      0.1154
     93  CE1       29.8950   27.8130   18.7710 C.ar  394  HIS394      0.1986
     94  NE2       29.0610   28.2330   19.7040 N.ar  394  HIS394     -0.2212
     95  N         26.7450   25.2610   17.3170 N.am  395  ARG395     -0.1980
     96  CA        26.0610   24.1580   18.0030 C.3   395  ARG395      0.1597
     97  C         26.4830   24.0450   19.4470 C.2   395  ARG395      0.2287
     98  O         27.5810   24.4540   19.8080 O.2   395  ARG395     -0.2864
     99  CB        26.3030   22.8220   17.2860 C.3   395  ARG395      0.0334
    100  CG        27.7420   22.2840   17.3770 C.3   395  ARG395      0.0492
    101  CD        27.7900   20.7890   16.9230 C.3   395  ARG395      0.2205
    102  NE        27.2780   20.7380   15.5920 N.pl3 395  ARG395     -0.0865
    103  CZ        26.3510   19.9370   15.0690 C.cat 395  ARG395      0.5346
    104  NH1       26.0720   20.1740   13.8170 N.pl3 395  ARG395      0.1354
    105  NH2       25.7390   18.9300   15.6980 N.pl3 395  ARG395      0.1354
    106  N         27.0680   21.2800   22.7480 N.3   397  TRP397     -0.1241
    107  CA        28.1090   20.2570   22.8000 C.3   397  TRP397      0.1605
    108  C         27.6330   18.8660   23.2660 C.2   397  TRP397      0.2264
    109  O         28.4140   17.8890   23.2480 O.2   397  TRP397     -0.2867
    110  CB        29.2400   20.7730   23.6770 C.3   397  TRP397      0.0550
    111  CG        29.9970   21.9780   23.1090 C.ar  397  TRP397      0.0003
    112  CD1       29.9140   22.4920   21.8490 C.ar  397  TRP397      0.0946
    113  CD2       30.9650   22.7640   23.7990 C.ar  397  TRP397      0.0152
    114  NE1       30.7790   23.5520   21.7130 N.ar  397  TRP397     -0.2442
    115  CE2       31.4260   23.7490   22.8980 C.ar  397  TRP397      0.0810
    116  CE3       31.4760   22.7440   25.1070 C.ar  397  TRP397      0.0012
    117  CZ2       32.3690   24.6990   23.2580 C.ar  397  TRP397      0.0191
    118  CZ3       32.4280   23.6790   25.4690 C.ar  397  TRP397      0.0001
    119  CH2       32.8620   24.6550   24.5420 C.ar  397  TRP397      0.0015
    120  N         28.7870   18.1380   28.5300 N.3   401  TYR401     -0.1241
    121  CA        29.1770   19.5290   28.3510 C.3   401  TYR401      0.1605
    122  C         28.0520   20.5010   28.5950 C.2   401  TYR401      0.2264
    123  O         28.2950   21.6000   29.0930 O.2   401  TYR401     -0.2867
    124  CB        29.6560   19.7740   26.9280 C.3   401  TYR401      0.0534
    125  CG        30.8580   18.9700   26.5380 C.ar  401  TYR401     -0.0201
    126  CD1       30.7160   17.7820   25.8270 C.ar  401  TYR401     -0.0009
    127  CD2       32.1360   19.4070   26.8500 C.ar  401  TYR401     -0.0009
    128  CE1       31.8240   17.0290   25.4490 C.ar  401  TYR401      0.0417
    129  CE2       33.2650   18.6600   26.4730 C.ar  401  TYR401      0.0417
    130  CZ        33.0970   17.4710   25.7900 C.ar  401  TYR401      0.1957
    131  OH        34.2040   16.7290   25.3950 O.3   401  TYR401     -0.2866
    132  N         36.8370   33.0420   21.1890 N.3   415  HIS415     -0.1241
    133  CA        35.9240   31.9400   20.8860 C.3   415  HIS415      0.1621
    134  C         34.6050   32.5410   20.3610 C.2   415  HIS415      0.2264
    135  O         34.2830   33.6870   20.6810 O.2   415  HIS415     -0.2867
    136  CB        35.7230   31.0680   22.1350 C.3   415  HIS415      0.0745
    137  CG        36.9000   30.1890   22.4670 C.ar  415  HIS415      0.0817
    138  ND1       38.2110   30.5790   22.2790 N.ar  415  HIS415     -0.2268
    139  CD2       36.9560   28.9390   22.9900 C.ar  415  HIS415      0.1154
    140  CE1       39.0210   29.6010   22.6540 C.ar  415  HIS415      0.1986
    141  NE2       38.2820   28.5950   23.0930 N.ar  415  HIS415     -0.2212
    142  N         30.3370   12.6560   21.7130 N.3   489  THR489     -0.1218
    143  CA        31.4760   12.5840   20.8030 C.3   489  THR489      0.1862
    144  C         32.1510   11.2080   20.7850 C.2   489  THR489      0.2287
    145  O         33.1020   10.9910   20.0380 O.2   489  THR489     -0.2866
    146  CB        32.5320   13.6210   21.1770 C.3   489  THR489      0.1770
    147  OG1       32.8830   13.4490   22.5500 O.3   489  THR489     -0.2211
    148  CG2       31.9890   15.0200   20.9830 C.3   489  THR489      0.0375
@<TRIPOS>BOND
     1    73    74    1
     2    77    74    1
     3    77    78    1
     4    74    75    1
     5    75    76    2
     6    78    80   ar
     7    78    79   ar
     8    80    82   ar
     9   104   103    1
    10    18    17    1
    11    79    81   ar
    12    82    83   ar
    13    85    86    1
    14   103   102    2
    15   103   105    1
    16    17    19    1
    17    17    14    1
    18    81    83   ar
    19   102   101    1
    20    83    84    1
    21    86    87    1
    22    86    89    1
    23    15    14    1
    24    15    16    2
    25    88    87    2
    26    14    13    1
    27    87    95   am
    28    89    90    1
    29   101   100    1
    30    99   100    1
    31    99    96    1
    32    95    96    1
    33    91    90   ar
    34    91    93   ar
    35    13     3   am
    36    90    92   ar
    37    96    97    1
    38     4     3    2
    39    72    70   ar
    40    20    21    1
    41     3     2    1
    42    93    94   ar
    43    92    94   ar
    44    70    69    1
    45    70    71   ar
    46    97    98    2
    47    67    66    2
    48    69    68    1
    49    21    22    1
    50    21    24    1
    51    22    23    2
    52    62    61    1
    53     2     5    1
    54     2     1    1
    55   145   144    2
    56    63    61    1
    57    25    24    1
    58    25    26    1
    59    66    65    1
    60     5     6    1
    61   134   135    2
    62   134   133    1
    63    38    36    1
    64    61    60    2
    65    26    27    1
    66   144   143    1
    67   143   146    1
    68   143   142    1
    69   133   132    1
    70   133   136    1
    71   148   146    1
    72    68    65    1
    73   146   147    1
    74    64    65    1
    75    37    36    1
    76    36    35    2
    77   114   112   ar
    78   114   115   ar
    79     6     8   ar
    80     6     7   ar
    81   112   111   ar
    82    60    59    1
    83   136   137    1
    84   138   137   ar
    85   138   140   ar
    86   137   139   ar
    87     8    10   ar
    88     7     9   ar
    89   140   141   ar
    90   106   107    1
    91    59    58    1
    92   107   108    1
    93   107   110    1
    94    35    34    1
    95   115   117   ar
    96   115   113   ar
    97   139   141   ar
    98    34    33    1
    99   111   110    1
   100   111   113   ar
   101   109   108    2
   102   117   119   ar
   103    33    32    1
   104   113   116   ar
   105    10    11   ar
   106     9    11   ar
   107    58    57    1
   108   119   118   ar
   109    11    12    1
   110    32    29    1
   111    57    54    1
   112   116   118   ar
   113   131   130    1
   114   128   130   ar
   115   128   126   ar
   116    31    30    2
   117    29    30    1
   118    29    28    1
   119   130   129   ar
   120   126   125   ar
   121    45    47   ar
   122    45    44   ar
   123    47    48   ar
   124    53    54    1
   125   129   127   ar
   126    54    55    1
   127   125   127   ar
   128   125   124    1
   129    44    43    1
   130    44    46   ar
   131    48    50   ar
   132    48    46   ar
   133    43    40    1
   134    50    52   ar
   135    46    49   ar
   136   124   121    1
   137    52    51   ar
   138    49    51   ar
   139    55    56    2
   140    40    39    1
   141    40    41    1
   142   121   120    1
   143   121   122    1
   144   122   123    2
   145    41    42    2
