@<TRIPOS>MOLECULE
tmp/3mzcA00.pdb
 141 137 0 0 0
SMALL
GASTEIGER

@<TRIPOS>ATOM
      1  N        -12.6050    6.3380   11.2850 N.3    89  GLN89      -0.1245
      2  CA       -12.3350    5.1900   10.4250 C.3    89  GLN89       0.1566
      3  C        -12.5950    3.9140   11.2040 C.2    89  GLN89       0.2260
      4  O        -12.6020    3.9310   12.4370 O.2    89  GLN89      -0.2867
      5  CB       -10.8810    5.2050    9.9130 C.3    89  GLN89       0.0367
      6  CG        -9.8080    5.3250   10.9810 C.3    89  GLN89       0.0905
      7  CD        -9.0820    4.0430   11.2610 C.2    89  GLN89       0.2608
      8  OE1       -9.6270    2.9540   11.1390 O.2    89  GLN89      -0.2717
      9  NE2       -7.8720    4.1790   11.7100 N.am   89  GLN89      -0.0878
     10  N        -11.2420   -0.3980   10.9110 N.3    91  HIS91      -0.1241
     11  CA       -10.3730   -1.3570   10.2810 C.3    91  HIS91       0.1621
     12  C        -10.4190   -2.6310   11.0900 C.2    91  HIS91       0.2264
     13  O        -11.0440   -2.6940   12.1360 O.2    91  HIS91      -0.2867
     14  CB        -8.9380   -0.8460   10.2400 C.3    91  HIS91       0.0745
     15  CG        -8.3750   -0.5880   11.6020 C.ar   91  HIS91       0.0817
     16  ND1       -8.5390    0.6130   12.2610 N.ar   91  HIS91      -0.2268
     17  CD2       -7.7280   -1.4030   12.4650 C.ar   91  HIS91       0.1154
     18  CE1       -7.9990    0.5350   13.4630 C.ar   91  HIS91       0.1986
     19  NE2       -7.5040   -0.6870   13.6130 N.ar   91  HIS91      -0.2212
     20  N         -8.0350   -6.3070   12.3880 N.3    93  HIS93      -0.1241
     21  CA        -6.8310   -7.1320   12.4940 C.3    93  HIS93       0.1621
     22  C         -7.2670   -8.5870   12.3820 C.2    93  HIS93       0.2264
     23  O         -8.3190   -8.9550   12.9230 O.2    93  HIS93      -0.2867
     24  CB        -6.1400   -6.9030   13.8450 C.3    93  HIS93       0.0745
     25  CG        -5.8720   -5.4630   14.1250 C.ar   93  HIS93       0.0817
     26  ND1       -4.6450   -4.8680   13.9100 N.ar   93  HIS93      -0.2268
     27  CD2       -6.7030   -4.4900   14.5470 C.ar   93  HIS93       0.1154
     28  CE1       -4.7310   -3.5830   14.2180 C.ar   93  HIS93       0.1986
     29  NE2       -5.9650   -3.3260   14.6100 N.ar   93  HIS93      -0.2212
     30  N        -11.9850   -2.6240   14.8340 N.3   116  HIS116     -0.1241
     31  CA       -11.7650   -1.3780   15.5700 C.3   116  HIS116      0.1621
     32  C        -12.4310   -0.2040   14.8950 C.2   116  HIS116      0.2264
     33  O        -12.0790    0.1540   13.7690 O.2   116  HIS116     -0.2867
     34  CB       -10.2670   -1.1090   15.6460 C.3   116  HIS116      0.0745
     35  CG        -9.5560   -2.0720   16.5320 C.ar  116  HIS116      0.0817
     36  ND1       -8.1950   -2.2930   16.4730 N.ar  116  HIS116     -0.2268
     37  CD2      -10.0370   -2.9130   17.4810 C.ar  116  HIS116      0.1154
     38  CE1       -7.8740   -3.2100   17.3660 C.ar  116  HIS116      0.1986
     39  NE2       -8.9690   -3.5980   17.9920 N.ar  116  HIS116     -0.2212
     40  N        -12.7090    3.5690   15.2360 N.3   118  VAL118     -0.1245
     41  CA       -11.8560    4.5860   15.8590 C.3   118  VAL118      0.1561
     42  C        -12.5590    5.9360   15.9050 C.2   118  VAL118      0.2260
     43  O        -13.0100    6.4320   14.8680 O.2   118  VAL118     -0.2867
     44  CB       -10.5530    4.7310   15.0830 C.3   118  VAL118      0.0252
     45  CG1       -9.6630    5.7460   15.7380 C.3   118  VAL118      0.0019
     46  CG2       -9.8090    3.3580   14.9330 C.3   118  VAL118      0.0019
     47  N         -8.1990   15.0900   14.7770 N.3   127  PHE127     -0.1227
     48  CA        -7.6570   13.7990   15.1690 C.3   127  PHE127      0.1736
     49  C         -6.1900   13.8910   15.5690 C.2   127  PHE127      0.2596
     50  O         -5.7720   13.2600   16.5490 O.2   127  PHE127     -0.2718
     51  CB        -7.8430   12.8160   14.0110 C.3   127  PHE127      0.0547
     52  CG        -7.3310   11.4510   14.2810 C.ar  127  PHE127     -0.0202
     53  CD1       -8.0740   10.5560   15.0220 C.ar  127  PHE127     -0.0042
     54  CD2       -6.1060   11.0580   13.7910 C.ar  127  PHE127     -0.0042
     55  CE1       -7.6090    9.2850   15.2870 C.ar  127  PHE127     -0.0003
     56  CE2       -5.6390    9.7960   14.0500 C.ar  127  PHE127     -0.0003
     57  CZ        -6.4070    8.8990   14.7970 C.ar  127  PHE127     -0.0000
     58  N         -5.3980   14.6670   14.8250 N.am  128  GLY128     -0.1957
     59  CA        -3.9890   14.8220   15.1500 C.3   128  GLY128      0.1869
     60  C         -3.7380   15.4200   16.5300 C.2   128  GLY128      0.2309
     61  O         -2.7640   15.0520   17.1890 O.2   128  GLY128     -0.2863
     62  N         -4.8210   12.5900   19.3710 N.3   131  VAL131     -0.1245
     63  CA        -3.9150   11.4850   19.7190 C.3   131  VAL131      0.1561
     64  C         -2.8070   11.9020   20.6810 C.2   131  VAL131      0.2260
     65  O         -2.0950   11.0380   21.2020 O.2   131  VAL131     -0.2867
     66  CB        -3.2790   10.8100   18.4710 C.3   131  VAL131      0.0252
     67  CG1       -4.3550   10.2200   17.5880 C.3   131  VAL131      0.0019
     68  CG2       -2.4100   11.7800   17.6910 C.3   131  VAL131      0.0019
     69  N         -8.9380    9.5640   22.1990 N.3   137  LEU137     -0.1245
     70  CA        -9.5690    8.5940   21.3180 C.3   137  LEU137      0.1561
     71  C        -10.4500    7.6520   22.1150 C.2   137  LEU137      0.2260
     72  O        -10.2140    7.3820   23.2860 O.2   137  LEU137     -0.2867
     73  CB        -8.5270    7.7590   20.5730 C.3   137  LEU137      0.0270
     74  CG        -8.0940    8.2750   19.2050 C.3   137  LEU137      0.0019
     75  CD1       -7.5760    9.6740   19.2850 C.3   137  LEU137      0.0001
     76  CD2       -7.0530    7.3880   18.5210 C.3   137  LEU137      0.0001
     77  N        -11.8270    3.7750   21.0940 N.3   139  VAL139     -0.1245
     78  CA       -11.9100    2.7570   20.0630 C.3   139  VAL139      0.1561
     79  C        -12.8460    1.6740   20.5490 C.2   139  VAL139      0.2260
     80  O        -12.6720    1.1380   21.6550 O.2   139  VAL139     -0.2867
     81  CB       -10.5180    2.1650   19.7060 C.3   139  VAL139      0.0252
     82  CG1      -10.6430    1.1150   18.5740 C.3   139  VAL139      0.0019
     83  CG2       -9.5570    3.2560   19.2950 C.3   139  VAL139      0.0019
     84  N         -2.9190    3.1380   21.1540 N.3   194  LEU194     -0.1231
     85  CA        -2.8970    2.6070   19.7960 C.3   194  LEU194      0.1693
     86  C         -2.1630    1.2900   19.8300 C.2   194  LEU194      0.2593
     87  O         -1.1570    1.1370   20.5290 O.2   194  LEU194     -0.2718
     88  CB        -2.1630    3.5470   18.8430 C.3   194  LEU194      0.0284
     89  CG        -2.6980    4.9730   18.7730 C.3   194  LEU194      0.0019
     90  CD1       -1.8230    5.7450   17.7880 C.3   194  LEU194      0.0001
     91  CD2       -4.1810    5.0000   18.3960 C.3   194  LEU194      0.0001
     92  N         -2.6310    0.3230   19.0580 N.am  195  THR195     -0.1939
     93  CA        -1.9550   -0.9760   19.0510 C.3   195  THR195      0.2028
     94  C         -0.9210   -1.1330   17.9380 C.2   195  THR195      0.2643
     95  O         -0.3430   -2.2260   17.7720 O.2   195  THR195     -0.2714
     96  CB        -2.9680   -2.1060   18.8880 C.3   195  THR195      0.1808
     97  OG1       -3.5350   -2.0100   17.5740 O.3   195  THR195     -0.2208
     98  CG2       -4.0470   -2.0470   19.9860 C.3   195  THR195      0.0379
     99  N         -0.6750   -0.0700   17.1670 N.am  196  THR196     -0.1937
    100  CA         0.4520   -0.0310   16.2340 C.3   196  THR196      0.2013
    101  C          1.2590    1.2180   16.5250 C.2   196  THR196      0.2484
    102  O          0.7400    2.1620   17.1280 O.2   196  THR196     -0.2729
    103  CB         0.0520    0.0230   14.7540 C.3   196  THR196      0.1807
    104  OG1       -0.3590    1.3550   14.4050 O.3   196  THR196     -0.2208
    105  CG2       -1.0670   -0.9270   14.4610 C.3   196  THR196      0.0379
    106  N          2.5050    1.2510   16.0440 N.am  197  PRO197     -0.2715
    107  CA         3.2390    2.5070   16.1310 C.3   197  PRO197      0.1521
    108  C          2.3720    3.6310   15.5610 C.2   197  PRO197      0.2440
    109  O          1.6710    3.4260   14.5510 O.2   197  PRO197     -0.2731
    110  CB         4.4870    2.2200   15.2880 C.3   197  PRO197      0.0310
    111  CG         4.7380    0.7420   15.5330 C.3   197  PRO197      0.0237
    112  CD         3.3360    0.1750   15.4530 C.3   197  PRO197      0.0939
    113  N          2.4190    4.8140   16.1800 N.am  198  PRO198     -0.2727
    114  CA         3.3280    5.2390   17.2470 C.3   198  PRO198      0.1402
    115  C          2.9290    4.8620   18.6870 C.2   198  PRO198      0.2269
    116  O          3.5420    5.3540   19.6280 O.2   198  PRO198     -0.2865
    117  CB         3.3280    6.7670   17.0830 C.3   198  PRO198      0.0296
    118  CG         1.9970    7.0770   16.5930 C.3   198  PRO198      0.0237
    119  CD         1.5870    5.9320   15.6940 C.3   198  PRO198      0.0939
    120  N          0.6860    5.5260   20.8100 N.3   200  LEU200     -0.1245
    121  CA         0.3590    6.6200   21.6970 C.3   200  LEU200      0.1561
    122  C         -0.6980    6.2170   22.7180 C.2   200  LEU200      0.2260
    123  O         -1.6850    5.5330   22.3880 O.2   200  LEU200     -0.2867
    124  CB        -0.1210    7.8390   20.8880 C.3   200  LEU200      0.0270
    125  CG         0.9220    8.3980   19.9130 C.3   200  LEU200      0.0019
    126  CD1        0.3070    9.4350   18.9930 C.3   200  LEU200      0.0001
    127  CD2        2.0740    9.0100   20.7190 C.3   200  LEU200      0.0001
    128  N        -10.3950    2.2970   25.6260 N.3   205  TRP205     -0.1241
    129  CA       -10.8330    1.0920   24.9370 C.3   205  TRP205      0.1605
    130  C        -12.1760    0.6560   25.4490 C.2   205  TRP205      0.2264
    131  O        -12.3980    0.5980   26.6510 O.2   205  TRP205     -0.2867
    132  CB        -9.8030   -0.0450   25.1340 C.3   205  TRP205      0.0550
    133  CG        -8.7040    0.0800   24.1150 C.ar  205  TRP205      0.0003
    134  CD1       -7.4790    0.6620   24.2860 C.ar  205  TRP205      0.0946
    135  CD2       -8.7640   -0.3400   22.7450 C.ar  205  TRP205      0.0152
    136  NE1       -6.7930    0.6450   23.1020 N.ar  205  TRP205     -0.2442
    137  CE2       -7.5530    0.0290   22.1380 C.ar  205  TRP205      0.0810
    138  CE3       -9.7410   -0.9770   21.9700 C.ar  205  TRP205      0.0012
    139  CZ2       -7.2910   -0.2170   20.7840 C.ar  205  TRP205      0.0191
    140  CZ3       -9.4870   -1.2220   20.6440 C.ar  205  TRP205      0.0001
    141  CH2       -8.2720   -0.8470   20.0570 C.ar  205  TRP205      0.0015
@<TRIPOS>BOND
     1     5     2    1
     2     5     6    1
     3    14    11    1
     4    14    15    1
     5    11    10    1
     6    11    12    1
     7     2     3    1
     8     2     1    1
     9     6     7    1
    10    12    13    2
    11     8     7    2
    12     3     4    2
    13     7     9   am
    14    15    16   ar
    15    15    17   ar
    16    16    18   ar
    17    22    21    1
    18    22    23    2
    19    20    21    1
    20    17    19   ar
    21    21    24    1
    22    18    19   ar
    23    33    32    2
    24    54    56   ar
    25    54    52   ar
    26    24    25    1
    27    26    25   ar
    28    26    28   ar
    29    51    52    1
    30    51    48    1
    31    56    57   ar
    32    25    27   ar
    33    28    29   ar
    34    52    53   ar
    35   104   103    1
    36   105   103    1
    37    27    29   ar
    38   109   108    2
    39   103   100    1
    40    47    48    1
    41    57    55   ar
    42    58    59    1
    43    58    49   am
    44    30    31    1
    45    43    42    2
    46    32    31    1
    47    46    44    1
    48    53    55   ar
    49    44    45    1
    50    44    41    1
    51    59    60    1
    52    48    49    1
    53    40    41    1
    54   110   111    1
    55   110   107    1
    56   112   111    1
    57   112   106    1
    58   108   107    1
    59   108   113   am
    60    49    50    2
    61    31    34    1
    62    34    35    1
    63   119   113    1
    64   119   118    1
    65    41    42    1
    66   106   107    1
    67   106   101   am
    68   113   114    1
    69   100   101    1
    70   100    99    1
    71    36    35   ar
    72    36    38   ar
    73   101   102    2
    74    60    61    2
    75    35    37   ar
    76   118   117    1
    77   117   114    1
    78    99    94   am
    79   114   115    1
    80    38    39   ar
    81    37    39   ar
    82    97    96    1
    83    67    66    1
    84    68    66    1
    85    95    94    2
    86    90    89    1
    87    94    93    1
    88    91    89    1
    89    66    63    1
    90    76    74    1
    91    82    81    1
    92   115   116    2
    93    89    88    1
    94    88    85    1
    95    96    93    1
    96    96    98    1
    97   126   125    1
    98    93    92    1
    99    92    86   am
   100    74    75    1
   101    74    73    1
   102    83    81    1
   103    62    63    1
   104    81    78    1
   105    63    64    1
   106    85    86    1
   107    85    84    1
   108    86    87    2
   109   125   127    1
   110   125   124    1
   111   141   140   ar
   112   141   139   ar
   113    78    79    1
   114    78    77    1
   115    79    80    2
   116    73    70    1
   117   140   138   ar
   118    64    65    2
   119   139   137   ar
   120   120   121    1
   121   124   121    1
   122    70    71    1
   123    70    69    1
   124   121   122    1
   125   138   135   ar
   126    71    72    2
   127   137   135   ar
   128   137   136   ar
   129   123   122    2
   130   135   133   ar
   131   136   134   ar
   132   133   134   ar
   133   133   132    1
   134   129   132    1
   135   129   130    1
   136   129   128    1
   137   130   131    2
