@<TRIPOS>MOLECULE
tmp/3mzdA00.pdb
 188 182 0 0 0
SMALL
GASTEIGER

@<TRIPOS>ATOM
      1  N         37.1500    5.4080   24.5860 N.3    40  ALA40      -0.1231
      2  CA        38.2860    5.8000   25.4300 C.3    40  ALA40       0.1694
      3  C         39.3650    6.4730   24.5940 C.2    40  ALA40       0.2592
      4  O         39.0500    7.2460   23.6940 O.2    40  ALA40      -0.2718
      5  CB        38.8460    4.5960   26.1940 C.3    40  ALA40       0.0304
      6  N         40.6290    6.1520   24.8640 N.am   41  SER41      -0.1952
      7  CA        41.7710    6.7160   24.1260 C.3    41  SER41       0.1924
      8  C         41.8210    6.4030   22.6210 C.2    41  SER41       0.2314
      9  O         42.6060    7.0210   21.8840 O.2    41  SER41      -0.2863
     10  CB        43.0940    6.2760   24.7820 C.3    41  SER41       0.2116
     11  OG        43.3310    6.9570   26.0100 O.3    41  SER41      -0.2180
     12  N         41.7440    9.1420   19.9410 N.3    44  LYS44      -0.1245
     13  CA        42.9950    9.7530   19.4430 C.3    44  LYS44       0.1561
     14  C         43.5040    9.2130   18.1110 C.2    44  LYS44       0.2260
     15  O         44.2680    9.8940   17.4210 O.2    44  LYS44      -0.2867
     16  CB        44.1220    9.6710   20.4780 C.3    44  LYS44       0.0271
     17  CG        43.8420   10.4420   21.7240 C.3    44  LYS44       0.0035
     18  CD        45.0790   10.5320   22.6080 C.3    44  LYS44       0.0206
     19  CE        44.6980   11.1440   23.9540 C.3    44  LYS44       0.1093
     20  NZ        43.8780   10.2080   24.8060 N.3    44  LYS44      -0.1314
     21  N         39.9500   18.6850   34.3180 N.3    79  VAL79      -0.1231
     22  CA        39.4490   17.6800   33.3720 C.3    79  VAL79       0.1692
     23  C         40.5300   16.6270   33.0250 C.2    79  VAL79       0.2592
     24  O         40.2200   15.4550   32.8100 O.2    79  VAL79      -0.2718
     25  CB        38.8220   18.3380   32.0970 C.3    79  VAL79       0.0266
     26  CG1       39.8850   19.0560   31.2360 C.3    79  VAL79       0.0020
     27  CG2       38.0430   17.2960   31.2850 C.3    79  VAL79       0.0020
     28  N         41.7930   17.0570   33.0120 N.am   80  PHE80      -0.1962
     29  CA        42.9350   16.1860   32.7290 C.3    80  PHE80       0.1771
     30  C         43.3630   15.3000   33.8930 C.2    80  PHE80       0.2619
     31  O         44.3250   14.5340   33.7610 O.2    80  PHE80      -0.2715
     32  CB        44.1500   17.0140   32.3160 C.3    80  PHE80       0.0574
     33  CG        43.9890   17.7650   31.0190 C.ar   80  PHE80      -0.0200
     34  CD1       44.3690   19.0970   30.9380 C.ar   80  PHE80      -0.0042
     35  CD2       43.4790   17.1440   29.8840 C.ar   80  PHE80      -0.0042
     36  CE1       44.2490   19.8050   29.7490 C.ar   80  PHE80      -0.0003
     37  CE2       43.3450   17.8500   28.6990 C.ar   80  PHE80      -0.0003
     38  CZ        43.7450   19.1770   28.6300 C.ar   80  PHE80      -0.0000
     39  N         42.6690   15.3990   35.0260 N.am   81  LYS81      -0.1963
     40  CA        43.0150   14.6200   36.2350 C.3    81  LYS81       0.1728
     41  C         42.9730   13.1070   36.0400 C.2    81  LYS81       0.2617
     42  O         41.9570   12.5600   35.6060 O.2    81  LYS81      -0.2715
     43  CB        42.1090   14.9880   37.4130 C.3    81  LYS81       0.0311
     44  CG        42.5710   14.3740   38.7480 C.3    81  LYS81       0.0038
     45  CD        41.6700   14.7710   39.9100 C.3    81  LYS81       0.0206
     46  CE        40.2410   14.2860   39.7060 C.3    81  LYS81       0.1093
     47  NZ        39.3750   14.7430   40.8300 N.3    81  LYS81      -0.1314
     48  N         44.0790   12.4500   36.3950 N.am   82  GLY82      -0.1940
     49  CA        44.1990   10.9910   36.3620 C.3    82  GLY82       0.2014
     50  C         44.3490   10.4410   34.9560 C.2    82  GLY82       0.2640
     51  O         44.0560    9.2720   34.7050 O.2    82  GLY82      -0.2714
     52  N         44.8080   11.2950   34.0400 N.am   83  SER83      -0.1935
     53  CA        44.8610   10.9610   32.6210 C.3    83  SER83       0.2055
     54  C         46.2830   11.0840   32.0690 C.2    83  SER83       0.2643
     55  O         47.1640   11.6310   32.7200 O.2    83  SER83      -0.2714
     56  CB        43.8760   11.8400   31.8380 C.3    83  SER83       0.2130
     57  OG        44.4460   13.0870   31.4640 O.3    83  SER83      -0.2179
     58  N         46.4990   10.5550   30.8660 N.am   84  SER84      -0.1949
     59  CA        47.7970   10.6350   30.2090 C.3    84  SER84       0.1924
     60  C         48.0470   12.0580   29.7140 C.2    84  SER84       0.2314
     61  O         47.1630   12.6530   29.0910 O.2    84  SER84      -0.2863
     62  CB        47.9090    9.6420   29.0590 C.3    84  SER84       0.2116
     63  OG        49.1840    9.7570   28.4520 O.3    84  SER84      -0.2180
     64  N         49.5530    9.0870   24.3160 N.3   107  SER107     -0.1217
     65  CA        48.1410    9.4730   24.4950 C.3   107  SER107      0.1889
     66  C         47.9230   10.7530   25.3290 C.2   107  SER107      0.2288
     67  O         46.9300   10.8570   26.0360 O.2   107  SER107     -0.2866
     68  CB        47.3160    8.3150   25.0730 C.3   107  SER107      0.2089
     69  OG        46.5030    7.7710   24.0610 O.3   107  SER107     -0.2183
     70  N         46.6360   13.9550   26.5620 N.3   109  ASN109     -0.1240
     71  CA        45.3700   14.6470   26.3150 C.3   109  ASN109      0.1653
     72  C         45.5480   16.1300   26.0800 C.2   109  ASN109      0.2266
     73  O         44.8200   16.7280   25.2840 O.2   109  ASN109     -0.2867
     74  CB        44.3550   14.3570   27.4330 C.3   109  ASN109      0.1155
     75  CG        43.9710   12.8770   27.4800 C.2   109  ASN109      0.2627
     76  OD1       43.4690   12.3280   26.5060 O.2   109  ASN109     -0.2716
     77  ND2       44.2530   12.2270   28.5960 N.am  109  ASN109     -0.0877
     78  N         40.1660   14.1680   22.5000 N.3   148  HIS148     -0.1226
     79  CA        41.0920   13.2400   23.2050 C.3   148  HIS148      0.1752
     80  C         40.5280   11.8750   23.6560 C.2   148  HIS148      0.2597
     81  O         41.2880   10.9250   23.9100 O.2   148  HIS148     -0.2718
     82  CB        41.7720   13.9520   24.3840 C.3   148  HIS148      0.0759
     83  CG        40.9210   15.0030   25.0340 C.ar  148  HIS148      0.0818
     84  ND1       39.6170   14.7750   25.4270 N.ar  148  HIS148     -0.2268
     85  CD2       41.1910   16.2920   25.3540 C.ar  148  HIS148      0.1154
     86  CE1       39.1210   15.8780   25.9560 C.ar  148  HIS148      0.1986
     87  NE2       40.0570   16.8120   25.9270 N.ar  148  HIS148     -0.2212
     88  N         39.2120   11.7750   23.7570 N.am  149  GLY149     -0.1942
     89  CA        38.5870   10.4920   24.0500 C.3   149  GLY149      0.2014
     90  C         38.0120   10.4120   25.4400 C.2   149  GLY149      0.2639
     91  O         37.6930    9.3070   25.9330 O.2   149  GLY149     -0.2714
     92  N         37.8880   11.5870   26.0620 N.am  150  LEU150     -0.1963
     93  CA        37.3160   11.7000   27.3800 C.3   150  LEU150      0.1728
     94  C         35.9220   11.1470   27.2080 C.2   150  LEU150      0.2616
     95  O         35.2570   11.4890   26.2300 O.2   150  LEU150     -0.2715
     96  CB        37.3070   13.1640   27.8780 C.3   150  LEU150      0.0311
     97  CG        36.0140   13.9710   28.0950 C.3   150  LEU150      0.0022
     98  CD1       36.0570   14.7790   29.3590 C.3   150  LEU150      0.0001
     99  CD2       35.7160   14.8720   26.9320 C.3   150  LEU150      0.0001
    100  N         35.5090   10.2610   28.1200 N.am  151  ASP151     -0.1971
    101  CA        34.1350    9.7690   28.1500 C.3   151  ASP151      0.1709
    102  C         33.2120   10.9860   28.1440 C.2   151  ASP151      0.2293
    103  O         32.8930   11.5480   29.1910 O.2   151  ASP151     -0.2864
    104  CB        33.8730    8.8980   29.3950 C.3   151  ASP151      0.1436
    105  CG        34.6770    7.5870   29.4000 C.2   151  ASP151      0.3671
    106  OD1       35.3530    7.2520   28.3960 O.co2 151  ASP151     -0.2456
    107  OD2       34.6180    6.8800   30.4280 O.co2 151  ASP151     -0.2456
    108  N         53.0310    3.3200   24.8190 N.3   195  ARG195     -0.1245
    109  CA        52.1340    2.5410   25.6540 C.3   195  ARG195      0.1563
    110  C         51.6470    1.2130   25.0450 C.2   195  ARG195      0.2260
    111  O         51.0880    0.3920   25.7530 O.2   195  ARG195     -0.2867
    112  CB        50.9310    3.4060   26.0350 C.3   195  ARG195      0.0307
    113  CG        51.2610    4.5160   27.0230 C.3   195  ARG195      0.0489
    114  CD        51.5990    3.9470   28.3990 C.3   195  ARG195      0.2205
    115  NE        51.4320    4.8950   29.5140 N.pl3 195  ARG195     -0.0865
    116  CZ        50.8820    6.1100   29.4400 C.cat 195  ARG195      0.5346
    117  NH1       50.4090    6.5980   28.2920 N.pl3 195  ARG195      0.1354
    118  NH2       50.8080    6.8500   30.5360 N.pl3 195  ARG195      0.1354
    119  N         46.2060    1.6940   22.2400 N.3   211  THR211     -0.1203
    120  CA        45.5660    1.0770   23.3920 C.3   211  THR211      0.1994
    121  C         44.6840    2.1070   24.0860 C.2   211  THR211      0.2618
    122  O         44.8590    3.3060   23.9060 O.2   211  THR211     -0.2717
    123  CB        46.5800    0.4960   24.4270 C.3   211  THR211      0.1784
    124  OG1       47.2120    1.5580   25.1490 O.3   211  THR211     -0.2211
    125  CG2       47.6580   -0.3240   23.7500 C.3   211  THR211      0.0376
    126  N         43.7440    1.6370   24.8910 N.am  212  GLY212     -0.1942
    127  CA        42.8680    2.5460   25.6070 C.3   212  GLY212      0.2014
    128  C         42.2060    1.9370   26.8160 C.2   212  GLY212      0.2639
    129  O         41.9410    0.7470   26.8600 O.2   212  GLY212     -0.2714
    130  N         41.9500    2.7840   27.8010 N.am  213  HIS213     -0.1959
    131  CA        41.1620    2.4250   28.9590 C.3   213  HIS213      0.1787
    132  C         40.5930    3.6930   29.5810 C.2   213  HIS213      0.2621
    133  O         41.3270    4.6380   29.8990 O.2   213  HIS213     -0.2715
    134  CB        41.9820    1.6530   29.9920 C.3   213  HIS213      0.0785
    135  CG        41.1600    1.0720   31.1000 C.ar  213  HIS213      0.0821
    136  ND1       40.6730    1.8300   32.1440 N.ar  213  HIS213     -0.2267
    137  CD2       40.7400   -0.1950   31.3290 C.ar  213  HIS213      0.1154
    138  CE1       39.9840    1.0560   32.9640 C.ar  213  HIS213      0.1986
    139  NE2       40.0150   -0.1780   32.4940 N.ar  213  HIS213     -0.2212
    140  N         39.2700    3.7200   29.6740 N.am  214  THR214     -0.1937
    141  CA        38.5640    4.5750   30.6160 C.3   214  THR214      0.2028
    142  C         37.6750    3.6070   31.3970 C.2   214  THR214      0.2642
    143  O         37.6410    2.4120   31.0840 O.2   214  THR214     -0.2714
    144  CB        37.7380    5.6850   29.9310 C.3   214  THR214      0.1808
    145  OG1       36.8190    5.0980   29.0030 O.3   214  THR214     -0.2208
    146  CG2       38.6500    6.7240   29.2140 C.3   214  THR214      0.0379
    147  N         36.9780    4.0960   32.4180 N.am  215  ASP215     -0.1971
    148  CA        36.1890    3.1960   33.2720 C.3   215  ASP215      0.1709
    149  C         34.8360    2.7620   32.6960 C.2   215  ASP215      0.2293
    150  O         34.2230    1.8210   33.2070 O.2   215  ASP215     -0.2864
    151  CB        36.0620    3.7370   34.7040 C.3   215  ASP215      0.1436
    152  CG        36.8740    2.9220   35.6960 C.2   215  ASP215      0.3671
    153  OD1       38.0390    3.2930   35.9540 O.co2 215  ASP215     -0.2456
    154  OD2       36.3590    1.8810   36.1810 O.co2 215  ASP215     -0.2456
    155  N         39.1220   -2.3550   28.6930 N.3   219  TYR219     -0.1241
    156  CA        40.3630   -2.3560   27.9320 C.3   219  TYR219      0.1605
    157  C         40.1140   -2.4140   26.4210 C.2   219  TYR219      0.2264
    158  O         39.3910   -3.2730   25.9210 O.2   219  TYR219     -0.2867
    159  CB        41.2960   -3.4810   28.3850 C.3   219  TYR219      0.0534
    160  CG        41.7650   -3.3250   29.8090 C.ar  219  TYR219     -0.0201
    161  CD1       41.1230   -3.9980   30.8530 C.ar  219  TYR219     -0.0009
    162  CD2       42.8400   -2.4970   30.1170 C.ar  219  TYR219     -0.0009
    163  CE1       41.5450   -3.8490   32.1740 C.ar  219  TYR219      0.0417
    164  CE2       43.2750   -2.3430   31.4290 C.ar  219  TYR219      0.0417
    165  CZ        42.6210   -3.0160   32.4530 C.ar  219  TYR219      0.1957
    166  OH        43.0610   -2.8630   33.7540 O.3   219  TYR219     -0.2866
    167  N         42.9430   -7.0490   33.0330 N.3   242  PHE242     -0.1241
    168  CA        44.2320   -6.3890   32.7860 C.3   242  PHE242      0.1605
    169  C         45.2070   -7.3320   32.0790 C.2   242  PHE242      0.2264
    170  O         46.0520   -6.8800   31.3060 O.2   242  PHE242     -0.2867
    171  CB        44.8580   -5.8590   34.0870 C.3   242  PHE242      0.0534
    172  CG        46.1720   -5.1230   33.8800 C.ar  242  PHE242     -0.0203
    173  CD1       47.3940   -5.7760   34.0730 C.ar  242  PHE242     -0.0042
    174  CD2       46.1850   -3.7790   33.4880 C.ar  242  PHE242     -0.0042
    175  CE1       48.6080   -5.0950   33.8810 C.ar  242  PHE242     -0.0003
    176  CE2       47.3930   -3.0920   33.2910 C.ar  242  PHE242     -0.0003
    177  CZ        48.6030   -3.7540   33.4870 C.ar  242  PHE242     -0.0000
    178  N         44.7130   -7.8450   28.2460 N.3   245  ARG245     -0.1245
    179  CA        45.1570   -6.5920   27.6320 C.3   245  ARG245      0.1563
    180  C         45.7530   -6.6950   26.2240 C.2   245  ARG245      0.2260
    181  O         45.3160   -5.9940   25.3180 O.2   245  ARG245     -0.2867
    182  CB        46.2080   -5.9670   28.5500 C.3   245  ARG245      0.0307
    183  CG        46.2940   -4.4660   28.5480 C.3   245  ARG245      0.0489
    184  CD        46.9300   -3.9810   29.8480 C.3   245  ARG245      0.2205
    185  NE        48.3940   -3.9860   29.8110 N.pl3 245  ARG245     -0.0865
    186  CZ        49.1810   -4.9520   30.2910 C.cat 245  ARG245      0.5346
    187  NH1       48.6690   -6.0380   30.8620 N.pl3 245  ARG245      0.1354
    188  NH2       50.4970   -4.8240   30.2010 N.pl3 245  ARG245      0.1354
@<TRIPOS>BOND
     1    15    14    2
     2    14    13    1
     3    13    12    1
     4    13    16    1
     5    16    17    1
     6    17    18    1
     7     9     8    2
     8   119   120    1
     9    78    79    1
    10    18    19    1
    11     8     7    1
    12    79    80    1
    13    79    82    1
    14   120   121    1
    15   120   123    1
    16    80    88   am
    17    80    81    2
    18     4     3    2
    19   125   123    1
    20    88    89    1
    21   122   121    2
    22    19    20    1
    23    89    90    1
    24    69    68    1
    25   121   126   am
    26     7    10    1
    27     7     6    1
    28    64    65    1
    29    82    83    1
    30   123   124    1
    31    65    68    1
    32    65    66    1
    33     1     2    1
    34     3     6   am
    35     3     2    1
    36    10    11    1
    37   108   109    1
    38   126   127    1
    39    83    85   ar
    40    83    84   ar
    41   110   109    1
    42   110   111    2
    43    73    72    2
    44   181   180    2
    45    66    67    2
    46    85    87   ar
    47    84    86   ar
    48     2     5    1
    49    90    91    2
    50    90    92   am
    51   127   128    1
    52   109   112    1
    53   158   157    2
    54    87    86   ar
    55   112   113    1
    56    92    93    1
    57    72    71    1
    58   180   179    1
    59    95    94    2
    60    71    70    1
    61    71    74    1
    62   157   156    1
    63    76    75    2
    64   128   129    2
    65   128   130   am
    66    99    97    1
    67   113   114    1
    68    94    93    1
    69    94   100   am
    70    93    96    1
    71    74    75    1
    72    75    77   am
    73   179   178    1
    74   179   182    1
    75   130   131    1
    76    96    97    1
    77   156   159    1
    78   156   155    1
    79    97    98    1
    80   100   101    1
    81   102   101    1
    82   102   103    2
    83   101   104    1
    84   117   116    1
    85   159   160    1
    86   106   105   ar
    87   114   115    1
    88    63    62    1
    89   183   182    1
    90   183   184    1
    91    38    37   ar
    92    38    36   ar
    93    37    35   ar
    94   131   132    1
    95   131   134    1
    96   145   144    1
    97    62    59    1
    98    61    60    2
    99   146   144    1
   100   104   105    1
   101   105   107   ar
   102   116   115    2
   103   116   118    1
   104   132   140   am
   105   132   133    2
   106   140   141    1
   107    60    59    1
   108    36    34   ar
   109   160   162   ar
   110   160   161   ar
   111   185   184    1
   112   185   186    2
   113    35    33   ar
   114   144   141    1
   115   134   135    1
   116   162   164   ar
   117   188   186    1
   118    59    58    1
   119   186   187    1
   120   141   142    1
   121   161   163   ar
   122    58    54   am
   123    34    33   ar
   124    33    32    1
   125   143   142    2
   126   135   137   ar
   127   135   136   ar
   128    26    25    1
   129    27    25    1
   130   170   169    2
   131   137   139   ar
   132   142   147   am
   133   164   165   ar
   134    57    56    1
   135    56    53    1
   136    54    53    1
   137    54    55    2
   138   169   168    1
   139    25    22    1
   140   136   138   ar
   141   163   165   ar
   142    32    29    1
   143   147   148    1
   144   165   166    1
   145   139   138   ar
   146    53    52    1
   147   149   150    2
   148   149   148    1
   149    29    28    1
   150    29    30    1
   151   168   167    1
   152   168   171    1
   153    24    23    2
   154    28    23   am
   155    23    22    1
   156   148   151    1
   157   176   177   ar
   158   176   174   ar
   159    22    21    1
   160   177   175   ar
   161   174   172   ar
   162    31    30    2
   163   172   173   ar
   164   172   171    1
   165   175   173   ar
   166    30    39   am
   167    52    50   am
   168   151   152    1
   169    51    50    2
   170    50    49    1
   171    39    40    1
   172    42    41    2
   173   152   153   ar
   174   152   154   ar
   175    41    40    1
   176    41    48   am
   177    40    43    1
   178    49    48    1
   179    43    44    1
   180    44    45    1
   181    46    45    1
   182    46    47    1
