@<TRIPOS>MOLECULE
tmp/3mzeA00.pdb
 142 135 0 0 0
SMALL
GASTEIGER

@<TRIPOS>ATOM
      1  N         36.6360    5.4060   24.4340 N.3    40  ALA40      -0.1231
      2  CA        37.6690    5.9780   25.2750 C.3    40  ALA40       0.1694
      3  C         38.7610    6.6460   24.3990 C.2    40  ALA40       0.2592
      4  O         38.4500    7.3930   23.4670 O.2    40  ALA40      -0.2718
      5  CB        38.2520    4.8970   26.1810 C.3    40  ALA40       0.0304
      6  N         40.0240    6.3440   24.6890 N.am   41  SER41      -0.1952
      7  CA        41.1820    6.8840   23.9630 C.3    41  SER41       0.1924
      8  C         41.3240    6.5180   22.4860 C.2    41  SER41       0.2314
      9  O         42.0730    7.1660   21.7700 O.2    41  SER41      -0.2863
     10  CB        42.4480    6.4980   24.7000 C.3    41  SER41       0.2116
     11  OG        42.5160    7.2360   25.8980 O.3    41  SER41      -0.2180
     12  N         41.4770    9.1250   19.8760 N.3    44  LYS44      -0.1245
     13  CA        42.7060    9.8100   19.4530 C.3    44  LYS44       0.1561
     14  C         43.2310    9.3020   18.1200 C.2    44  LYS44       0.2260
     15  O         44.1180    9.9310   17.5270 O.2    44  LYS44      -0.2867
     16  CB        43.8080    9.7130   20.4960 C.3    44  LYS44       0.0271
     17  CG        43.5550   10.5160   21.7220 C.3    44  LYS44       0.0035
     18  CD        44.7800   10.5970   22.5950 C.3    44  LYS44       0.0206
     19  CE        44.4200   11.1900   23.9430 C.3    44  LYS44       0.1093
     20  NZ        43.4590   10.3300   24.7070 N.3    44  LYS44      -0.1314
     21  N         41.7940   15.2650   34.9630 N.3    81  LYS81      -0.1231
     22  CA        42.2500   14.6700   36.2320 C.3    81  LYS81       0.1693
     23  C         42.2500   13.1440   36.2130 C.2    81  LYS81       0.2593
     24  O         41.2470   12.5260   35.8620 O.2    81  LYS81      -0.2718
     25  CB        41.4080   15.1820   37.4020 C.3    81  LYS81       0.0285
     26  CG        41.7580   14.5520   38.7580 C.3    81  LYS81       0.0035
     27  CD        40.7250   14.8900   39.8060 C.3    81  LYS81       0.0206
     28  CE        39.3870   14.2240   39.5100 C.3    81  LYS81       0.1093
     29  NZ        38.3530   14.7690   40.4200 N.3    81  LYS81      -0.1314
     30  N         43.3820   12.5600   36.6100 N.am   82  GLY82      -0.1942
     31  CA        43.5880   11.1090   36.5670 C.3    82  GLY82       0.2014
     32  C         44.0040   10.6020   35.1960 C.2    82  GLY82       0.2640
     33  O         44.5130    9.4830   35.0770 O.2    82  GLY82      -0.2714
     34  N         43.7730   11.4290   34.1660 N.am   83  SER83      -0.1935
     35  CA        44.1230   11.1250   32.7620 C.3    83  SER83       0.2055
     36  C         45.6160   11.3050   32.4750 C.2    83  SER83       0.2643
     37  O         46.3630   11.8330   33.3080 O.2    83  SER83      -0.2714
     38  CB        43.2850   11.9620   31.7830 C.3    83  SER83       0.2130
     39  OG        43.7190   13.3210   31.6940 O.3    83  SER83      -0.2179
     40  N         46.0350   10.8530   31.2910 N.am   84  SER84      -0.1949
     41  CA        47.3950   10.9970   30.8330 C.3    84  SER84       0.1924
     42  C         47.5990   12.3670   30.2210 C.2    84  SER84       0.2314
     43  O         46.8170   12.7930   29.3740 O.2    84  SER84      -0.2863
     44  CB        47.7320    9.9250   29.8000 C.3    84  SER84       0.2116
     45  OG        49.1370    9.9060   29.5940 O.3    84  SER84      -0.2180
     46  N         48.9450    8.9760   24.7380 N.3   107  SER107     -0.1217
     47  CA        47.5520    9.3760   24.9270 C.3   107  SER107      0.1889
     48  C         47.4490   10.6370   25.7910 C.2   107  SER107      0.2288
     49  O         46.5970   10.7020   26.6790 O.2   107  SER107     -0.2866
     50  CB        46.7250    8.2440   25.5820 C.3   107  SER107      0.2089
     51  OG        46.0380    7.4750   24.6180 O.3   107  SER107     -0.2183
     52  N         46.3410   14.0860   26.9010 N.3   109  ASN109     -0.1240
     53  CA        45.0300   14.6860   26.5750 C.3   109  ASN109      0.1653
     54  C         45.1440   16.1600   26.3780 C.2   109  ASN109      0.2266
     55  O         44.3570   16.7680   25.6470 O.2   109  ASN109     -0.2867
     56  CB        44.0040   14.3910   27.6610 C.3   109  ASN109      0.1155
     57  CG        43.5910   12.9360   27.6690 C.2   109  ASN109      0.2627
     58  OD1       42.9580   12.4590   26.7270 O.2   109  ASN109     -0.2716
     59  ND2       43.9710   12.2150   28.7160 N.am  109  ASN109     -0.0877
     60  N         39.8460   14.3370   22.5850 N.3   148  HIS148     -0.1226
     61  CA        40.5870   13.3170   23.3800 C.3   148  HIS148      0.1752
     62  C         39.8030   12.0360   23.7580 C.2   148  HIS148      0.2597
     63  O         40.4000   10.9540   23.9050 O.2   148  HIS148     -0.2718
     64  CB        41.1200   13.9510   24.6750 C.3   148  HIS148      0.0759
     65  CG        40.2420   15.0380   25.2240 C.ar  148  HIS148      0.0818
     66  ND1       38.9350   14.8240   25.6120 N.ar  148  HIS148     -0.2268
     67  CD2       40.4860   16.3520   25.4470 C.ar  148  HIS148      0.1154
     68  CE1       38.4110   15.9600   26.0410 C.ar  148  HIS148      0.1986
     69  NE2       39.3340   16.8990   25.9620 N.ar  148  HIS148     -0.2212
     70  N         38.4850   12.1630   23.9310 N.am  149  GLY149     -0.1942
     71  CA        37.6730   11.0700   24.4940 C.3   149  GLY149      0.2014
     72  C         37.0810   11.3340   25.8820 C.2   149  GLY149      0.2638
     73  O         36.1200   10.6710   26.2850 O.2   149  GLY149     -0.2714
     74  N         37.6530   12.3000   26.6040 N.am  150  LEU150     -0.1977
     75  CA        37.1050   12.7910   27.8730 C.3   150  LEU150      0.1596
     76  C         35.8980   13.6990   27.6570 C.2   150  LEU150      0.2287
     77  O         35.8040   14.3900   26.6320 O.2   150  LEU150     -0.2864
     78  CB        38.1470   13.6100   28.6420 C.3   150  LEU150      0.0297
     79  CG        39.5280   13.0990   29.0550 C.3   150  LEU150      0.0022
     80  CD1       40.2610   14.2660   29.6410 C.3   150  LEU150      0.0001
     81  CD2       39.4740   11.9380   30.0450 C.3   150  LEU150      0.0001
     82  N         52.1780    3.1090   25.1340 N.3   195  ARG195     -0.1245
     83  CA        51.1950    2.3700   25.9330 C.3   195  ARG195      0.1563
     84  C         50.8340    0.9940   25.3650 C.2   195  ARG195      0.2260
     85  O         50.3040    0.1370   26.0730 O.2   195  ARG195     -0.2867
     86  CB        49.9180    3.1960   26.0160 C.3   195  ARG195      0.0307
     87  CG        50.1020    4.5700   26.6180 C.3   195  ARG195      0.0489
     88  CD        49.6800    4.5840   28.0650 C.3   195  ARG195      0.2205
     89  NE        49.7750    5.9140   28.6520 N.pl3 195  ARG195     -0.0865
     90  CZ        49.7020    6.1550   29.9590 C.cat 195  ARG195      0.5346
     91  NH1       49.5380    5.1550   30.8210 N.pl3 195  ARG195      0.1354
     92  NH2       49.8020    7.3970   30.4040 N.pl3 195  ARG195      0.1354
     93  N         45.4310    2.2590   22.1880 N.3   211  THR211     -0.1203
     94  CA        45.0040    1.6180   23.3910 C.3   211  THR211      0.1994
     95  C         43.9570    2.5500   24.0430 C.2   211  THR211      0.2618
     96  O         43.8520    3.7250   23.6890 O.2   211  THR211     -0.2717
     97  CB        46.2700    1.4170   24.2400 C.3   211  THR211      0.1784
     98  OG1       46.2080    0.2070   24.9970 O.3   211  THR211     -0.2211
     99  CG2       46.5420    2.6130   25.1200 C.3   211  THR211      0.0376
    100  N         43.1540    2.0220   24.9630 N.am  212  GLY212     -0.1942
    101  CA        42.0610    2.7960   25.5580 C.3   212  GLY212      0.2014
    102  C         41.2910    2.0640   26.6430 C.2   212  GLY212      0.2639
    103  O         41.2110    0.8380   26.6440 O.2   212  GLY212     -0.2714
    104  N         40.7270    2.8280   27.5710 N.am  213  HIS213     -0.1959
    105  CA        40.0850    2.2740   28.7700 C.3   213  HIS213      0.1787
    106  C         39.2480    3.3080   29.5390 C.2   213  HIS213      0.2620
    107  O         39.6830    4.4400   29.7240 O.2   213  HIS213     -0.2715
    108  CB        41.1460    1.6550   29.7030 C.3   213  HIS213      0.0785
    109  CG        40.8100    1.7600   31.1570 C.ar  213  HIS213      0.0821
    110  ND1       41.2650    2.7900   31.9540 N.ar  213  HIS213     -0.2267
    111  CD2       40.0310    0.9870   31.9510 C.ar  213  HIS213      0.1154
    112  CE1       40.7910    2.6380   33.1790 C.ar  213  HIS213      0.1986
    113  NE2       40.0420    1.5500   33.2040 N.ar  213  HIS213     -0.2212
    114  N         38.0520    2.9010   29.9640 N.am  214  THR214     -0.1951
    115  CA        37.3160    3.5490   31.0650 C.3   214  THR214      0.1897
    116  C         36.5290    2.4790   31.8380 C.2   214  THR214      0.2313
    117  O         36.3270    1.3700   31.3340 O.2   214  THR214     -0.2863
    118  CB        36.3470    4.6800   30.5890 C.3   214  THR214      0.1794
    119  OG1       37.0010    5.5190   29.6310 O.3   214  THR214     -0.2208
    120  CG2       35.9140    5.5480   31.7800 C.3   214  THR214      0.0378
    121  N         44.0830   -4.5570   31.4470 N.3   242  PHE242     -0.1241
    122  CA        45.1710   -4.0410   30.5920 C.3   242  PHE242      0.1605
    123  C         45.9040   -5.1520   29.8370 C.2   242  PHE242      0.2264
    124  O         46.3960   -4.9320   28.7270 O.2   242  PHE242     -0.2867
    125  CB        46.2230   -3.2600   31.4200 C.3   242  PHE242      0.0534
    126  CG        45.8360   -1.8370   31.7570 C.ar  242  PHE242     -0.0203
    127  CD1       45.4470   -0.9380   30.7600 C.ar  242  PHE242     -0.0042
    128  CD2       45.9010   -1.3800   33.0760 C.ar  242  PHE242     -0.0042
    129  CE1       45.0910    0.3930   31.0800 C.ar  242  PHE242     -0.0003
    130  CE2       45.5550   -0.0450   33.4040 C.ar  242  PHE242     -0.0003
    131  CZ        45.1500    0.8370   32.4010 C.ar  242  PHE242     -0.0000
    132  N         43.5010   -6.6410   27.3900 N.3   245  ARG245     -0.1245
    133  CA        43.2270   -6.1770   26.0280 C.3   245  ARG245      0.1563
    134  C         44.3100   -6.6510   25.0340 C.2   245  ARG245      0.2260
    135  O         44.0080   -6.8960   23.8540 O.2   245  ARG245     -0.2867
    136  CB        43.0150   -4.6440   25.9760 C.3   245  ARG245      0.0307
    137  CG        44.2560   -3.7930   26.2580 C.3   245  ARG245      0.0489
    138  CD        43.8630   -2.3510   26.5810 C.3   245  ARG245      0.2205
    139  NE        45.0110   -1.5240   26.9320 N.pl3 245  ARG245     -0.0865
    140  CZ        44.9260   -0.2970   27.4380 C.cat 245  ARG245      0.5346
    141  NH1       43.7390    0.2570   27.6630 N.pl3 245  ARG245      0.1354
    142  NH2       46.0330    0.3800   27.7230 N.pl3 245  ARG245      0.1354
@<TRIPOS>BOND
     1    15    14    2
     2    14    13    1
     3    13    12    1
     4    13    16    1
     5    16    17    1
     6    17    18    1
     7     9     8    2
     8    93    94    1
     9     8     7    1
    10    60    61    1
    11    18    19    1
    12    61    62    1
    13    61    64    1
    14    94    95    1
    15    94    97    1
    16     4     3    2
    17    96    95    2
    18    62    63    2
    19    62    70   am
    20   135   134    2
    21    70    71    1
    22    19    20    1
    23     7     6    1
    24     7    10    1
    25    95   100   am
    26    97    98    1
    27    97    99    1
    28     3     6   am
    29     3     2    1
    30     1     2    1
    31    71    72    1
    32    51    50    1
    33    64    65    1
    34    10    11    1
    35    46    47    1
    36    47    50    1
    37    47    48    1
    38   100   101    1
    39   134   133    1
    40    82    83    1
    41    65    67   ar
    42    65    66   ar
    43     2     5    1
    44    84    83    1
    45    84    85    2
    46    67    69   ar
    47   101   102    1
    48    66    68   ar
    49    55    54    2
    50    48    49    2
    51    72    73    2
    52    72    74   am
    53    83    86    1
    54    69    68   ar
    55   136   133    1
    56   136   137    1
    57    86    87    1
    58   133   132    1
    59   137   138    1
    60    54    53    1
    61    53    52    1
    62    53    56    1
    63   138   139    1
    64    74    75    1
    65    87    88    1
    66    77    76    2
    67   102   103    2
    68   102   104   am
    69    58    57    2
    70   139   140    2
    71   140   141    1
    72   140   142    1
    73   104   105    1
    74    76    75    1
    75    56    57    1
    76    57    59   am
    77    75    78    1
    78    88    89    1
    79    78    79    1
    80    89    90    2
    81   124   123    2
    82   105   106    1
    83   105   108    1
    84    79    80    1
    85    79    81    1
    86    43    42    2
    87   106   107    2
    88   106   114   am
    89    45    44    1
    90   119   118    1
    91   108   109    1
    92    44    41    1
    93   123   122    1
    94    90    92    1
    95    90    91    1
    96   114   115    1
    97    42    41    1
    98   118   115    1
    99   118   120    1
   100   122   125    1
   101   122   121    1
   102   127   129   ar
   103   127   126   ar
   104    41    40    1
   105   115   116    1
   106   129   131   ar
   107   109   111   ar
   108   109   110   ar
   109    40    36   am
   110   117   116    2
   111   125   126    1
   112    39    38    1
   113   126   128   ar
   114    38    35    1
   115   111   113   ar
   116   110   112   ar
   117   131   130   ar
   118    36    35    1
   119    36    37    2
   120    35    34    1
   121   128   130   ar
   122   112   113   ar
   123    34    32   am
   124    21    22    1
   125    33    32    2
   126    32    31    1
   127    24    23    2
   128    23    22    1
   129    23    30   am
   130    22    25    1
   131    31    30    1
   132    25    26    1
   133    26    27    1
   134    28    27    1
   135    28    29    1
