@<TRIPOS>MOLECULE
tmp/3mzfA00.pdb
 111 105 0 0 0
SMALL
GASTEIGER

@<TRIPOS>ATOM
      1  N         36.8950    5.6800   24.3420 N.3    41  ALA41      -0.1231
      2  CA        37.9700    6.2080   25.1840 C.3    41  ALA41       0.1694
      3  C         39.1160    6.7320   24.3050 C.2    41  ALA41       0.2592
      4  O         38.8600    7.4460   23.3230 O.2    41  ALA41      -0.2718
      5  CB        38.4590    5.1450   26.1850 C.3    41  ALA41       0.0304
      6  N         40.3630    6.3810   24.6300 N.am   42  SER42      -0.1952
      7  CA        41.5350    6.9400   23.9260 C.3    42  SER42       0.1924
      8  C         41.6510    6.5480   22.4730 C.2    42  SER42       0.2314
      9  O         42.4420    7.1360   21.7470 O.2    42  SER42      -0.2863
     10  CB        42.8430    6.5730   24.6160 C.3    42  SER42       0.2116
     11  OG        42.9850    7.3040   25.8130 O.3    42  SER42      -0.2180
     12  N         41.6350    9.1120   19.7260 N.3    45  LYS45      -0.1245
     13  CA        42.8670    9.7590   19.2830 C.3    45  LYS45       0.1561
     14  C         43.3790    9.2440   17.9410 C.2    45  LYS45       0.2260
     15  O         44.1570    9.9110   17.2760 O.2    45  LYS45      -0.2867
     16  CB        43.9480    9.6540   20.3510 C.3    45  LYS45       0.0271
     17  CG        43.6430   10.4140   21.5890 C.3    45  LYS45       0.0035
     18  CD        44.8820   10.5160   22.4490 C.3    45  LYS45       0.0206
     19  CE        44.5490   11.1510   23.7930 C.3    45  LYS45       0.1093
     20  NZ        43.8060   10.2320   24.7220 N.3    45  LYS45      -0.1314
     21  N         43.8350   12.5870   36.3510 N.3    83  GLY83      -0.1210
     22  CA        44.0490   11.1430   36.2970 C.3    83  GLY83       0.1956
     23  C         44.2250   10.5740   34.9040 C.2    83  GLY83       0.2613
     24  O         44.2310    9.3530   34.7170 O.2    83  GLY83      -0.2717
     25  N         44.3540   11.4560   33.9200 N.am   84  SER84      -0.1938
     26  CA        44.4200   11.0330   32.5270 C.3    84  SER84       0.2055
     27  C         45.8550   11.0710   32.0140 C.2    84  SER84       0.2643
     28  O         46.7640   11.5370   32.6980 O.2    84  SER84      -0.2714
     29  CB        43.4930   11.9030   31.6760 C.3    84  SER84       0.2130
     30  OG        44.0670   13.1750   31.4190 O.3    84  SER84      -0.2179
     31  N         46.0570   10.5590   30.8060 N.am   85  SER85      -0.1949
     32  CA        47.3820   10.5810   30.2140 C.3    85  SER85       0.1924
     33  C         47.7140   11.9820   29.7020 C.2    85  SER85       0.2314
     34  O         46.9100   12.6030   29.0010 O.2    85  SER85      -0.2863
     35  CB        47.4920    9.5650   29.0860 C.3    85  SER85       0.2116
     36  OG        48.7980    9.5950   28.5550 O.3    85  SER85      -0.2180
     37  N         49.3600    9.0840   24.3410 N.3   108  SER108     -0.1217
     38  CA        47.9290    9.3680   24.4630 C.3   108  SER108      0.1889
     39  C         47.6820   10.6450   25.2780 C.2   108  SER108      0.2288
     40  O         46.7260   10.7120   26.0550 O.2   108  SER108     -0.2866
     41  CB        47.1850    8.1780   25.0780 C.3   108  SER108      0.2089
     42  OG        45.8830    8.0680   24.5550 O.3   108  SER108     -0.2183
     43  N         46.3440   13.8950   26.4510 N.3   110  ASN110     -0.1240
     44  CA        45.0960   14.6140   26.2330 C.3   110  ASN110      0.1653
     45  C         45.3130   16.0980   26.0060 C.2   110  ASN110      0.2266
     46  O         44.5960   16.7230   25.2060 O.2   110  ASN110     -0.2867
     47  CB        44.1160   14.3790   27.3850 C.3   110  ASN110      0.1155
     48  CG        43.6870   12.9330   27.4800 C.2   110  ASN110      0.2627
     49  OD1       43.3070   12.3180   26.4900 O.2   110  ASN110     -0.2716
     50  ND2       43.7700   12.3780   28.6730 N.am  110  ASN110     -0.0877
     51  N         40.0610   14.2240   22.3460 N.3   149  HIS149     -0.1226
     52  CA        40.9020   13.2760   23.0840 C.3   149  HIS149      0.1752
     53  C         40.1780   12.0380   23.6120 C.2   149  HIS149      0.2597
     54  O         40.8330   11.0320   23.9120 O.2   149  HIS149     -0.2718
     55  CB        41.6250   13.9760   24.2500 C.3   149  HIS149      0.0759
     56  CG        40.8160   15.0470   24.9020 C.ar  149  HIS149      0.0818
     57  ND1       39.4920   14.8740   25.2580 N.ar  149  HIS149     -0.2268
     58  CD2       41.1300   16.3230   25.2320 C.ar  149  HIS149      0.1154
     59  CE1       39.0340   15.9890   25.7950 C.ar  149  HIS149      0.1986
     60  NE2       40.0050   16.8850   25.7910 N.ar  149  HIS149     -0.2212
     61  N         38.8500   12.1280   23.7110 N.am  150  GLY150     -0.1942
     62  CA        38.0390   11.0900   24.3620 C.3   150  GLY150      0.2014
     63  C         37.3970   11.5060   25.6920 C.2   150  GLY150      0.2638
     64  O         36.3970   10.9120   26.1250 O.2   150  GLY150     -0.2714
     65  N         37.9370   12.5330   26.3510 N.am  151  LEU151     -0.1977
     66  CA        37.4050   12.9430   27.6670 C.3   151  LEU151      0.1596
     67  C         36.1450   13.8060   27.5710 C.2   151  LEU151      0.2287
     68  O         35.9520   14.5220   26.5880 O.2   151  LEU151     -0.2864
     69  CB        38.4350   13.7390   28.4520 C.3   151  LEU151      0.0297
     70  CG        39.8380   13.2210   28.6920 C.3   151  LEU151      0.0022
     71  CD1       40.6450   14.4010   29.1790 C.3   151  LEU151      0.0001
     72  CD2       39.8450   12.0970   29.7120 C.3   151  LEU151      0.0001
     73  N         52.6280    3.2660   24.8150 N.3   196  ARG196     -0.1245
     74  CA        51.7060    2.4550   25.6260 C.3   196  ARG196      0.1563
     75  C         51.3200    1.1060   24.9990 C.2   196  ARG196      0.2260
     76  O         50.7590    0.2480   25.6770 O.2   196  ARG196     -0.2867
     77  CB        50.4390    3.2540   25.9660 C.3   196  ARG196      0.0307
     78  CG        50.6940    4.4840   26.8180 C.3   196  ARG196      0.0489
     79  CD        49.3970    5.1790   27.1830 C.3   196  ARG196      0.2205
     80  NE        49.6530    6.3800   27.9800 N.pl3 196  ARG196     -0.0865
     81  CZ        49.8560    6.3880   29.2930 C.cat 196  ARG196      0.5346
     82  NH1       49.8180    5.2580   29.9890 N.pl3 196  ARG196      0.1354
     83  NH2       50.0940    7.5340   29.9160 N.pl3 196  ARG196      0.1354
     84  N         46.0580    2.0980   22.1080 N.3   212  THR212     -0.1203
     85  CA        45.4280    1.5290   23.2870 C.3   212  THR212      0.1994
     86  C         44.4930    2.5510   23.9290 C.2   212  THR212      0.2618
     87  O         44.6120    3.7570   23.7090 O.2   212  THR212     -0.2717
     88  CB        46.4700    1.1970   24.3610 C.3   212  THR212      0.1784
     89  OG1       47.0850    2.4200   24.8010 O.3   212  THR212     -0.2211
     90  CG2       47.5190    0.2680   23.8230 C.3   212  THR212      0.0376
     91  N         43.5790    2.0660   24.7540 N.am  213  GLY213     -0.1942
     92  CA        42.7270    2.9620   25.5290 C.3   213  GLY213      0.2014
     93  C         42.1730    2.2590   26.7420 C.2   213  GLY213      0.2639
     94  O         41.7230    1.1280   26.6490 O.2   213  GLY213     -0.2714
     95  N         42.2410    2.9120   27.8960 N.am  214  HIS214     -0.1959
     96  CA        41.5230    2.4190   29.0590 C.3   214  HIS214      0.1787
     97  C         40.9070    3.5490   29.8480 C.2   214  HIS214      0.2620
     98  O         41.5700    4.5370   30.1770 O.2   214  HIS214     -0.2715
     99  CB        42.3920    1.5810   29.9990 C.3   214  HIS214      0.0785
    100  CG        41.6670    1.1530   31.2440 C.ar  214  HIS214      0.0821
    101  ND1       41.7870    1.8190   32.4460 N.ar  214  HIS214     -0.2267
    102  CD2       40.7720    0.1600   31.4540 C.ar  214  HIS214      0.1154
    103  CE1       41.0160    1.2370   33.3480 C.ar  214  HIS214      0.1986
    104  NE2       40.3900    0.2270   32.7730 N.ar  214  HIS214     -0.2212
    105  N         39.6190    3.3900   30.1120 N.am  215  THR215     -0.1951
    106  CA        38.9340    4.1070   31.1740 C.3   215  THR215      0.1897
    107  C         38.1260    3.0510   31.9180 C.2   215  THR215      0.2313
    108  O         37.8090    1.9950   31.3580 O.2   215  THR215     -0.2863
    109  CB        38.0050    5.2120   30.6330 C.3   215  THR215      0.1794
    110  OG1       37.0400    4.6430   29.7420 O.3   215  THR215     -0.2208
    111  CG2       38.7990    6.2860   29.8910 C.3   215  THR215      0.0378
@<TRIPOS>BOND
     1    15    14    2
     2    14    13    1
     3    13    12    1
     4    13    16    1
     5    16    17    1
     6    17    18    1
     7     9     8    2
     8    84    85    1
     9    51    52    1
    10    18    19    1
    11     8     7    1
    12    52    53    1
    13    52    55    1
    14    85    86    1
    15    85    88    1
    16     4     3    2
    17    53    61   am
    18    53    54    2
    19    87    86    2
    20    61    62    1
    21    19    20    1
    22    90    88    1
    23     7    10    1
    24     7     6    1
    25    86    91   am
    26    55    56    1
    27     3     6   am
    28     3     2    1
    29    37    38    1
    30     1     2    1
    31    88    89    1
    32    62    63    1
    33    38    41    1
    34    38    39    1
    35    42    41    1
    36    10    11    1
    37    91    92    1
    38    73    74    1
    39    56    58   ar
    40    56    57   ar
    41    75    74    1
    42    75    76    2
    43     2     5    1
    44    46    45    2
    45    58    60   ar
    46    57    59   ar
    47    39    40    2
    48    92    93    1
    49    74    77    1
    50    63    64    2
    51    63    65   am
    52    60    59   ar
    53    77    78    1
    54    45    44    1
    55    44    43    1
    56    44    47    1
    57    65    66    1
    58    49    48    2
    59    68    67    2
    60    94    93    2
    61    93    95   am
    62    78    79    1
    63    79    80    1
    64    47    48    1
    65    48    50   am
    66    67    66    1
    67    66    69    1
    68    95    96    1
    69    80    81    2
    70    69    70    1
    71    36    35    1
    72    70    71    1
    73    70    72    1
    74    34    33    2
    75    96    97    1
    76    96    99    1
    77    35    32    1
    78    81    83    1
    79    81    82    1
    80    33    32    1
    81   110   109    1
    82    97   105   am
    83    97    98    2
    84   111   109    1
    85    99   100    1
    86   105   106    1
    87    32    31    1
    88   109   106    1
    89    31    27   am
    90   106   107    1
    91   100   102   ar
    92   100   101   ar
    93   108   107    2
    94    30    29    1
    95   102   104   ar
    96    29    26    1
    97    27    26    1
    98    27    28    2
    99   101   103   ar
   100    26    25    1
   101   104   103   ar
   102    25    23   am
   103    24    23    2
   104    23    22    1
   105    22    21    1
