@<TRIPOS>MOLECULE
tmp/3mzhB00.pdb
 122 115 0 0 0
SMALL
GASTEIGER

@<TRIPOS>ATOM
      1  N          5.2270   -7.1520  -19.7010 N.3    68  ASN68      -0.1225
      2  CA         4.9260   -8.5690  -19.8790 C.3    68  ASN68       0.1785
      3  C          5.3210   -9.0350  -21.2710 C.2    68  ASN68       0.2597
      4  O          5.3970   -8.2270  -22.1880 O.2    68  ASN68      -0.2718
      5  CB         3.4370   -8.8240  -19.6700 C.3    68  ASN68       0.1169
      6  CG         2.6290   -8.5930  -20.9300 C.2    68  ASN68       0.2627
      7  OD1        2.0810   -9.5350  -21.5070 O.2    68  ASN68      -0.2716
      8  ND2        2.5610   -7.3410  -21.3750 N.am   68  ASN68      -0.0877
      9  N          5.5500  -10.3340  -21.4400 N.am   69  LEU69      -0.1966
     10  CA         5.9180  -10.8560  -22.7540 C.3    69  LEU69       0.1728
     11  C          4.7930  -11.6670  -23.4200 C.2    69  LEU69       0.2616
     12  O          4.3200  -12.6740  -22.8800 O.2    69  LEU69      -0.2715
     13  CB         7.2010  -11.6820  -22.6800 C.3    69  LEU69       0.0311
     14  CG         8.3800  -11.0730  -21.9060 C.3    69  LEU69       0.0022
     15  CD1        9.5390  -12.0590  -21.8090 C.3    69  LEU69       0.0001
     16  CD2        8.8420   -9.7590  -22.5270 C.3    69  LEU69       0.0001
     17  N          4.3810  -11.2070  -24.6000 N.am   70  LEU70      -0.1977
     18  CA         3.3490  -11.8560  -25.3900 C.3    70  LEU70       0.1596
     19  C          3.7510  -13.2590  -25.8260 C.2    70  LEU70       0.2287
     20  O          2.9620  -14.1940  -25.7350 O.2    70  LEU70      -0.2864
     21  CB         3.0130  -11.0090  -26.6190 C.3    70  LEU70       0.0297
     22  CG         2.5010   -9.5860  -26.3560 C.3    70  LEU70       0.0022
     23  CD1        2.6220   -8.7190  -27.6050 C.3    70  LEU70       0.0001
     24  CD2        1.0680   -9.5940  -25.8410 C.3    70  LEU70       0.0001
     25  N         -6.4260  -18.5120  -26.1060 N.3   137  ASN137     -0.1225
     26  CA        -6.1210  -19.5550  -25.1320 C.3   137  ASN137      0.1785
     27  C         -5.4050  -18.9570  -23.9280 C.2   137  ASN137      0.2597
     28  O         -5.6600  -19.3430  -22.7850 O.2   137  ASN137     -0.2718
     29  CB        -5.2500  -20.6510  -25.7530 C.3   137  ASN137      0.1169
     30  CG        -5.9510  -21.3940  -26.8770 C.2   137  ASN137      0.2627
     31  OD1       -6.9850  -20.9560  -27.3740 O.2   137  ASN137     -0.2716
     32  ND2       -5.3860  -22.5230  -27.2840 N.am  137  ASN137     -0.0877
     33  N         -4.5140  -18.0080  -24.1990 N.am  138  ASN138     -0.1974
     34  CA        -3.7180  -17.3730  -23.1630 C.3   138  ASN138      0.1688
     35  C         -4.5320  -16.4260  -22.3070 C.2   138  ASN138      0.2292
     36  O         -4.5000  -16.4940  -21.0800 O.2   138  ASN138     -0.2864
     37  CB        -2.5390  -16.6320  -23.7840 C.3   138  ASN138      0.1181
     38  CG        -1.5110  -17.5800  -24.3670 C.2   138  ASN138      0.2629
     39  OD1       -0.3880  -17.1810  -24.6870 O.2   138  ASN138     -0.2716
     40  ND2       -1.8900  -18.8490  -24.5030 N.am  138  ASN138     -0.0877
     41  N         -6.3260  -18.4130  -19.7350 N.3   141  ASP141     -0.1225
     42  CA        -5.5820  -18.9410  -18.6020 C.3   141  ASP141      0.1805
     43  C         -5.2130  -17.8720  -17.5770 C.2   141  ASP141      0.2597
     44  O         -5.0930  -18.1660  -16.3900 O.2   141  ASP141     -0.2718
     45  CB        -4.3470  -19.6850  -19.0920 C.3   141  ASP141      0.1424
     46  CG        -4.6960  -20.8240  -20.0220 C.2   141  ASP141      0.3668
     47  OD1       -3.7770  -21.5660  -20.4320 O.co2 141  ASP141     -0.2456
     48  OD2       -5.8950  -20.9840  -20.3450 O.co2 141  ASP141     -0.2456
     49  N         -5.0340  -16.6370  -18.0280 N.am  142  LEU142     -0.1979
     50  CA        -4.8590  -15.5330  -17.0930 C.3   142  LEU142      0.1596
     51  C         -6.0350  -15.5450  -16.1380 C.2   142  LEU142      0.2287
     52  O         -5.8730  -15.4480  -14.9200 O.2   142  LEU142     -0.2864
     53  CB        -4.8310  -14.1900  -17.8220 C.3   142  LEU142      0.0297
     54  CG        -3.4640  -13.6220  -18.2030 C.3   142  LEU142      0.0022
     55  CD1       -2.5450  -13.6000  -16.9890 C.3   142  LEU142      0.0001
     56  CD2       -2.8540  -14.4270  -19.3340 C.3   142  LEU142      0.0001
     57  N         -0.0100  -22.2860  -14.9640 N.3   150  ARG150     -0.1245
     58  CA         0.3760  -21.6080  -16.1960 C.3   150  ARG150      0.1563
     59  C          1.8330  -21.8270  -16.5540 C.2   150  ARG150      0.2260
     60  O          2.1750  -22.0110  -17.7280 O.2   150  ARG150     -0.2867
     61  CB         0.0910  -20.1200  -16.0780 C.3   150  ARG150      0.0307
     62  CG        -1.3130  -19.7720  -16.4950 C.3   150  ARG150      0.0489
     63  CD        -1.9550  -18.8900  -15.4760 C.3   150  ARG150      0.2205
     64  NE        -1.1470  -17.7160  -15.2020 N.pl3 150  ARG150     -0.0865
     65  CZ        -1.4490  -16.8070  -14.2820 C.cat 150  ARG150      0.5346
     66  NH1       -2.5520  -16.9430  -13.5470 N.pl3 150  ARG150      0.1354
     67  NH2       -0.6520  -15.7600  -14.0980 N.pl3 150  ARG150      0.1354
     68  N          1.9660  -25.0470  -17.9690 N.3   153  LYS153     -0.1231
     69  CA         1.4550  -24.9500  -19.3240 C.3   153  LYS153      0.1693
     70  C          2.4600  -24.3810  -20.2520 C.2   153  LYS153      0.2591
     71  O          2.6040  -24.8310  -21.3500 O.2   153  LYS153     -0.2718
     72  CB         0.1950  -24.1180  -19.3790 C.3   153  LYS153      0.0285
     73  CG        -0.8340  -24.6690  -20.2920 C.3   153  LYS153      0.0035
     74  CD        -2.1550  -23.9660  -20.1180 C.3   153  LYS153      0.0206
     75  CE        -3.1930  -24.8540  -19.4320 C.3   153  LYS153      0.1093
     76  NZ        -4.4010  -25.1430  -20.2410 N.3   153  LYS153     -0.1314
     77  N          3.1550  -23.3610  -19.7990 N.am  154  GLN154     -0.1979
     78  CA         4.1210  -22.6710  -20.6400 C.3   154  GLN154      0.1601
     79  C          5.2630  -23.6000  -21.0140 C.2   154  GLN154      0.2287
     80  O          5.5900  -23.7520  -22.1950 O.2   154  GLN154     -0.2864
     81  CB         4.6830  -21.4490  -19.9210 C.3   154  GLN154      0.0394
     82  CG         5.6020  -20.6130  -20.7870 C.3   154  GLN154      0.0908
     83  CD         4.8550  -19.9000  -21.8780 C.2   154  GLN154      0.2608
     84  OE1        3.7640  -19.3750  -21.6500 O.2   154  GLN154     -0.2717
     85  NE2        5.4320  -19.8750  -23.0770 N.am  154  GLN154     -0.0878
     86  N          4.4140  -25.4300  -23.8540 N.3   157  GLN157     -0.1245
     87  CA         4.3310  -24.6430  -25.0750 C.3   157  GLN157      0.1566
     88  C          5.7080  -24.3130  -25.6160 C.2   157  GLN157      0.2260
     89  O          5.8530  -23.9620  -26.7880 O.2   157  GLN157     -0.2867
     90  CB         3.5470  -23.3550  -24.8380 C.3   157  GLN157      0.0367
     91  CG         2.0670  -23.5680  -24.6080 C.3   157  GLN157      0.0905
     92  CD         1.3470  -22.2610  -24.3970 C.2   157  GLN157      0.2608
     93  OE1        0.1360  -22.1690  -24.5830 O.2   157  GLN157     -0.2717
     94  NE2        2.0920  -21.2310  -24.0090 N.am  157  GLN157     -0.0878
     95  N          6.9970  -12.8580  -16.3270 N.3   183  GLN183     -0.1231
     96  CA         6.2470  -11.9100  -17.1540 C.3   183  GLN183      0.1698
     97  C          5.6580  -12.5370  -18.4130 C.2   183  GLN183      0.2592
     98  O          4.7230  -11.9900  -19.0000 O.2   183  GLN183     -0.2718
     99  CB         7.1200  -10.7130  -17.5280 C.3   183  GLN183      0.0381
    100  CG         8.4940  -11.0930  -18.0110 C.3   183  GLN183      0.0905
    101  CD         9.3360   -9.8800  -18.3010 C.2   183  GLN183      0.2608
    102  OE1        9.9610   -9.7790  -19.3570 O.2   183  GLN183     -0.2717
    103  NE2        9.3380   -8.9330  -17.3770 N.am  183  GLN183     -0.0878
    104  N          6.2050  -13.6730  -18.8320 N.am  184  LEU184     -0.1966
    105  CA         5.6270  -14.4030  -19.9520 C.3   184  LEU184      0.1728
    106  C          4.3690  -15.0970  -19.4630 C.2   184  LEU184      0.2616
    107  O          3.5330  -15.5350  -20.2450 O.2   184  LEU184     -0.2715
    108  CB         6.6090  -15.4370  -20.4910 C.3   184  LEU184      0.0311
    109  CG         6.1110  -16.1460  -21.7470 C.3   184  LEU184      0.0022
    110  CD1        6.0850  -15.1770  -22.9170 C.3   184  LEU184      0.0001
    111  CD2        6.9620  -17.3490  -22.0700 C.3   184  LEU184      0.0001
    112  N          4.2560  -15.1850  -18.1450 N.am  185  VAL185     -0.1963
    113  CA         3.1660  -15.8840  -17.4890 C.3   185  VAL185      0.1727
    114  C          2.2330  -14.8980  -16.7720 C.2   185  VAL185      0.2616
    115  O          1.0780  -15.2180  -16.4840 O.2   185  VAL185     -0.2715
    116  CB         3.7180  -16.9540  -16.5090 C.3   185  VAL185      0.0290
    117  CG1        2.9560  -16.9580  -15.1990 C.3   185  VAL185      0.0023
    118  CG2        3.7130  -18.3270  -17.1670 C.3   185  VAL185      0.0023
    119  N          2.7280  -13.6900  -16.5200 N.am  186  GLY186     -0.1955
    120  CA         1.9400  -12.6740  -15.8510 C.3   186  GLY186      0.1869
    121  C          1.9670  -12.8220  -14.3430 C.2   186  GLY186      0.2309
    122  O          0.9990  -12.4860  -13.6500 O.2   186  GLY186     -0.2863
@<TRIPOS>BOND
     1    23    22    1
     2    31    30    2
     3    32    30   am
     4    30    29    1
     5    89    88    2
     6    21    22    1
     7    21    18    1
     8    22    24    1
     9    25    26    1
    10    19    20    2
    11    19    18    1
    12    29    26    1
    13    88    87    1
    14    18    17    1
    15    26    27    1
    16    87    90    1
    17    87    86    1
    18    90    91    1
    19    39    38    2
    20    91    92    1
    21    17    11   am
    22    93    92    2
    23    40    38   am
    24    92    94   am
    25    38    37    1
    26    33    27   am
    27    33    34    1
    28    27    28    2
    29    37    34    1
    30    11    12    2
    31    11    10    1
    32    34    35    1
    33    85    83   am
    34   110   109    1
    35    10    13    1
    36    10     9    1
    37    13    14    1
    38    16    14    1
    39    35    36    2
    40    80    79    2
    41     4     3    2
    42   111   109    1
    43    14    15    1
    44    83    84    2
    45    83    82    1
    46   109   108    1
    47     7     6    2
    48     9     3   am
    49     8     6   am
    50    71    70    2
    51     3     2    1
    52    79    78    1
    53     6     5    1
    54    82    81    1
    55    78    81    1
    56    78    77    1
    57   108   105    1
    58    47    46   ar
    59    48    46   ar
    60    73    74    1
    61    73    72    1
    62    70    77   am
    63    70    69    1
    64   107   106    2
    65    76    75    1
    66    74    75    1
    67    46    45    1
    68   105   106    1
    69   105   104    1
    70     2     1    1
    71     2     5    1
    72    41    42    1
    73   106   112   am
    74    72    69    1
    75   102   101    2
    76    56    54    1
    77    69    68    1
    78    45    42    1
    79    98    97    2
    80   104    97   am
    81    42    43    1
    82    97    96    1
    83   101   100    1
    84   101   103   am
    85    54    53    1
    86    54    55    1
    87   112   113    1
    88    49    43   am
    89    49    50    1
    90   100    99    1
    91    53    50    1
    92    60    59    2
    93    43    44    2
    94    99    96    1
    95   113   114    1
    96   113   116    1
    97   118   116    1
    98    96    95    1
    99    50    51    1
   100   114   119   am
   101   114   115    2
   102    59    58    1
   103   119   120    1
   104   116   117    1
   105    62    61    1
   106    62    63    1
   107    58    61    1
   108    58    57    1
   109    51    52    2
   110   120   121    1
   111    63    64    1
   112    64    65    2
   113   121   122    2
   114    65    67    1
   115    65    66    1
