@<TRIPOS>MOLECULE
tmp/3mzsB01.pdb
 214 205 0 0 0
SMALL
GASTEIGER

@<TRIPOS>ATOM
      1  N         38.3250  -21.3460   15.2460 N.3    31  ILE31      -0.1245
      2  CA        38.5750  -19.9060   15.2870 C.3    31  ILE31       0.1561
      3  C         37.4320  -19.0320   14.7480 C.2    31  ILE31       0.2260
      4  O         37.1880  -17.9550   15.2560 O.2    31  ILE31      -0.2867
      5  CB        39.7700  -19.6220   14.4300 C.3    31  ILE31       0.0252
      6  CG1       40.2090  -18.1600   14.5050 C.3    31  ILE31       0.0019
      7  CG2       39.3550  -19.8500   13.0250 C.3    31  ILE31       0.0019
      8  CD1       41.5640  -17.9050   13.7620 C.3    31  ILE31       0.0001
      9  N         49.2030   -6.2300    7.4880 N.3    77  ARG77      -0.1231
     10  CA        48.2030   -7.1280    8.0350 C.3    77  ARG77       0.1694
     11  C         48.9810   -7.9810    9.0090 C.2    77  ARG77       0.2592
     12  O         50.1790   -7.7890    9.1820 O.2    77  ARG77      -0.2718
     13  CB        47.5730   -7.9850    6.9240 C.3    77  ARG77       0.0321
     14  CG        48.5950   -8.8980    6.1730 C.3    77  ARG77       0.0489
     15  CD        47.8620   -9.7980    5.2050 C.3    77  ARG77       0.2205
     16  NE        47.5080   -9.1290    3.9470 N.pl3  77  ARG77      -0.0865
     17  CZ        48.3720   -8.9120    2.9780 C.cat  77  ARG77       0.5346
     18  NH1       49.6360   -9.3220    3.0670 N.pl3  77  ARG77       0.1354
     19  NH2       47.9460   -8.3190    1.9020 N.pl3  77  ARG77       0.1354
     20  N         48.3080   -8.9440    9.6230 N.am   78  TYR78      -0.1976
     21  CA        48.9830   -9.9290   10.4970 C.3    78  TYR78       0.1639
     22  C         49.9070  -10.8330    9.6810 C.2    78  TYR78       0.2290
     23  O         49.4690  -11.4890    8.7340 O.2    78  TYR78      -0.2864
     24  CB        47.9190  -10.7470   11.2810 C.3    78  TYR78       0.0560
     25  CG        48.4640  -11.6980   12.3330 C.ar   78  TYR78      -0.0198
     26  CD1       47.7810  -12.8830   12.6510 C.ar   78  TYR78      -0.0009
     27  CD2       49.6660  -11.4300   12.9940 C.ar   78  TYR78      -0.0009
     28  CE1       48.2730  -13.7810   13.6080 C.ar   78  TYR78       0.0417
     29  CE2       50.1800  -12.3120   13.9350 C.ar   78  TYR78       0.0417
     30  CZ        49.4640  -13.4910   14.2350 C.ar   78  TYR78       0.1957
     31  OH        49.9650  -14.3450   15.1770 O.3    78  TYR78      -0.2866
     32  N         51.6470  -14.0910    9.3820 N.3    80  ILE80      -0.1245
     33  CA        51.4640  -15.4400    9.9310 C.3    80  ILE80       0.1561
     34  C         52.7820  -15.8480   10.5220 C.2    80  ILE80       0.2260
     35  O         53.7780  -16.0020    9.7970 O.2    80  ILE80      -0.2867
     36  CB        51.0230  -16.4450    8.8780 C.3    80  ILE80       0.0252
     37  CG1       49.6410  -16.0900    8.3240 C.3    80  ILE80       0.0019
     38  CG2       51.0530  -17.8310    9.4550 C.3    80  ILE80       0.0019
     39  CD1       48.5980  -16.0520    9.3320 C.3    80  ILE80       0.0001
     40  N         55.2650  -18.7040    9.0640 N.3    83  TRP83      -0.1241
     41  CA        55.8020  -18.2760    7.7510 C.3    83  TRP83       0.1605
     42  C         57.0280  -17.4510    7.9010 C.2    83  TRP83       0.2264
     43  O         58.0910  -17.8490    7.4010 O.2    83  TRP83      -0.2867
     44  CB        54.7390  -17.7520    6.7630 C.3    83  TRP83       0.0550
     45  CG        53.5610  -18.6770    6.7300 C.ar   83  TRP83       0.0003
     46  CD1       53.5130  -19.9360    7.2570 C.ar   83  TRP83       0.0946
     47  CD2       52.2720  -18.4260    6.1960 C.ar   83  TRP83       0.0152
     48  NE1       52.2580  -20.4610    7.1000 N.ar   83  TRP83      -0.2442
     49  CE2       51.4860  -19.5580    6.4380 C.ar   83  TRP83       0.0810
     50  CE3       51.7000  -17.3550    5.5170 C.ar   83  TRP83       0.0012
     51  CZ2       50.2040  -19.6630    6.0200 C.ar   83  TRP83       0.0191
     52  CZ3       50.3910  -17.4590    5.1150 C.ar   83  TRP83       0.0001
     53  CH2       49.6500  -18.6060    5.3670 C.ar   83  TRP83       0.0015
     54  N         54.3170  -10.7120   -0.1220 N.3    97  LEU97      -0.1245
     55  CA        53.5330  -11.0960    1.0630 C.3    97  LEU97       0.1561
     56  C         54.1680  -10.6980    2.4020 C.2    97  LEU97       0.2260
     57  O         53.4440  -10.4970    3.3890 O.2    97  LEU97      -0.2867
     58  CB        53.3090  -12.5900    1.0700 C.3    97  LEU97       0.0270
     59  CG        52.3400  -13.1290    2.1060 C.3    97  LEU97       0.0019
     60  CD1       50.9710  -12.4970    1.9930 C.3    97  LEU97       0.0001
     61  CD2       52.2670  -14.5960    1.9210 C.3    97  LEU97       0.0001
     62  N         51.9390  -26.9650    4.0160 N.3   197  MET197     -0.1230
     63  CA        52.2670  -25.6490    4.5590 C.3   197  MET197      0.1702
     64  C         51.0840  -25.0430    5.3090 C.2   197  MET197      0.2592
     65  O         51.2720  -24.5370    6.4000 O.2   197  MET197     -0.2718
     66  CB        52.6950  -24.7300    3.4310 C.3   197  MET197      0.0401
     67  CG        53.3620  -23.4020    3.9120 C.3   197  MET197      0.0596
     68  SD        52.1020  -22.2120    4.4110 S.3   197  MET197     -0.1393
     69  CE        51.2060  -21.9920    2.8630 C.3   197  MET197      0.0692
     70  N         49.8800  -25.1070    4.7450 N.am  198  PHE198     -0.1976
     71  CA        48.7300  -24.5250    5.4000 C.3   198  PHE198      0.1639
     72  C         48.4010  -25.2980    6.6610 C.2   198  PHE198      0.2290
     73  O         48.6340  -24.7880    7.7810 O.2   198  PHE198     -0.2864
     74  CB        47.4740  -24.4600    4.5200 C.3   198  PHE198      0.0560
     75  CG        47.4370  -23.3010    3.5390 C.ar  198  PHE198     -0.0200
     76  CD1       46.4780  -23.2700    2.5100 C.ar  198  PHE198     -0.0042
     77  CD2       48.3320  -22.2530    3.6100 C.ar  198  PHE198     -0.0042
     78  CE1       46.4480  -22.2160    1.5820 C.ar  198  PHE198     -0.0003
     79  CE2       48.2630  -21.2270    2.6930 C.ar  198  PHE198     -0.0003
     80  CZ        47.3180  -21.2120    1.6970 C.ar  198  PHE198     -0.0000
     81  N         50.5570  -21.2370   15.5080 N.3   205  LEU205     -0.1245
     82  CA        50.0350  -19.9120   15.5190 C.3   205  LEU205      0.1561
     83  C         50.1890  -19.2410   16.8960 C.2   205  LEU205      0.2260
     84  O         50.6220  -18.0640   16.9980 O.2   205  LEU205     -0.2867
     85  CB        48.5550  -19.9920   15.1590 C.3   205  LEU205      0.0270
     86  CG        48.2860  -19.3800   13.7770 C.3   205  LEU205      0.0019
     87  CD1       49.5570  -19.4120   12.9360 C.3   205  LEU205      0.0001
     88  CD2       47.1370  -20.0460   13.1100 C.3   205  LEU205      0.0001
     89  N         57.6090  -26.0970    2.9200 N.3   227  TRP227     -0.1241
     90  CA        57.9940  -24.8290    2.3970 C.3   227  TRP227      0.1605
     91  C         59.1490  -25.1210    1.4990 C.2   227  TRP227      0.2264
     92  O         59.1110  -24.7500    0.3220 O.2   227  TRP227     -0.2867
     93  CB        58.3880  -23.8390    3.5070 C.3   227  TRP227      0.0550
     94  CG        57.2610  -22.9670    3.9280 C.ar  227  TRP227      0.0003
     95  CD1       56.5240  -23.0920    5.0390 C.ar  227  TRP227      0.0946
     96  CD2       56.7380  -21.8490    3.2160 C.ar  227  TRP227      0.0152
     97  NE1       55.5580  -22.1350    5.0790 N.ar  227  TRP227     -0.2442
     98  CE2       55.6700  -21.3470    3.9690 C.ar  227  TRP227      0.0810
     99  CE3       57.0620  -21.2310    1.9970 C.ar  227  TRP227      0.0012
    100  CZ2       54.9140  -20.2370    3.5620 C.ar  227  TRP227      0.0191
    101  CZ3       56.3150  -20.1350    1.5850 C.ar  227  TRP227      0.0001
    102  CH2       55.2490  -19.6490    2.3680 C.ar  227  TRP227      0.0015
    103  N         55.6060  -17.1750   -4.8450 N.3   278  GLU278     -0.1245
    104  CA        54.4750  -16.8990   -4.0060 C.3   278  GLU278      0.1567
    105  C         53.2560  -16.9280   -4.8120 C.2   278  GLU278      0.2260
    106  O         52.2010  -17.3760   -4.3810 O.2   278  GLU278     -0.2867
    107  CB        54.6420  -15.5180   -3.3520 C.3   278  GLU278      0.0388
    108  CG        55.5140  -15.4770   -2.0310 C.3   278  GLU278      0.1160
    109  CD        55.7530  -14.0320   -1.4630 C.2   278  GLU278      0.3649
    110  OE1       54.8440  -13.1510   -1.6270 O.co2 278  GLU278     -0.2457
    111  OE2       56.8550  -13.7910   -0.8550 O.co2 278  GLU278     -0.2457
    112  N         52.1790  -20.6810   -5.4480 N.3   281  ALA281     -0.1231
    113  CA        51.4460  -21.3510   -4.3640 C.3   281  ALA281      0.1694
    114  C         50.1450  -20.6310   -4.1040 C.2   281  ALA281      0.2592
    115  O         49.2130  -21.1790   -3.4500 O.2   281  ALA281     -0.2718
    116  CB        52.2660  -21.4290   -3.1260 C.3   281  ALA281      0.0304
    117  N         50.0640  -19.3980   -4.6130 N.am  282  GLY282     -0.1957
    118  CA        48.8810  -18.5850   -4.4300 C.3   282  GLY282      0.1869
    119  C         47.6600  -19.1240   -5.1090 C.2   282  GLY282      0.2309
    120  O         46.5490  -19.1130   -4.5500 O.2   282  GLY282     -0.2863
    121  N         43.1570  -21.9400   -3.0910 N.3   286  THR286     -0.1218
    122  CA        42.1200  -20.9520   -2.8010 C.3   286  THR286      0.1862
    123  C         41.0140  -20.9500   -3.8560 C.2   286  THR286      0.2287
    124  O         39.7770  -20.8790   -3.5500 O.2   286  THR286     -0.2866
    125  CB        42.8260  -19.5980   -2.6760 C.3   286  THR286      0.1770
    126  OG1       43.6960  -19.4200   -3.8080 O.3   286  THR286     -0.2211
    127  CG2       43.7440  -19.5990   -1.4250 C.3   286  THR286      0.0375
    128  N         38.0180  -17.3690    2.3020 N.3   346  ILE346     -0.1231
    129  CA        39.1640  -18.1680    2.5290 C.3   346  ILE346      0.1692
    130  C         39.9200  -17.5700    3.7300 C.2   346  ILE346      0.2593
    131  O         40.5800  -18.2790    4.4890 O.2   346  ILE346     -0.2718
    132  CB        40.0710  -18.0130    1.3320 C.3   346  ILE346      0.0266
    133  CG1       39.5150  -18.8160    0.1520 C.3   346  ILE346      0.0019
    134  CG2       41.4640  -18.3450    1.6920 C.3   346  ILE346      0.0020
    135  CD1       39.7390  -20.3790    0.2240 C.3   346  ILE346      0.0001
    136  N         39.8350  -16.2470    3.8780 N.am  347  SER347     -0.1938
    137  CA        40.4310  -15.5620    5.0050 C.3   347  SER347      0.2055
    138  C         39.3260  -15.5140    5.9400 C.2   347  SER347      0.2643
    139  O         38.1830  -15.2320    5.5690 O.2   347  SER347     -0.2714
    140  CB        40.8960  -14.1700    4.6140 C.3   347  SER347      0.2130
    141  OG        39.8220  -13.4670    4.0040 O.3   347  SER347     -0.2179
    142  N         39.6140  -15.8650    7.1900 N.am  348  VAL348     -0.1963
    143  CA        38.5130  -15.9260    8.2080 C.3   348  VAL348      0.1727
    144  C         38.3520  -14.4830    8.7380 C.2   348  VAL348      0.2617
    145  O         37.2870  -14.0850    9.1900 O.2   348  VAL348     -0.2715
    146  CB        38.8080  -17.0050    9.3370 C.3   348  VAL348      0.0290
    147  CG1       40.1840  -16.8070    9.9920 C.3   348  VAL348      0.0023
    148  CG2       37.6490  -17.1200   10.3200 C.3   348  VAL348      0.0023
    149  N         39.4310  -13.7140    8.6490 N.am  349  THR349     -0.1937
    150  CA        39.3440  -12.2530    8.8820 C.3   349  THR349      0.2028
    151  C         40.2900  -11.4470    7.9400 C.2   349  THR349      0.2642
    152  O         41.2310  -12.0290    7.3160 O.2   349  THR349     -0.2714
    153  CB        39.8920  -11.8990   10.3260 C.3   349  THR349      0.1808
    154  OG1       41.3020  -12.1190   10.3320 O.3   349  THR349     -0.2208
    155  CG2       39.2710  -12.7790   11.3420 C.3   349  THR349      0.0379
    156  N         40.0980  -10.1220    7.9010 N.am  350  LEU350     -0.1963
    157  CA        41.1920   -9.2720    7.4170 C.3   350  LEU350      0.1728
    158  C         41.8020   -8.5520    8.6040 C.2   350  LEU350      0.2616
    159  O         41.1140   -8.2700    9.5830 O.2   350  LEU350     -0.2715
    160  CB        40.6780   -8.3180    6.3720 C.3   350  LEU350      0.0311
    161  CG        39.7690   -9.0350    5.3200 C.3   350  LEU350      0.0022
    162  CD1       38.8110   -8.0870    4.6650 C.3   350  LEU350      0.0001
    163  CD2       40.6590   -9.7730    4.3120 C.3   350  LEU350      0.0001
    164  N         43.0900   -8.2630    8.5340 N.am  351  GLN351     -0.1977
    165  CA        43.6990   -7.4760    9.5480 C.3   351  GLN351      0.1601
    166  C         44.4070   -6.2660    8.9820 C.2   351  GLN351      0.2287
    167  O         44.9290   -6.3260    7.8830 O.2   351  GLN351     -0.2864
    168  CB        44.7400   -8.3160   10.2400 C.3   351  GLN351      0.0394
    169  CG        44.1990   -9.6640   10.5500 C.3   351  GLN351      0.0908
    170  CD        44.4060  -10.6100    9.3890 C.2   351  GLN351      0.2608
    171  OE1       45.4210  -10.5460    8.6910 O.2   351  GLN351     -0.2717
    172  NE2       43.4060  -11.4660    9.1660 N.am  351  GLN351     -0.0878
    173  N         40.9770   -6.8020   13.6500 N.3   372  GLN372     -0.1245
    174  CA        40.6770   -7.9070   12.7750 C.3   372  GLN372      0.1566
    175  C         39.2550   -7.8870   12.4560 C.2   372  GLN372      0.2260
    176  O         38.3970   -7.7350   13.3390 O.2   372  GLN372     -0.2867
    177  CB        41.0120   -9.2580   13.3950 C.3   372  GLN372      0.0367
    178  CG        42.4960   -9.5100   13.5440 C.3   372  GLN372      0.0905
    179  CD        42.8390  -11.0280   13.6130 C.2   372  GLN372      0.2608
    180  OE1       42.5120  -11.8030   12.6800 O.2   372  GLN372     -0.2717
    181  NE2       43.5660  -11.4450   14.7020 N.am  372  GLN372     -0.0878
    182  N         44.4800   -8.7730   -2.2270 N.3   418  CYS418     -0.1235
    183  CA        45.1000   -9.9130   -2.9920 C.3   418  CYS418      0.1677
    184  C         45.4540   -9.5060   -4.4250 C.2   418  CYS418      0.2270
    185  O         44.5560   -9.1110   -5.1800 O.2   418  CYS418     -0.2867
    186  CB        44.0900  -11.0670   -3.0500 C.3   418  CYS418      0.0956
    187  SG        44.5100  -12.4200   -4.2190 S.3   418  CYS418     -0.0801
    188  N         38.8330  -24.9210   10.1010 N.3   453  PHE453     -0.1241
    189  CA        39.8930  -23.9210    9.9440 C.3   453  PHE453      0.1605
    190  C         41.2280  -24.5570    9.7940 C.2   453  PHE453      0.2264
    191  O         41.6430  -25.3510   10.6310 O.2   453  PHE453     -0.2867
    192  CB        39.9390  -22.8660   11.1660 C.3   453  PHE453      0.0534
    193  CG        41.1320  -21.9470   11.1160 C.ar  453  PHE453     -0.0203
    194  CD1       41.0460  -20.7750   10.3650 C.ar  453  PHE453     -0.0042
    195  CD2       42.3420  -22.2580   11.7210 C.ar  453  PHE453     -0.0042
    196  CE1       42.1490  -19.9130   10.2240 C.ar  453  PHE453     -0.0003
    197  CE2       43.4530  -21.4210   11.5840 C.ar  453  PHE453     -0.0003
    198  CZ        43.3240  -20.1950   10.7930 C.ar  453  PHE453     -0.0000
    199  N         44.2360  -22.4070    8.4770 N.3   455  LEU455     -0.1231
    200  CA        44.9180  -21.2430    7.8920 C.3   455  LEU455      0.1693
    201  C         43.8320  -20.6930    6.9530 C.2   455  LEU455      0.2591
    202  O         43.1120  -19.6800    7.3050 O.2   455  LEU455     -0.2718
    203  CB        46.1820  -21.6820    7.2150 C.3   455  LEU455      0.0284
    204  CG        47.3800  -20.7630    7.5290 C.3   455  LEU455      0.0019
    205  CD1       47.5050  -19.5700    6.4940 C.3   455  LEU455      0.0001
    206  CD2       47.2960  -20.2620    9.0240 C.3   455  LEU455      0.0001
    207  N         43.6140  -21.3730    5.8210 N.am  456  ILE456     -0.1980
    208  CA        42.5090  -21.0010    4.9400 C.3   456  ILE456      0.1595
    209  C         41.3500  -21.7890    5.4270 C.2   456  ILE456      0.2287
    210  O         41.5410  -22.8340    5.9410 O.2   456  ILE456     -0.2864
    211  CB        42.7870  -21.3730    3.4950 C.3   456  ILE456      0.0276
    212  CG1       43.1180  -22.8990    3.3860 C.3   456  ILE456      0.0022
    213  CG2       43.9370  -20.5400    2.9380 C.3   456  ILE456      0.0022
    214  CD1       42.9740  -23.4690    2.0000 C.3   456  ILE456      0.0001
@<TRIPOS>BOND
     1   112   113    1
     2   185   184    2
     3   119   120    2
     4   119   118    1
     5   103   104    1
     6   105   106    2
     7   105   104    1
     8   117   118    1
     9   117   114   am
    10   184   183    1
    11   113   114    1
    12   113   116    1
    13   187   186    1
    14   114   115    2
    15   104   107    1
    16   123   124    2
    17   123   122    1
    18   126   125    1
    19   107   108    1
    20   121   122    1
    21   186   183    1
    22   183   182    1
    23   122   125    1
    24   125   127    1
    25   108   109    1
    26   110   109   ar
    27   109   111   ar
    28    54    55    1
    29   133   135    1
    30   133   132    1
    31    92    91    2
    32    55    58    1
    33    55    56    1
    34    58    59    1
    35   132   134    1
    36   132   129    1
    37    91    90    1
    38    78    80   ar
    39    78    76   ar
    40   101    99   ar
    41   101   102   ar
    42    80    79   ar
    43    19    17    1
    44    61    59    1
    45    60    59    1
    46    99    96   ar
    47   214   212    1
    48   128   129    1
    49   102   100   ar
    50    90    89    1
    51    90    93    1
    52    56    57    2
    53    76    75   ar
    54   129   130    1
    55    79    77   ar
    56    69    68    1
    57   213   211    1
    58    17    18    1
    59    17    16    2
    60    96    94   ar
    61    96    98   ar
    62   212   211    1
    63    66    67    1
    64    66    63    1
    65   211   208    1
    66    93    94    1
    67    75    77   ar
    68    75    74    1
    69   100    98   ar
    70   130   136   am
    71   130   131    2
    72   136   137    1
    73    67    68    1
    74    94    95   ar
    75    16    15    1
    76    98    97   ar
    77   141   140    1
    78    62    63    1
    79   163   161    1
    80    74    71    1
    81    63    64    1
    82   140   137    1
    83   162   161    1
    84    70    64   am
    85    70    71    1
    86   208   209    1
    87   208   207    1
    88   137   138    1
    89    95    97   ar
    90    52    53   ar
    91    52    50   ar
    92    15    14    1
    93    64    65    2
    94   161   160    1
    95    53    51   ar
    96    71    72    1
    97   209   210    2
    98    50    47   ar
    99   139   138    2
   100   207   201   am
   101   138   142   am
   102    51    49   ar
   103    14    13    1
   104    47    49   ar
   105    47    45   ar
   106   160   157    1
   107    49    48   ar
   108   205   204    1
   109    72    73    2
   110    45    44    1
   111    45    46   ar
   112    44    41    1
   113    13    10    1
   114   201   202    2
   115   201   200    1
   116    48    46   ar
   117   142   143    1
   118   203   204    1
   119   203   200    1
   120   152   151    2
   121    43    42    2
   122   157   156    1
   123   157   158    1
   124     9    10    1
   125   204   206    1
   126    41    42    1
   127    41    40    1
   128   167   166    2
   129   200   199    1
   130   156   151   am
   131   151   150    1
   132    10    11    1
   133   143   144    1
   134   143   146    1
   135    37    36    1
   136    37    39    1
   137   164   158   am
   138   164   165    1
   139   158   159    2
   140   149   144   am
   141   149   150    1
   142   171   170    2
   143    23    22    2
   144   144   145    2
   145    36    38    1
   146    36    33    1
   147   150   153    1
   148   166   165    1
   149    11    12    2
   150    11    20   am
   151   172   170   am
   152   146   147    1
   153   146   148    1
   154    32    33    1
   155   170   169    1
   156   165   168    1
   157    20    21    1
   158    22    21    1
   159   190   189    1
   160   190   191    2
   161    35    34    2
   162    33    34    1
   163   189   188    1
   164   189   192    1
   165   196   194   ar
   166   196   198   ar
   167   168   169    1
   168   153   154    1
   169   153   155    1
   170   194   193   ar
   171    21    24    1
   172   198   197   ar
   173   193   192    1
   174   193   195   ar
   175    24    25    1
   176   197   195   ar
   177    25    26   ar
   178    25    27   ar
   179   175   174    1
   180   175   176    2
   181    26    28   ar
   182   180   179    2
   183   174   177    1
   184   174   173    1
   185    87    86    1
   186    27    29   ar
   187     7     5    1
   188    88    86    1
   189   177   178    1
   190   178   179    1
   191    28    30   ar
   192   179   181   am
   193     8     6    1
   194    86    85    1
   195    29    30   ar
   196    30    31    1
   197     5     6    1
   198     5     2    1
   199     3     4    2
   200     3     2    1
   201    85    82    1
   202     1     2    1
   203    81    82    1
   204    82    83    1
   205    83    84    2
