@<TRIPOS>MOLECULE
tmp/3mztB00.pdb
 92 88 0 0 0
SMALL
GASTEIGER

@<TRIPOS>ATOM
      1  N        -24.2510   -9.5280   -3.4620 N.3     9  GLN9       -0.1231
      2  CA       -24.3590  -10.5220   -4.5070 C.3     9  GLN9        0.1698
      3  C        -23.1000  -10.5150   -5.3450 C.2     9  GLN9        0.2592
      4  O        -22.6180   -9.4530   -5.7540 O.2     9  GLN9       -0.2718
      5  CB       -25.5700  -10.2230   -5.3650 C.3     9  GLN9        0.0381
      6  CG       -26.4330   -9.1520   -4.7380 C.3     9  GLN9        0.0905
      7  CD       -27.9090   -9.4620   -4.8040 C.2     9  GLN9        0.2608
      8  OE1      -28.7380   -8.5680   -4.6250 O.2     9  GLN9       -0.2717
      9  NE2      -28.2510  -10.7240   -5.0630 N.am    9  GLN9       -0.0878
     10  N        -22.5730  -11.7100   -5.5910 N.am   10  VAL10      -0.1966
     11  CA       -21.3110  -11.8700   -6.2970 C.3    10  VAL10       0.1727
     12  C        -21.5520  -12.6830   -7.5630 C.2    10  VAL10       0.2616
     13  O        -22.1320  -13.7640   -7.5040 O.2    10  VAL10      -0.2715
     14  CB       -20.2710  -12.5720   -5.4000 C.3    10  VAL10       0.0290
     15  CG1      -18.9350  -12.6200   -6.0970 C.3    10  VAL10       0.0023
     16  CG2      -20.1590  -11.8810   -4.0380 C.3    10  VAL10       0.0023
     17  N        -21.1100  -12.1550   -8.7010 N.am   11  TYR11      -0.1974
     18  CA       -21.3910  -12.7550  -10.0050 C.3    11  TYR11       0.1639
     19  C        -20.3590  -12.2820  -10.9980 C.2    11  TYR11       0.2290
     20  O        -19.6920  -11.2690  -10.7660 O.2    11  TYR11      -0.2864
     21  CB       -22.7700  -12.3200  -10.5050 C.3    11  TYR11       0.0560
     22  CG       -22.8260  -10.8520  -10.7980 C.ar   11  TYR11      -0.0198
     23  CD1      -22.9740   -9.9170   -9.7730 C.ar   11  TYR11      -0.0009
     24  CD2      -22.6850  -10.3830  -12.0890 C.ar   11  TYR11      -0.0009
     25  CE1      -23.0070   -8.5580  -10.0500 C.ar   11  TYR11       0.0417
     26  CE2      -22.7140   -9.0070  -12.3820 C.ar   11  TYR11       0.0417
     27  CZ       -22.8770   -8.1190  -11.3710 C.ar   11  TYR11       0.1957
     28  OH       -22.8990   -6.7800  -11.6800 O.3    11  TYR11      -0.2866
     29  N        -22.1600   -6.6720   -6.0430 N.3    27  TYR27      -0.1241
     30  CA       -23.1660   -5.6340   -5.9400 C.3    27  TYR27       0.1605
     31  C        -23.5950   -5.6060   -4.4960 C.2    27  TYR27       0.2264
     32  O        -24.0210   -6.6320   -3.9300 O.2    27  TYR27      -0.2867
     33  CB       -24.3420   -5.9680   -6.8110 C.3    27  TYR27       0.0534
     34  CG       -25.4600   -4.9590   -6.8800 C.ar   27  TYR27      -0.0201
     35  CD1      -25.3070   -3.7830   -7.5730 C.ar   27  TYR27      -0.0009
     36  CD2      -26.7110   -5.2350   -6.3430 C.ar   27  TYR27      -0.0009
     37  CE1      -26.3490   -2.8890   -7.6930 C.ar   27  TYR27       0.0417
     38  CE2      -27.7680   -4.3410   -6.4710 C.ar   27  TYR27       0.0417
     39  CZ       -27.5750   -3.1710   -7.1410 C.ar   27  TYR27       0.1957
     40  OH       -28.6130   -2.2760   -7.2670 O.3    27  TYR27      -0.2866
     41  N        -27.2410    1.4560   -3.5510 N.3    64  TYR64      -0.1241
     42  CA       -26.4930    0.3540   -4.1200 C.3    64  TYR64       0.1605
     43  C        -25.1920    0.8640   -4.6870 C.2    64  TYR64       0.2264
     44  O        -24.9110    2.0750   -4.6790 O.2    64  TYR64      -0.2867
     45  CB       -27.2960   -0.3950   -5.1700 C.3    64  TYR64       0.0534
     46  CG       -27.7800    0.4600   -6.3010 C.ar   64  TYR64      -0.0201
     47  CD1      -27.0480    0.5630   -7.4860 C.ar   64  TYR64      -0.0009
     48  CD2      -28.9930    1.1640   -6.1950 C.ar   64  TYR64      -0.0009
     49  CE1      -27.5020    1.3450   -8.5320 C.ar   64  TYR64       0.0417
     50  CE2      -29.4550    1.9510   -7.2430 C.ar   64  TYR64       0.0417
     51  CZ       -28.7110    2.0310   -8.4010 C.ar   64  TYR64       0.1957
     52  OH       -29.1980    2.8160   -9.4160 O.3    64  TYR64      -0.2866
     53  N        -21.4390   -0.8970   -6.9220 N.3    66  LEU66      -0.1245
     54  CA       -20.8100   -2.0420   -7.5550 C.3    66  LEU66       0.1561
     55  C        -19.2870   -1.9620   -7.5820 C.2    66  LEU66       0.2260
     56  O        -18.6960   -0.9720   -8.0240 O.2    66  LEU66      -0.2867
     57  CB       -21.3170   -2.1710   -8.9750 C.3    66  LEU66       0.0270
     58  CG       -20.6500   -3.3120   -9.7410 C.3    66  LEU66       0.0019
     59  CD1      -21.2620   -4.6610   -9.3500 C.3    66  LEU66       0.0001
     60  CD2      -20.7350   -3.0620  -11.2700 C.3    66  LEU66       0.0001
     61  N        -19.1220  -13.1470    1.1810 N.3    94  VAL94      -0.1231
     62  CA       -19.8690  -13.9840    0.2540 C.3    94  VAL94       0.1692
     63  C        -18.9100  -14.4980   -0.8000 C.2    94  VAL94       0.2591
     64  O        -18.1260  -13.7390   -1.3550 O.2    94  VAL94      -0.2718
     65  CB       -21.0420  -13.2400   -0.4120 C.3    94  VAL94       0.0266
     66  CG1      -21.8020  -14.1710   -1.3510 C.3    94  VAL94       0.0020
     67  CG2      -21.9750  -12.6950    0.6420 C.3    94  VAL94       0.0020
     68  N        -18.9640  -15.7960   -1.0610 N.am   95  LYS95      -0.1980
     69  CA       -18.0790  -16.3930   -2.0460 C.3    95  LYS95       0.1596
     70  C        -18.7300  -16.3770   -3.3930 C.2    95  LYS95       0.2287
     71  O        -19.9600  -16.4420   -3.5070 O.2    95  LYS95      -0.2864
     72  CB       -17.7480  -17.8310   -1.6910 C.3    95  LYS95       0.0298
     73  CG       -16.9200  -17.9850   -0.4470 C.3    95  LYS95       0.0038
     74  CD       -16.9420  -19.4190   -0.0300 C.3    95  LYS95       0.0206
     75  CE       -15.9970  -19.6810    1.0830 C.3    95  LYS95       0.1093
     76  NZ       -16.1560  -21.1050    1.3900 N.3    95  LYS95      -0.1314
     77  N        -19.9020  -18.1900   -6.3660 N.3    97  ASP97      -0.1239
     78  CA       -20.2880  -19.5210   -6.8000 C.3    97  ASP97       0.1674
     79  C        -20.8250  -19.4700   -8.2250 C.2    97  ASP97       0.2266
     80  O        -21.9390  -19.0100   -8.4570 O.2    97  ASP97      -0.2867
     81  CB       -21.3470  -20.0920   -5.8610 C.3    97  ASP97       0.1410
     82  CG       -21.6840  -21.5370   -6.1700 C.2    97  ASP97       0.3668
     83  OD1      -21.2910  -22.0330   -7.2480 O.co2  97  ASP97      -0.2456
     84  OD2      -22.3460  -22.1770   -5.3280 O.co2  97  ASP97      -0.2456
     85  N        -24.2500  -20.7670   -8.7450 N.3   100  MET100     -0.1245
     86  CA       -25.2560  -19.9880   -8.0470 C.3   100  MET100      0.1570
     87  C        -25.3210  -18.5620   -8.5980 C.2   100  MET100      0.2261
     88  O        -26.4000  -17.9860   -8.7320 O.2   100  MET100     -0.2867
     89  CB       -24.9310  -19.9490   -6.5630 C.3   100  MET100      0.0387
     90  CG       -25.5210  -21.0950   -5.7790 C.3   100  MET100      0.0595
     91  SD       -27.1840  -20.7300   -5.2280 S.3   100  MET100     -0.1393
     92  CE       -27.5790  -22.2150   -4.2770 C.3   100  MET100      0.0692
@<TRIPOS>BOND
     1    26    24   ar
     2    26    27   ar
     3    24    22   ar
     4    28    27    1
     5    27    25   ar
     6    60    58    1
     7    19    20    2
     8    19    18    1
     9    22    21    1
    10    22    23   ar
    11    21    18    1
    12    25    23   ar
    13    18    17    1
    14    58    59    1
    15    58    57    1
    16    52    51    1
    17    57    54    1
    18    85    86    1
    19    88    87    2
    20    17    12   am
    21    87    86    1
    22    49    51   ar
    23    49    47   ar
    24    80    79    2
    25    51    50   ar
    26    79    78    1
    27    86    89    1
    28    56    55    2
    29    37    35   ar
    30    37    39   ar
    31    55    54    1
    32    35    34   ar
    33    12    13    2
    34    12    11    1
    35    54    53    1
    36    47    46   ar
    37    40    39    1
    38    83    82   ar
    39    50    48   ar
    40    39    38   ar
    41    34    33    1
    42    34    36   ar
    43    33    30    1
    44    78    77    1
    45    78    81    1
    46    89    90    1
    47    38    36   ar
    48    46    48   ar
    49    46    45    1
    50    11    10    1
    51    11    14    1
    52    82    81    1
    53    82    84   ar
    54    15    14    1
    55    29    30    1
    56    30    31    1
    57    90    91    1
    58     4     3    2
    59    10     3   am
    60    14    16    1
    61     5     6    1
    62     5     2    1
    63     3     2    1
    64    91    92    1
    65    45    42    1
    66     9     7   am
    67     7     6    1
    68     7     8    2
    69    43    44    2
    70    43    42    1
    71     2     1    1
    72    31    32    2
    73    42    41    1
    74    71    70    2
    75    70    69    1
    76    69    72    1
    77    69    68    1
    78    72    73    1
    79    64    63    2
    80    66    65    1
    81    68    63   am
    82    63    62    1
    83    73    74    1
    84    65    62    1
    85    65    67    1
    86    74    75    1
    87    62    61    1
    88    75    76    1
