@<TRIPOS>MOLECULE
tmp/3mzwA00.pdb
 76 70 0 0 0
SMALL
GASTEIGER

@<TRIPOS>ATOM
      1  N         25.8360  -54.5370   -3.1620 N.3     2  GLN2       -0.1245
      2  CA        26.6240  -54.9440   -1.9960 C.3     2  GLN2        0.1566
      3  C         27.8830  -54.0920   -1.7590 C.2     2  GLN2        0.2260
      4  O         28.3630  -53.9810   -0.6230 O.2     2  GLN2       -0.2867
      5  CB        26.9890  -56.4320   -2.0760 C.3     2  GLN2        0.0367
      6  CG        27.9550  -56.8390   -3.1960 C.3     2  GLN2        0.0905
      7  CD        28.3910  -58.3100   -3.0960 C.2     2  GLN2        0.2608
      8  OE1       28.8370  -58.7830   -2.0450 O.2     2  GLN2       -0.2717
      9  NE2       28.2650  -59.0300   -4.1990 N.am    2  GLN2       -0.0878
     10  N         27.9810  -53.4600    2.0900 N.3    32  GLN32      -0.1245
     11  CA        28.6540  -54.5550    2.8080 C.3    32  GLN32       0.1566
     12  C         30.1670  -54.4850    2.7090 C.2    32  GLN32       0.2260
     13  O         30.8840  -55.0010    3.5740 O.2    32  GLN32      -0.2867
     14  CB        28.2230  -55.9000    2.2520 C.3    32  GLN32       0.0367
     15  CG        26.8090  -56.2950    2.5890 C.3    32  GLN32       0.0905
     16  CD        26.3860  -57.5540    1.8580 C.2    32  GLN32       0.2608
     17  OE1       26.3220  -57.5890    0.6250 O.2    32  GLN32      -0.2717
     18  NE2       26.0990  -58.5990    2.6180 N.am   32  GLN32      -0.0878
     19  N         30.7020  -55.4560    6.3890 N.3    56  GLN56      -0.1245
     20  CA        31.5860  -56.5470    6.8670 C.3    56  GLN56       0.1566
     21  C         33.0550  -56.2800    6.6330 C.2    56  GLN56       0.2260
     22  O         33.9060  -56.8060    7.3510 O.2    56  GLN56      -0.2867
     23  CB        31.2870  -57.8750    6.1810 C.3    56  GLN56       0.0367
     24  CG        29.9150  -58.4340    6.3920 C.3    56  GLN56       0.0905
     25  CD        29.5850  -59.4380    5.3280 C.2    56  GLN56       0.2608
     26  OE1       30.4770  -60.1000    4.8070 O.2    56  GLN56      -0.2717
     27  NE2       28.3060  -59.5500    4.9780 N.am   56  GLN56      -0.0878
     28  N         35.4180  -69.6690    4.5860 N.3   221  CYS221     -0.1221
     29  CA        36.1300  -68.5100    5.1800 C.3   221  CYS221      0.1808
     30  C         35.2030  -67.4400    5.7220 C.2   221  CYS221      0.2601
     31  O         34.1050  -67.2440    5.2050 O.2   221  CYS221     -0.2717
     32  CB        37.0400  -67.8250    4.1580 C.3   221  CYS221      0.0970
     33  SG        38.3460  -68.8180    3.4380 S.3   221  CYS221     -0.0800
     34  N         35.6560  -66.7220    6.7430 N.am  222  LEU222     -0.1965
     35  CA        34.9300  -65.5310    7.1830 C.3   222  LEU222      0.1728
     36  C         35.2950  -64.3460    6.3000 C.2   222  LEU222      0.2616
     37  O         34.4970  -63.4350    6.1340 O.2   222  LEU222     -0.2715
     38  CB        35.1590  -65.2230    8.6690 C.3   222  LEU222      0.0311
     39  CG        34.6090  -66.2340    9.6970 C.3   222  LEU222      0.0022
     40  CD1       34.9790  -65.8610   11.1190 C.3   222  LEU222      0.0001
     41  CD2       33.1090  -66.4150    9.5900 C.3   222  LEU222      0.0001
     42  N         36.4980  -64.3600    5.7320 N.am  223  ALA223     -0.1963
     43  CA        36.8680  -63.4060    4.6800 C.3   223  ALA223      0.1728
     44  C         37.9580  -63.9840    3.8010 C.2   223  ALA223      0.2616
     45  O         38.6830  -64.8930    4.2190 O.2   223  ALA223     -0.2715
     46  CB        37.3100  -62.0560    5.2660 C.3   223  ALA223      0.0334
     47  N         38.0630  -63.4510    2.5860 N.am  224  CYS224     -0.1968
     48  CA        39.0920  -63.8650    1.6430 C.3   224  CYS224      0.1712
     49  C         40.3500  -63.0700    1.8700 C.2   224  CYS224      0.2296
     50  O         40.3010  -61.8470    1.8630 O.2   224  CYS224     -0.2864
     51  CB        38.6210  -63.6520    0.2060 C.3   224  CYS224      0.0983
     52  SG        37.4990  -64.9300   -0.4260 S.3   224  CYS224     -0.0798
     53  N         37.8670  -63.0630   -3.7760 N.3   228  ASN228     -0.1240
     54  CA        36.6170  -63.8240   -3.6430 C.3   228  ASN228      0.1653
     55  C         36.0440  -64.3190   -4.9820 C.2   228  ASN228      0.2266
     56  O         35.2220  -63.6510   -5.6000 O.2   228  ASN228     -0.2867
     57  CB        35.5870  -62.9930   -2.8690 C.3   228  ASN228      0.1155
     58  CG        34.3110  -63.7600   -2.5570 C.2   228  ASN228      0.2627
     59  OD1       34.2320  -64.9800   -2.7530 O.2   228  ASN228     -0.2716
     60  ND2       33.2960  -63.0320   -2.0660 N.am  228  ASN228     -0.0877
     61  N         33.5630  -66.1430   -6.3640 N.3   230  SER230     -0.1202
     62  CA        32.2120  -66.7130   -6.2290 C.3   230  SER230      0.2020
     63  C         32.0880  -67.6650   -5.0520 C.2   230  SER230      0.2619
     64  O         31.6590  -68.8050   -5.2190 O.2   230  SER230     -0.2717
     65  CB        31.7830  -67.4230   -7.5180 C.3   230  SER230      0.2103
     66  OG        31.4830  -66.4910   -8.5400 O.3   230  SER230     -0.2182
     67  N         32.4830  -67.1950   -3.8710 N.am  231  GLY231     -0.1956
     68  CA        32.4090  -67.9880   -2.6420 C.3   231  GLY231      0.1869
     69  C         33.7040  -68.6880   -2.2710 C.2   231  GLY231      0.2309
     70  O         33.9390  -69.0070   -1.1040 O.2   231  GLY231     -0.2863
     71  N         37.7370  -68.6840   -1.8750 N.3   233  CYS233     -0.1235
     72  CA        38.8580  -67.7550   -1.7270 C.3   233  CYS233      0.1677
     73  C         40.1060  -68.2370   -2.4870 C.2   233  CYS233      0.2270
     74  O         40.5180  -69.3950   -2.3470 O.2   233  CYS233     -0.2867
     75  CB        39.1750  -67.5010   -0.2560 C.3   233  CYS233      0.0956
     76  SG        37.8850  -66.6170    0.6630 S.3   233  CYS233     -0.0801
@<TRIPOS>BOND
     1    66    65    1
     2    65    62    1
     3    61    62    1
     4    62    63    1
     5    56    55    2
     6    64    63    2
     7    63    67   am
     8    55    54    1
     9     9     7   am
    10    67    68    1
    11    53    54    1
    12    54    57    1
    13     6     7    1
    14     6     5    1
    15     1     2    1
    16     7     8    2
    17    57    58    1
    18    59    58    2
    19    68    69    1
    20    58    60   am
    21    73    74    2
    22    73    72    1
    23    69    70    2
    24     5     2    1
    25     2     3    1
    26    71    72    1
    27     3     4    2
    28    72    75    1
    29    52    51    1
    30    52    76    1
    31    75    76    1
    32    51    48    1
    33    17    16    2
    34    48    49    1
    35    48    47    1
    36    16    15    1
    37    16    18   am
    38    50    49    2
    39    10    11    1
    40    14    15    1
    41    14    11    1
    42    47    44   am
    43    12    11    1
    44    12    13    2
    45    33    32    1
    46    44    45    2
    47    44    43    1
    48    32    29    1
    49    28    29    1
    50    43    46    1
    51    43    42    1
    52    26    25    2
    53    27    25   am
    54    29    30    1
    55    31    30    2
    56    25    24    1
    57    30    34   am
    58    42    36   am
    59    37    36    2
    60    23    24    1
    61    23    20    1
    62    36    35    1
    63    19    20    1
    64    21    20    1
    65    21    22    2
    66    34    35    1
    67    35    38    1
    68    38    39    1
    69    41    39    1
    70    39    40    1
