@<TRIPOS>MOLECULE
tmp/3n0gB00.pdb
 163 154 0 0 0
SMALL
GASTEIGER

@<TRIPOS>ATOM
      1  N         24.9900   76.5580   24.5410 N.3   238  ARG238     -0.1245
      2  CA        23.7190   75.8790   24.3550 C.3   238  ARG238      0.1563
      3  C         23.1610   75.5190   25.7280 C.2   238  ARG238      0.2260
      4  O         23.8930   75.0690   26.6170 O.2   238  ARG238     -0.2867
      5  CB        23.9100   74.6220   23.4960 C.3   238  ARG238      0.0307
      6  CG        24.9040   73.6210   24.0730 C.3   238  ARG238      0.0489
      7  CD        25.4140   72.6190   23.0270 C.3   238  ARG238      0.2205
      8  NE        26.3830   71.6930   23.6210 N.pl3 238  ARG238     -0.0865
      9  CZ        27.1460   70.8450   22.9360 C.cat 238  ARG238      0.5346
     10  NH1       27.0610   70.7960   21.6130 N.pl3 238  ARG238      0.1354
     11  NH2       27.9920   70.0450   23.5790 N.pl3 238  ARG238      0.1354
     12  N         27.0940   68.4400   34.5590 N.3   268  PHE268     -0.1241
     13  CA        26.8290   68.1370   33.1580 C.3   268  PHE268      0.1605
     14  C         26.5610   69.4300   32.3840 C.2   268  PHE268      0.2264
     15  O         27.0070   69.5910   31.2410 O.2   268  PHE268     -0.2867
     16  CB        25.6230   67.2040   33.0570 C.3   268  PHE268      0.0534
     17  CG        25.4180   66.6120   31.6860 C.ar  268  PHE268     -0.0203
     18  CD1       26.2240   65.5670   31.2300 C.ar  268  PHE268     -0.0042
     19  CD2       24.3850   67.0780   30.8640 C.ar  268  PHE268     -0.0042
     20  CE1       25.9980   64.9850   29.9680 C.ar  268  PHE268     -0.0003
     21  CE2       24.1460   66.5100   29.6040 C.ar  268  PHE268     -0.0003
     22  CZ        24.9530   65.4600   29.1550 C.ar  268  PHE268     -0.0000
     23  N         29.8000   71.2640   31.7810 N.3   271  VAL271     -0.1231
     24  CA        30.6440   70.5480   30.8420 C.3   271  VAL271      0.1692
     25  C         30.2040   70.9480   29.4520 C.2   271  VAL271      0.2592
     26  O         31.0180   71.3450   28.6210 O.2   271  VAL271     -0.2718
     27  CB        30.4760   69.0350   30.9960 C.3   271  VAL271      0.0266
     28  CG1       31.3510   68.2950   29.9960 C.3   271  VAL271      0.0020
     29  CG2       30.7980   68.6430   32.4040 C.3   271  VAL271      0.0020
     30  N         28.9030   70.8390   29.2120 N.am  272  THR272     -0.1953
     31  CA        28.3370   71.1890   27.9240 C.3   272  THR272      0.1897
     32  C         28.8980   72.5210   27.4560 C.2   272  THR272      0.2313
     33  O         29.3480   72.6530   26.3130 O.2   272  THR272     -0.2863
     34  CB        26.8070   71.2950   28.0110 C.3   272  THR272      0.1794
     35  OG1       26.2440   69.9780   28.0080 O.3   272  THR272     -0.2208
     36  CG2       26.2590   72.0990   26.8480 C.3   272  THR272      0.0378
     37  N         32.8050   72.5330   27.3970 N.3   275  ASP275     -0.1239
     38  CA        33.1670   71.6160   26.3210 C.3   275  ASP275      0.1674
     39  C         33.1540   72.3660   24.9850 C.2   275  ASP275      0.2266
     40  O         34.1010   72.2510   24.2150 O.2   275  ASP275     -0.2867
     41  CB        32.2050   70.4310   26.2590 C.3   275  ASP275      0.1410
     42  CG        32.3230   69.6460   24.9570 C.2   275  ASP275      0.3668
     43  OD1       33.3600   68.9900   24.7290 O.co2 275  ASP275     -0.2456
     44  OD2       31.3690   69.6990   24.1550 O.co2 275  ASP275     -0.2456
     45  N         36.2350   73.1030   21.9500 N.3   279  ASP279     -0.1239
     46  CA        36.3250   72.5550   20.6060 C.3   279  ASP279      0.1674
     47  C         35.7290   73.3520   19.4580 C.2   279  ASP279      0.2266
     48  O         35.7330   72.8870   18.3230 O.2   279  ASP279     -0.2867
     49  CB        35.7690   71.1290   20.5610 C.3   279  ASP279      0.1410
     50  CG        34.2940   71.0680   20.8790 C.2   279  ASP279      0.3668
     51  OD1       33.9430   71.0230   22.0830 O.co2 279  ASP279     -0.2456
     52  OD2       33.4830   71.0790   19.9200 O.co2 279  ASP279     -0.2456
     53  N         40.4880   68.3550   27.6960 N.3   350  PHE350     -0.1241
     54  CA        39.8530   69.1890   26.6820 C.3   350  PHE350      0.1605
     55  C         40.9280   69.9190   25.8910 C.2   350  PHE350      0.2264
     56  O         40.8590   70.0000   24.6690 O.2   350  PHE350     -0.2867
     57  CB        38.9070   70.2240   27.3160 C.3   350  PHE350      0.0534
     58  CG        37.5430   69.6830   27.6650 C.ar  350  PHE350     -0.0203
     59  CD1       36.9610   68.6800   26.8900 C.ar  350  PHE350     -0.0042
     60  CD2       36.8330   70.1900   28.7600 C.ar  350  PHE350     -0.0042
     61  CE1       35.6930   68.1820   27.1950 C.ar  350  PHE350     -0.0003
     62  CE2       35.5630   69.7020   29.0740 C.ar  350  PHE350     -0.0003
     63  CZ        34.9890   68.6940   28.2920 C.ar  350  PHE350     -0.0000
     64  N         42.7490   67.6260   23.4820 N.3   353  GLU353     -0.1245
     65  CA        41.9380   67.3840   22.2960 C.3   353  GLU353      0.1567
     66  C         41.9600   68.5890   21.3800 C.2   353  GLU353      0.2260
     67  O         41.9940   68.4420   20.1620 O.2   353  GLU353     -0.2867
     68  CB        40.4870   67.0520   22.6870 C.3   353  GLU353      0.0388
     69  CG        40.3340   65.7150   23.4130 C.3   353  GLU353      0.1160
     70  CD        38.8830   65.2460   23.5640 C.2   353  GLU353      0.3649
     71  OE1       38.6960   64.0600   23.9120 O.co2 353  GLU353     -0.2457
     72  OE2       37.9370   66.0390   23.3470 O.co2 353  GLU353     -0.2457
     73  N         44.6750   58.3880   22.4600 N.3   368  TYR368     -0.1241
     74  CA        43.4810   59.1780   22.2310 C.3   368  TYR368      0.1605
     75  C         42.3750   58.7500   23.1840 C.2   368  TYR368      0.2264
     76  O         41.8250   59.5570   23.9340 O.2   368  TYR368     -0.2867
     77  CB        42.9810   58.9870   20.8030 C.3   368  TYR368      0.0534
     78  CG        41.7100   59.7510   20.5320 C.ar  368  TYR368     -0.0201
     79  CD1       41.7550   61.0900   20.1360 C.ar  368  TYR368     -0.0009
     80  CD2       40.4540   59.1570   20.7430 C.ar  368  TYR368     -0.0009
     81  CE1       40.5890   61.8240   19.9600 C.ar  368  TYR368      0.0417
     82  CE2       39.2790   59.8830   20.5710 C.ar  368  TYR368      0.0417
     83  CZ        39.3560   61.2210   20.1800 C.ar  368  TYR368      0.1957
     84  OH        38.2120   61.9730   20.0200 O.3   368  TYR368     -0.2866
     85  N         37.9260   63.2240   29.0450 N.3   375  SER375     -0.1202
     86  CA        37.2850   64.4160   28.5140 C.3   375  SER375      0.2020
     87  C         35.7780   64.2030   28.3640 C.2   375  SER375      0.2619
     88  O         35.0380   65.1220   28.0020 O.2   375  SER375     -0.2717
     89  CB        37.8800   64.8090   27.1570 C.3   375  SER375      0.2103
     90  OG        37.4450   63.9180   26.1460 O.3   375  SER375     -0.2182
     91  N         35.3160   62.9880   28.6280 N.am  376  SER376     -0.1937
     92  CA        33.8910   62.7160   28.5340 C.3   376  SER376      0.2055
     93  C         33.2110   63.3790   29.7380 C.2   376  SER376      0.2643
     94  O         32.0320   63.7460   29.6800 O.2   376  SER376     -0.2714
     95  CB        33.6390   61.2100   28.5690 C.3   376  SER376      0.2130
     96  OG        33.6980   60.7310   29.9000 O.3   376  SER376     -0.2179
     97  N         33.9880   63.5280   30.8150 N.am  377  SER377     -0.1949
     98  CA        33.5700   64.1110   32.1000 C.3   377  SER377      0.1924
     99  C         32.9230   63.0340   32.9680 C.2   377  SER377      0.2314
    100  O         32.4060   63.3170   34.0540 O.2   377  SER377     -0.2863
    101  CB        32.5900   65.2840   31.9150 C.3   377  SER377      0.2116
    102  OG        31.2560   64.8580   31.6910 O.3   377  SER377     -0.2180
    103  N         30.7500   55.3650   28.4300 N.3   415  PHE415     -0.1227
    104  CA        30.2160   56.6880   28.1410 C.3   415  PHE415      0.1736
    105  C         30.8540   57.2460   26.8590 C.2   415  PHE415      0.2595
    106  O         30.1520   57.6800   25.9440 O.2   415  PHE415     -0.2718
    107  CB        30.4840   57.6090   29.3430 C.3   415  PHE415      0.0547
    108  CG        29.9830   59.0200   29.1700 C.ar  415  PHE415     -0.0202
    109  CD1       29.1100   59.3600   28.1340 C.ar  415  PHE415     -0.0042
    110  CD2       30.3620   60.0060   30.0700 C.ar  415  PHE415     -0.0042
    111  CE1       28.6240   60.6640   28.0080 C.ar  415  PHE415     -0.0003
    112  CE2       29.8840   61.2990   29.9520 C.ar  415  PHE415     -0.0003
    113  CZ        29.0110   61.6300   28.9180 C.ar  415  PHE415     -0.0000
    114  N         32.1820   57.2250   26.7940 N.am  416  ARG416     -0.1980
    115  CA        32.8790   57.7410   25.6220 C.3   416  ARG416      0.1597
    116  C         32.5990   56.9250   24.3550 C.2   416  ARG416      0.2287
    117  O         32.2880   57.4870   23.2950 O.2   416  ARG416     -0.2864
    118  CB        34.3880   57.8030   25.8870 C.3   416  ARG416      0.0334
    119  CG        35.2440   58.1080   24.6570 C.3   416  ARG416      0.0492
    120  CD        34.7820   59.3520   23.8990 C.3   416  ARG416      0.2205
    121  NE        34.9480   60.5890   24.6690 N.pl3 416  ARG416     -0.0865
    122  CZ        34.4200   61.7550   24.3120 C.cat 416  ARG416      0.5346
    123  NH1       33.6950   61.8320   23.1970 N.pl3 416  ARG416      0.1354
    124  NH2       34.6060   62.8260   25.0720 N.pl3 416  ARG416      0.1354
    125  N         29.1270   57.5890   22.9920 N.3   419  ASN419     -0.1225
    126  CA        29.0890   58.9540   22.4370 C.3   419  ASN419      0.1785
    127  C         29.7030   58.9590   21.0320 C.2   419  ASN419      0.2597
    128  O         29.0690   59.3800   20.0570 O.2   419  ASN419     -0.2718
    129  CB        29.8960   59.9150   23.3400 C.3   419  ASN419      0.1169
    130  CG        29.7900   61.3880   22.9140 C.2   419  ASN419      0.2627
    131  OD1       29.6330   61.7090   21.7360 O.2   419  ASN419     -0.2716
    132  ND2       29.9010   62.2860   23.8830 N.am  419  ASN419     -0.0877
    133  N         30.9480   58.4930   20.9450 N.am  420  ASP420     -0.1974
    134  CA        31.6680   58.4460   19.6770 C.3   420  ASP420      0.1709
    135  C         30.9730   57.5680   18.6340 C.2   420  ASP420      0.2293
    136  O         30.9200   57.9190   17.4530 O.2   420  ASP420     -0.2864
    137  CB        33.1060   57.9670   19.9130 C.3   420  ASP420      0.1436
    138  CG        33.9830   59.0460   20.5040 C.2   420  ASP420      0.3671
    139  OD1       33.4350   59.9670   21.1520 O.co2 420  ASP420     -0.2456
    140  OD2       35.2200   58.9750   20.3340 O.co2 420  ASP420     -0.2456
    141  N         28.1680   59.2140   16.7060 N.3   423  SER423     -0.1217
    142  CA        28.5210   60.2830   15.7870 C.3   423  SER423      0.1889
    143  C         29.6490   59.9000   14.8540 C.2   423  SER423      0.2288
    144  O         30.1220   60.7190   14.0570 O.2   423  SER423     -0.2866
    145  CB        28.9310   61.5200   16.5780 C.3   423  SER423      0.2089
    146  OG        30.0020   61.2120   17.4490 O.3   423  SER423     -0.2183
    147  N         38.9370   62.7820   14.8590 N.3   434  ALA434     -0.1245
    148  CA        38.7520   63.1110   16.2740 C.3   434  ALA434      0.1562
    149  C         37.6520   62.2490   16.8850 C.2   434  ALA434      0.2260
    150  O         36.8460   62.7180   17.6890 O.2   434  ALA434     -0.2867
    151  CB        38.3950   64.5780   16.4200 C.3   434  ALA434      0.0290
    152  N         22.3970   57.7580   24.0880 N.3   495  TYR495     -0.1241
    153  CA        23.0560   57.6970   22.7910 C.3   495  TYR495      0.1605
    154  C         22.4540   56.6000   21.9310 C.2   495  TYR495      0.2264
    155  O         23.1200   55.6350   21.5740 O.2   495  TYR495     -0.2867
    156  CB        24.5580   57.4740   22.9680 C.3   495  TYR495      0.0534
    157  CG        25.2490   58.6780   23.5320 C.ar  495  TYR495     -0.0201
    158  CD1       25.4830   59.7980   22.7440 C.ar  495  TYR495     -0.0009
    159  CD2       25.5890   58.7360   24.8800 C.ar  495  TYR495     -0.0009
    160  CE1       26.0310   60.9540   23.2910 C.ar  495  TYR495      0.0417
    161  CE2       26.1340   59.8870   25.4420 C.ar  495  TYR495      0.0417
    162  CZ        26.3510   60.9950   24.6440 C.ar  495  TYR495      0.1957
    163  OH        26.8550   62.1590   25.1890 O.3   495  TYR495     -0.2866
@<TRIPOS>BOND
     1   144   143    2
     2   143   142    1
     3   147   148    1
     4   142   145    1
     5   142   141    1
     6   148   151    1
     7   148   149    1
     8   145   146    1
     9   149   150    2
    10   136   135    2
    11    48    47    2
    12   135   134    1
    13    47    46    1
    14   134   137    1
    15   134   133    1
    16   137   138    1
    17    52    50   ar
    18    81    79   ar
    19    81    83   ar
    20    84    83    1
    21   128   127    2
    22    79    78   ar
    23    67    66    2
    24    83    82   ar
    25   140   138   ar
    26   138   139   ar
    27    78    80   ar
    28    78    77    1
    29    49    46    1
    30    49    50    1
    31    82    80   ar
    32    46    45    1
    33    77    74    1
    34    50    51   ar
    35   133   127   am
    36   127   126    1
    37    66    65    1
    38   155   154    2
    39    10     9    1
    40   131   130    2
    41   154   153    1
    42    74    73    1
    43    74    75    1
    44    65    68    1
    45    65    64    1
    46   126   125    1
    47   126   129    1
    48    68    69    1
    49   158   160   ar
    50   158   157   ar
    51   153   156    1
    52   153   152    1
    53   130   129    1
    54   130   132   am
    55     9    11    1
    56     9     8    2
    57   156   157    1
    58     7     8    1
    59     7     6    1
    60    75    76    2
    61   123   122    1
    62   160   162   ar
    63   117   116    2
    64    72    70   ar
    65    69    70    1
    66     5     6    1
    67     5     2    1
    68   157   159   ar
    69    70    71   ar
    70   120   119    1
    71   120   121    1
    72    44    42   ar
    73    40    39    2
    74   122   121    2
    75   122   124    1
    76     2     1    1
    77     2     3    1
    78   116   115    1
    79   162   163    1
    80   162   161   ar
    81   119   118    1
    82    56    55    2
    83    43    42   ar
    84   159   161   ar
    85    42    41    1
    86    39    38    1
    87   115   118    1
    88   115   114    1
    89     3     4    2
    90    55    54    1
    91   106   105    2
    92    90    89    1
    93    41    38    1
    94    33    32    2
    95    38    37    1
    96    54    57    1
    97    54    53    1
    98   114   105   am
    99    36    34    1
   100   105   104    1
   101    59    61   ar
   102    59    58   ar
   103    89    86    1
   104    61    63   ar
   105    57    58    1
   106    32    31    1
   107    58    60   ar
   108    31    34    1
   109    31    30    1
   110    88    87    2
   111   111   109   ar
   112   111   113   ar
   113    35    34    1
   114   109   108   ar
   115   104   103    1
   116   104   107    1
   117    63    62   ar
   118    87    86    1
   119    87    91   am
   120    86    85    1
   121    92    95    1
   122    92    91    1
   123    92    93    1
   124    95    96    1
   125    26    25    2
   126    60    62   ar
   127   113   112   ar
   128    22    21   ar
   129    22    20   ar
   130   108   107    1
   131   108   110   ar
   132    30    25   am
   133    25    24    1
   134    21    19   ar
   135    94    93    2
   136    93    97   am
   137   112   110   ar
   138    20    18   ar
   139    28    27    1
   140    97    98    1
   141    24    27    1
   142    24    23    1
   143    19    17   ar
   144    27    29    1
   145    18    17   ar
   146    15    14    2
   147    17    16    1
   148   102   101    1
   149   101    98    1
   150    98    99    1
   151    14    13    1
   152    99   100    2
   153    16    13    1
   154    13    12    1
