@<TRIPOS>MOLECULE
tmp/3n0nA00.pdb
 145 140 0 0 0
SMALL
GASTEIGER

@<TRIPOS>ATOM
      1  N         -8.4910    0.5690    5.8970 N.3    65  ASN65      -0.1240
      2  CA        -9.3420    1.4740    6.6510 C.3    65  ASN65       0.1653
      3  C        -10.5150    1.9150    5.7900 C.2    65  ASN65       0.2266
      4  O        -10.3200    2.3810    4.6670 O.2    65  ASN65      -0.2867
      5  CB        -8.5930    2.7470    7.0500 C.3    65  ASN65       0.1155
      6  CG        -7.5280    2.5060    8.0870 C.2    65  ASN65       0.2627
      7  OD1       -7.4150    1.4100    8.6050 O.2    65  ASN65      -0.2716
      8  ND2       -6.7330    3.5240    8.3940 N.am   65  ASN65      -0.0877
      9  N        -12.7490    6.3020   11.2290 N.3    90  GLN90      -0.1245
     10  CA       -12.4240    5.1510   10.3900 C.3    90  GLN90       0.1566
     11  C        -12.6630    3.8780   11.1640 C.2    90  GLN90       0.2260
     12  O        -12.6720    3.8890   12.3980 O.2    90  GLN90      -0.2867
     13  CB       -10.9670    5.1830    9.8960 C.3    90  GLN90       0.0367
     14  CG        -9.8970    5.3140   10.9720 C.3    90  GLN90       0.0905
     15  CD        -9.0960    4.0620   11.2560 C.2    90  GLN90       0.2608
     16  OE1       -9.5980    2.9470   11.1350 O.2    90  GLN90      -0.2717
     17  NE2       -7.8560    4.2510   11.6670 N.am   90  GLN90      -0.0878
     18  N        -11.2510   -0.4060   10.9080 N.3    92  HIS92      -0.1241
     19  CA       -10.3860   -1.3730   10.2750 C.3    92  HIS92       0.1621
     20  C        -10.4400   -2.6510   11.0890 C.2    92  HIS92       0.2264
     21  O        -11.0950   -2.7210   12.1160 O.2    92  HIS92      -0.2867
     22  CB        -8.9670   -0.8560   10.2280 C.3    92  HIS92       0.0745
     23  CG        -8.4110   -0.5750   11.5860 C.ar   92  HIS92       0.0817
     24  ND1       -8.5500    0.6330   12.2330 N.ar   92  HIS92      -0.2268
     25  CD2       -7.7640   -1.3940   12.4480 C.ar   92  HIS92       0.1154
     26  CE1       -7.9850    0.5550   13.4240 C.ar   92  HIS92       0.1986
     27  NE2       -7.5250   -0.6770   13.5900 N.ar   92  HIS92      -0.2212
     28  N         -8.0490   -6.3620   12.3730 N.3    94  HIS94      -0.1241
     29  CA        -6.8330   -7.1620   12.5070 C.3    94  HIS94       0.1621
     30  C         -7.2580   -8.6120   12.4040 C.2    94  HIS94       0.2264
     31  O         -8.3120   -8.9730   12.9280 O.2    94  HIS94      -0.2867
     32  CB        -6.1320   -6.9220   13.8480 C.3    94  HIS94       0.0745
     33  CG        -5.8720   -5.4820   14.1390 C.ar   94  HIS94       0.0817
     34  ND1       -4.6560   -4.8870   13.8980 N.ar   94  HIS94      -0.2268
     35  CD2       -6.7060   -4.4940   14.5480 C.ar   94  HIS94       0.1154
     36  CE1       -4.7320   -3.6020   14.2100 C.ar   94  HIS94       0.1986
     37  NE2       -5.9630   -3.3370   14.6150 N.ar   94  HIS94      -0.2212
     38  N        -12.0200   -2.6130   14.8010 N.3   117  HIS117     -0.1241
     39  CA       -11.7930   -1.3910   15.5480 C.3   117  HIS117      0.1621
     40  C        -12.4640   -0.2250   14.8780 C.2   117  HIS117      0.2264
     41  O        -12.1150    0.1430   13.7480 O.2   117  HIS117     -0.2867
     42  CB       -10.2910   -1.1200   15.6320 C.3   117  HIS117      0.0745
     43  CG        -9.5890   -2.0780   16.5240 C.ar  117  HIS117      0.0817
     44  ND1       -8.2230   -2.2930   16.4680 N.ar  117  HIS117     -0.2268
     45  CD2      -10.0710   -2.9130   17.4720 C.ar  117  HIS117      0.1154
     46  CE1       -7.8980   -3.1850   17.3850 C.ar  117  HIS117      0.1986
     47  NE2       -8.9980   -3.5820   18.0010 N.ar  117  HIS117     -0.2212
     48  N        -12.7570    3.5840   15.2120 N.3   119  VAL119     -0.1245
     49  CA       -11.9080    4.5970   15.8280 C.3   119  VAL119      0.1561
     50  C        -12.6300    5.9330   15.8470 C.2   119  VAL119      0.2260
     51  O        -13.1100    6.4070   14.8070 O.2   119  VAL119     -0.2867
     52  CB       -10.5940    4.7230   15.0380 C.3   119  VAL119      0.0252
     53  CG1       -9.6770    5.7510   15.7070 C.3   119  VAL119      0.0019
     54  CG2       -9.8770    3.3470   14.8950 C.3   119  VAL119      0.0019
     55  N         -8.2300   15.0840   14.7090 N.3   128  PHE128     -0.1241
     56  CA        -7.6900   13.7950   15.1150 C.3   128  PHE128      0.1605
     57  C         -6.2270   13.9070   15.5050 C.2   128  PHE128      0.2264
     58  O         -5.7880   13.2840   16.4720 O.2   128  PHE128     -0.2867
     59  CB        -7.8680   12.8150   13.9590 C.3   128  PHE128      0.0534
     60  CG        -7.3240   11.4690   14.2160 C.ar  128  PHE128     -0.0203
     61  CD1       -8.0710   10.5160   14.8720 C.ar  128  PHE128     -0.0042
     62  CD2       -6.0690   11.1430   13.7770 C.ar  128  PHE128     -0.0042
     63  CE1       -7.5790    9.2690   15.1270 C.ar  128  PHE128     -0.0003
     64  CE2       -5.5570    9.8640   13.9970 C.ar  128  PHE128     -0.0003
     65  CZ        -6.3240    8.9220   14.6860 C.ar  128  PHE128     -0.0000
     66  N         -4.8210   12.6310   19.2910 N.3   132  VAL132     -0.1245
     67  CA        -3.9160   11.5130   19.6400 C.3   132  VAL132      0.1561
     68  C         -2.8290   11.9270   20.6220 C.2   132  VAL132      0.2260
     69  O         -2.1500   11.0640   21.1830 O.2   132  VAL132     -0.2867
     70  CB        -3.2990   10.8180   18.4030 C.3   132  VAL132      0.0252
     71  CG1       -4.4070   10.2460   17.5600 C.3   132  VAL132      0.0019
     72  CG2       -2.3940   11.7500   17.6200 C.3   132  VAL132      0.0019
     73  N         -8.9890    9.5690   22.1320 N.3   138  LEU138     -0.1245
     74  CA        -9.6360    8.6080   21.2520 C.3   138  LEU138      0.1561
     75  C        -10.4950    7.6640   22.0520 C.2   138  LEU138      0.2260
     76  O        -10.2070    7.3950   23.2160 O.2   138  LEU138     -0.2867
     77  CB        -8.6130    7.7690   20.4860 C.3   138  LEU138      0.0270
     78  CG        -8.1570    8.2910   19.1310 C.3   138  LEU138      0.0019
     79  CD1       -7.5020    9.6370   19.3150 C.3   138  LEU138      0.0001
     80  CD2       -7.1970    7.3120   18.4580 C.3   138  LEU138      0.0001
     81  N        -11.8600    3.7790   21.0430 N.3   140  VAL140     -0.1245
     82  CA       -11.9380    2.7430   20.0300 C.3   140  VAL140      0.1561
     83  C        -12.8840    1.6690   20.5280 C.2   140  VAL140      0.2260
     84  O        -12.7300    1.1590   21.6510 O.2   140  VAL140     -0.2867
     85  CB       -10.5410    2.1490   19.6890 C.3   140  VAL140      0.0252
     86  CG1      -10.6840    1.0850   18.5730 C.3   140  VAL140      0.0019
     87  CG2       -9.5520    3.2160   19.2680 C.3   140  VAL140      0.0019
     88  N         -2.9370    3.1460   21.1500 N.3   195  LEU195     -0.1231
     89  CA        -2.9560    2.6110   19.8010 C.3   195  LEU195      0.1693
     90  C         -2.1990    1.2970   19.8490 C.2   195  LEU195      0.2593
     91  O         -1.1980    1.1520   20.5580 O.2   195  LEU195     -0.2718
     92  CB        -2.2260    3.5510   18.8270 C.3   195  LEU195      0.0284
     93  CG        -2.7620    4.9800   18.7420 C.3   195  LEU195      0.0019
     94  CD1       -1.8980    5.7740   17.7750 C.3   195  LEU195      0.0001
     95  CD2       -4.2370    5.0460   18.3690 C.3   195  LEU195      0.0001
     96  N         -2.6420    0.3300   19.0540 N.am  196  THR196     -0.1939
     97  CA        -2.0050   -0.9970   19.0440 C.3   196  THR196      0.2028
     98  C         -0.9820   -1.1370   17.9230 C.2   196  THR196      0.2643
     99  O         -0.4100   -2.2070   17.7470 O.2   196  THR196     -0.2714
    100  CB        -3.0270   -2.1240   18.8810 C.3   196  THR196      0.1808
    101  OG1       -3.5410   -2.0260   17.5520 O.3   196  THR196     -0.2208
    102  CG2       -4.1310   -2.0850   19.9620 C.3   196  THR196      0.0379
    103  N         -0.7340   -0.0600   17.1750 N.am  197  THR197     -0.1937
    104  CA         0.3820    0.0040   16.2370 C.3   197  THR197      0.2013
    105  C          1.1870    1.2540   16.5260 C.2   197  THR197      0.2484
    106  O          0.6840    2.2080   17.1600 O.2   197  THR197     -0.2729
    107  CB        -0.0370    0.0570   14.7500 C.3   197  THR197      0.1807
    108  OG1       -0.4910    1.3750   14.3870 O.3   197  THR197     -0.2208
    109  CG2       -1.1290   -0.9300   14.4690 C.3   197  THR197      0.0379
    110  N          2.4140    1.2830   15.9980 N.am  198  PRO198     -0.2715
    111  CA         3.1490    2.5530   16.0950 C.3   198  PRO198      0.1521
    112  C          2.2810    3.6750   15.5590 C.2   198  PRO198      0.2440
    113  O          1.5130    3.4760   14.5980 O.2   198  PRO198     -0.2731
    114  CB         4.3890    2.2760   15.2400 C.3   198  PRO198      0.0310
    115  CG         4.6470    0.8080   15.4920 C.3   198  PRO198      0.0237
    116  CD         3.2470    0.2070   15.4280 C.3   198  PRO198      0.0939
    117  N          2.3370    4.8400   16.1790 N.am  199  PRO199     -0.2727
    118  CA         3.2690    5.2420   17.2480 C.3   199  PRO199      0.1402
    119  C          2.8950    4.8760   18.7010 C.2   199  PRO199      0.2269
    120  O          3.5460    5.3240   19.6450 O.2   199  PRO199     -0.2865
    121  CB         3.2990    6.7640   17.1040 C.3   199  PRO199      0.0296
    122  CG         1.9480    7.1080   16.6030 C.3   199  PRO199      0.0237
    123  CD         1.5310    5.9660   15.6870 C.3   199  PRO199      0.0939
    124  N          0.6490    5.5310   20.7830 N.3   201  LEU201     -0.1245
    125  CA         0.3130    6.6160   21.6860 C.3   201  LEU201      0.1561
    126  C         -0.7450    6.2220   22.7090 C.2   201  LEU201      0.2260
    127  O         -1.7200    5.5390   22.3900 O.2   201  LEU201     -0.2867
    128  CB        -0.1380    7.8550   20.8820 C.3   201  LEU201      0.0270
    129  CG         0.9090    8.4450   19.9240 C.3   201  LEU201      0.0019
    130  CD1        0.3090    9.5110   19.0610 C.3   201  LEU201      0.0001
    131  CD2        2.0520    9.0270   20.7360 C.3   201  LEU201      0.0001
    132  N        -10.4740    2.3170   25.5860 N.3   206  TRP206     -0.1241
    133  CA       -10.8950    1.1140   24.9000 C.3   206  TRP206      0.1605
    134  C        -12.2370    0.6790   25.4300 C.2   206  TRP206      0.2264
    135  O        -12.4420    0.6000   26.6270 O.2   206  TRP206     -0.2867
    136  CB        -9.8660   -0.0260   25.0950 C.3   206  TRP206      0.0550
    137  CG        -8.7450    0.0940   24.0860 C.ar  206  TRP206      0.0003
    138  CD1       -7.5460    0.6900   24.2690 C.ar  206  TRP206      0.0946
    139  CD2       -8.8110   -0.3130   22.7230 C.ar  206  TRP206      0.0152
    140  NE1       -6.8520    0.6850   23.0840 N.ar  206  TRP206     -0.2442
    141  CE2       -7.5940    0.0460   22.1240 C.ar  206  TRP206      0.0810
    142  CE3       -9.7870   -0.9600   21.9400 C.ar  206  TRP206      0.0012
    143  CZ2       -7.3470   -0.1750   20.7680 C.ar  206  TRP206      0.0191
    144  CZ3       -9.5200   -1.2100   20.6240 C.ar  206  TRP206      0.0001
    145  CH2       -8.3140   -0.8410   20.0530 C.ar  206  TRP206      0.0015
@<TRIPOS>BOND
     1     4     3    2
     2     3     2    1
     3     1     2    1
     4     2     5    1
     5     5     6    1
     6     6     8   am
     7     6     7    2
     8    13    10    1
     9    13    14    1
    10    22    19    1
    11    22    23    1
    12    19    18    1
    13    19    20    1
    14    10    11    1
    15    10     9    1
    16    14    15    1
    17    20    21    2
    18    16    15    2
    19    11    12    2
    20    15    17   am
    21    23    24   ar
    22    23    25   ar
    23    24    26   ar
    24    28    29    1
    25    30    29    1
    26    30    31    2
    27    25    27   ar
    28    29    32    1
    29    26    27   ar
    30    41    40    2
    31    62    64   ar
    32    62    60   ar
    33    32    33    1
    34    34    33   ar
    35    34    36   ar
    36    59    60    1
    37    59    56    1
    38    64    65   ar
    39    33    35   ar
    40    36    37   ar
    41    60    61   ar
    42   108   107    1
    43   109   107    1
    44    35    37   ar
    45   113   112    2
    46    65    63   ar
    47    55    56    1
    48   107   104    1
    49    38    39    1
    50    51    50    2
    51    61    63   ar
    52    40    39    1
    53    54    52    1
    54    52    53    1
    55    52    49    1
    56    56    57    1
    57    48    49    1
    58   114   115    1
    59   114   111    1
    60   116   115    1
    61   116   110    1
    62    57    58    2
    63    39    42    1
    64   112   111    1
    65   112   117   am
    66    42    43    1
    67   123   117    1
    68   123   122    1
    69    49    50    1
    70   110   111    1
    71   110   105   am
    72   117   118    1
    73   104   105    1
    74   104   103    1
    75    44    43   ar
    76    44    46   ar
    77    43    45   ar
    78   105   106    2
    79   122   121    1
    80   121   118    1
    81   103    98   am
    82   118   119    1
    83    46    47   ar
    84    45    47   ar
    85   101   100    1
    86    71    70    1
    87    72    70    1
    88    99    98    2
    89    94    93    1
    90    98    97    1
    91    95    93    1
    92    70    67    1
    93    80    78    1
    94    86    85    1
    95   119   120    2
    96    93    92    1
    97    92    89    1
    98   100    97    1
    99   100   102    1
   100    97    96    1
   101    96    90   am
   102   130   129    1
   103    78    79    1
   104    78    77    1
   105    87    85    1
   106    66    67    1
   107    67    68    1
   108    85    82    1
   109    89    90    1
   110    89    88    1
   111    90    91    2
   112   129   131    1
   113   129   128    1
   114    82    83    1
   115    82    81    1
   116   145   144   ar
   117   145   143   ar
   118    77    74    1
   119    83    84    2
   120    68    69    2
   121   144   142   ar
   122   143   141   ar
   123   124   125    1
   124   128   125    1
   125    74    75    1
   126    74    73    1
   127   125   126    1
   128   142   139   ar
   129    75    76    2
   130   141   139   ar
   131   141   140   ar
   132   127   126    2
   133   139   137   ar
   134   140   138   ar
   135   137   138   ar
   136   137   136    1
   137   133   136    1
   138   133   134    1
   139   133   132    1
   140   134   135    2
