@<TRIPOS>MOLECULE
tmp/3n0qA00.pdb
 122 118 0 0 0
SMALL
GASTEIGER

@<TRIPOS>ATOM
      1  N         26.5820   42.9100    0.2340 N.3   193  ASN193     -0.1225
      2  CA        26.0230   42.8590    1.5620 C.3   193  ASN193      0.1785
      3  C         25.8010   44.2420    2.1630 C.2   193  ASN193      0.2597
      4  O         24.7800   44.4740    2.7850 O.2   193  ASN193     -0.2718
      5  CB        26.9300   42.0670    2.4930 C.3   193  ASN193      0.1169
      6  CG        26.2800   41.8440    3.8340 C.2   193  ASN193      0.2627
      7  OD1       25.3230   41.0840    3.9230 O.2   193  ASN193     -0.2716
      8  ND2       26.7580   42.5350    4.8630 N.am  193  ASN193     -0.0877
      9  N         26.7510   45.1590    1.9830 N.am  194  ASN194     -0.1974
     10  CA        26.6130   46.4950    2.5490 C.3   194  ASN194      0.1688
     11  C         25.4640   47.3050    1.9280 C.2   194  ASN194      0.2292
     12  O         24.8870   48.1730    2.5830 O.2   194  ASN194     -0.2864
     13  CB        27.9060   47.2790    2.4120 C.3   194  ASN194      0.1181
     14  CG        27.7670   48.7140    2.8590 C.2   194  ASN194      0.2629
     15  OD1       27.7490   49.6100    2.0360 O.2   194  ASN194     -0.2716
     16  ND2       27.6460   48.9320    4.1800 N.am  194  ASN194     -0.0877
     17  N         22.4580   46.4700    0.9610 N.3   196  GLU196     -0.1231
     18  CA        21.0800   46.0500    1.2560 C.3   196  GLU196      0.1699
     19  C         20.8300   45.8350    2.7380 C.2   196  GLU196      0.2592
     20  O         21.7550   45.5580    3.5150 O.2   196  GLU196     -0.2718
     21  CB        20.6380   44.7970    0.4890 C.3   196  GLU196      0.0402
     22  CG        21.5480   43.5860    0.5460 C.3   196  GLU196      0.1161
     23  CD        21.2810   42.5760    1.6530 C.2   196  GLU196      0.3649
     24  OE1       20.3440   42.7730    2.4630 O.co2 196  GLU196     -0.2457
     25  OE2       22.0320   41.5420    1.7000 O.co2 196  GLU196     -0.2457
     26  N         19.5520   45.9700    3.0930 N.am  197  CYS197     -0.1970
     27  CA        19.0890   45.6720    4.4610 C.3   197  CYS197      0.1712
     28  C         18.0080   44.5870    4.4250 C.2   197  CYS197      0.2296
     29  O         17.2630   44.3940    5.3880 O.2   197  CYS197     -0.2864
     30  CB        18.5840   46.9560    5.1360 C.3   197  CYS197      0.0983
     31  SG        19.1410   47.2090    6.9140 S.3   197  CYS197     -0.0798
     32  N         18.8000   41.5730    4.6700 N.3   199  HIS199     -0.1226
     33  CA        19.2580   40.6260    5.7260 C.3   199  HIS199      0.1752
     34  C         19.1320   41.1690    7.1580 C.2   199  HIS199      0.2596
     35  O         19.4870   40.4820    8.1130 O.2   199  HIS199     -0.2718
     36  CB        20.7210   40.2160    5.4910 C.3   199  HIS199      0.0759
     37  CG        21.7040   41.3400    5.6050 C.ar  199  HIS199      0.0818
     38  ND1       22.1750   42.0320    4.5070 N.ar  199  HIS199     -0.2268
     39  CD2       22.3030   41.8980    6.6890 C.ar  199  HIS199      0.1154
     40  CE1       23.0110   42.9750    4.9120 C.ar  199  HIS199      0.1986
     41  NE2       23.1100   42.9150    6.2320 N.ar  199  HIS199     -0.2212
     42  N         18.6700   42.4090    7.3020 N.am  200  CYS200     -0.1970
     43  CA        18.7030   43.0870    8.6040 C.3   200  CYS200      0.1712
     44  C         17.8120   42.4670    9.6650 C.2   200  CYS200      0.2296
     45  O         18.2600   42.2240   10.7860 O.2   200  CYS200     -0.2864
     46  CB        18.4050   44.5980    8.4420 C.3   200  CYS200      0.0983
     47  SG        19.7910   45.4100    7.6580 S.3   200  CYS200     -0.0798
     48  N         20.7030   41.5310   12.4750 N.3   204  HIS204     -0.1241
     49  CA        21.2260   42.6870   13.2560 C.3   204  HIS204      0.1621
     50  C         20.3390   43.2280   14.3810 C.2   204  HIS204      0.2264
     51  O         19.8320   44.3480   14.2690 O.2   204  HIS204     -0.2867
     52  CB        21.5010   43.8760   12.3170 C.3   204  HIS204      0.0745
     53  CG        22.4840   43.5960   11.2170 C.ar  204  HIS204      0.0817
     54  ND1       23.7030   42.9800   11.4250 N.ar  204  HIS204     -0.2268
     55  CD2       22.4450   43.9170    9.9020 C.ar  204  HIS204      0.1154
     56  CE1       24.3520   42.9020   10.2720 C.ar  204  HIS204      0.1986
     57  NE2       23.6150   43.4780    9.3380 N.ar  204  HIS204     -0.2212
     58  N         21.7690   46.9150   15.7940 N.3   207  LEU207     -0.1245
     59  CA        21.5960   47.9870   14.8030 C.3   207  LEU207      0.1561
     60  C         20.1150   48.3040   14.5540 C.2   207  LEU207      0.2260
     61  O         19.7350   49.4880   14.4450 O.2   207  LEU207     -0.2867
     62  CB        22.2950   47.6470   13.4800 C.3   207  LEU207      0.0270
     63  CG        22.3040   48.7680   12.4220 C.3   207  LEU207      0.0019
     64  CD1       23.1380   49.9510   12.8560 C.3   207  LEU207      0.0001
     65  CD2       22.8080   48.2070   11.0980 C.3   207  LEU207      0.0001
     66  N         18.3500   51.8160   13.3160 N.3   211  PHE211     -0.1241
     67  CA        18.5000   51.9200   11.8710 C.3   211  PHE211      0.1605
     68  C         17.3080   51.2900   11.1790 C.2   211  PHE211      0.2264
     69  O         17.0620   50.0890   11.3510 O.2   211  PHE211     -0.2867
     70  CB        19.7660   51.1870   11.4190 C.3   211  PHE211      0.0534
     71  CG        20.1510   51.4710    9.9880 C.ar  211  PHE211     -0.0203
     72  CD1       20.5990   52.7300    9.6220 C.ar  211  PHE211     -0.0042
     73  CD2       20.0090   50.4950    9.0020 C.ar  211  PHE211     -0.0042
     74  CE1       20.9470   53.0200    8.2670 C.ar  211  PHE211     -0.0003
     75  CE2       20.3510   50.7680    7.6540 C.ar  211  PHE211     -0.0003
     76  CZ        20.8240   52.0300    7.2930 C.ar  211  PHE211     -0.0000
     77  N         18.3950   52.7150    2.7120 N.3   218  THR218     -0.1218
     78  CA        19.6050   52.0610    2.2280 C.3   218  THR218      0.1862
     79  C         19.6980   51.9970    0.6780 C.2   218  THR218      0.2287
     80  O         20.7670   52.2410    0.1010 O.2   218  THR218     -0.2866
     81  CB        19.7160   50.6280    2.8580 C.3   218  THR218      0.1770
     82  OG1       18.4220   49.9970    2.8880 O.3   218  THR218     -0.2211
     83  CG2       20.2340   50.7280    4.2830 C.3   218  THR218      0.0375
     84  N         28.9530   56.5820    7.9610 N.3   298  HIS298     -0.1241
     85  CA        27.8050   57.1540    8.6620 C.3   298  HIS298      0.1621
     86  C         28.2840   58.3320    9.5080 C.2   298  HIS298      0.2264
     87  O         29.1160   58.1550   10.3850 O.2   298  HIS298     -0.2867
     88  CB        27.1470   56.1180    9.5750 C.3   298  HIS298      0.0745
     89  CG        26.5110   54.9780    8.8410 C.ar  298  HIS298      0.0817
     90  ND1       25.1630   54.9140    8.5920 N.ar  298  HIS298     -0.2268
     91  CD2       27.0490   53.8600    8.3020 C.ar  298  HIS298      0.1154
     92  CE1       24.8930   53.8020    7.9310 C.ar  298  HIS298      0.1986
     93  NE2       26.0220   53.1410    7.7460 N.ar  298  HIS298     -0.2212
     94  N         28.4050   48.9070   16.2560 N.3   344  TRP344     -0.1241
     95  CA        29.0240   48.5870   14.9760 C.3   344  TRP344      0.1605
     96  C         30.0410   47.4450   15.0300 C.2   344  TRP344      0.2264
     97  O         30.2540   46.7890   14.0100 O.2   344  TRP344     -0.2867
     98  CB        29.5610   49.8320   14.2590 C.3   344  TRP344      0.0550
     99  CG        28.5100   50.4630   13.3740 C.ar  344  TRP344      0.0003
    100  CD1       27.7260   51.5430   13.6720 C.ar  344  TRP344      0.0946
    101  CD2       28.0720   49.9950   12.0850 C.ar  344  TRP344      0.0152
    102  NE1       26.8320   51.7780   12.6480 N.ar  344  TRP344     -0.2442
    103  CE2       27.0550   50.8770   11.6430 C.ar  344  TRP344      0.0810
    104  CE3       28.4800   48.9480   11.2440 C.ar  344  TRP344      0.0012
    105  CZ2       26.4190   50.7280   10.4120 C.ar  344  TRP344      0.0191
    106  CZ3       27.8570   48.8090   10.0190 C.ar  344  TRP344      0.0001
    107  CH2       26.8580   49.7020    9.6040 C.ar  344  TRP344      0.0015
    108  N         27.5850   44.6130   14.6750 N.3   347  THR347     -0.1218
    109  CA        27.0470   44.6530   13.2840 C.3   347  THR347      0.1862
    110  C         28.0680   44.1920   12.2580 C.2   347  THR347      0.2287
    111  O         27.7480   43.3930   11.3600 O.2   347  THR347     -0.2866
    112  CB        26.5670   46.0670   12.9150 C.3   347  THR347      0.1770
    113  OG1       25.6380   46.5440   13.8890 O.3   347  THR347     -0.2211
    114  CG2       25.9020   46.0660   11.5470 C.3   347  THR347      0.0375
    115  N         27.6760   40.9750    9.7150 N.3   351  ASP351     -0.1239
    116  CA        27.8630   41.1180    8.2840 C.3   351  ASP351      0.1674
    117  C         28.9300   40.1370    7.8160 C.2   351  ASP351      0.2266
    118  O         28.7630   39.4440    6.8060 O.2   351  ASP351     -0.2867
    119  CB        28.2550   42.5490    7.9490 C.3   351  ASP351      0.1410
    120  CG        27.0780   43.5110    7.9850 C.2   351  ASP351      0.3668
    121  OD1       25.9180   43.1190    7.6690 O.co2 351  ASP351     -0.2456
    122  OD2       27.3270   44.6800    8.3170 O.co2 351  ASP351     -0.2456
@<TRIPOS>BOND
     1    80    79    2
     2     1     2    1
     3    21    22    1
     4    21    18    1
     5    22    23    1
     6    79    78    1
     7    17    18    1
     8    18    19    1
     9     2     3    1
    10     2     5    1
    11    23    25   ar
    12    23    24   ar
    13    11    10    1
    14    11    12    2
    15     9     3   am
    16     9    10    1
    17    15    14    2
    18     3     4    2
    19    78    77    1
    20    78    81    1
    21    13    10    1
    22    13    14    1
    23     5     6    1
    24    19    26   am
    25    19    20    2
    26    81    82    1
    27    81    83    1
    28    14    16   am
    29    26    27    1
    30     6     7    2
    31     6     8   am
    32    28    27    1
    33    28    29    2
    34    27    30    1
    35    38    40   ar
    36    38    37   ar
    37    32    33    1
    38    40    41   ar
    39    30    31    1
    40    36    37    1
    41    36    33    1
    42    37    39   ar
    43    33    34    1
    44    41    39   ar
    45   118   117    2
    46    31    47    1
    47    34    42   am
    48    34    35    2
    49    76    75   ar
    50    76    74   ar
    51    42    43    1
    52    75    73   ar
    53    47    46    1
    54   121   120   ar
    55    93    92   ar
    56    93    91   ar
    57   117   116    1
    58    92    90   ar
    59   119   120    1
    60   119   116    1
    61    84    85    1
    62   120   122   ar
    63    74    72   ar
    64   116   115    1
    65    91    89   ar
    66    46    43    1
    67    90    89   ar
    68    43    44    1
    69    85    86    1
    70    85    88    1
    71    89    88    1
    72    73    71   ar
    73    57    55   ar
    74    57    56   ar
    75    86    87    2
    76   107   106   ar
    77   107   105   ar
    78    72    71   ar
    79    44    45    2
    80    55    53   ar
    81    71    70    1
    82   106   104   ar
    83    56    54   ar
    84   105   103   ar
    85    65    63    1
    86    68    69    2
    87    68    67    1
    88    53    54   ar
    89    53    52    1
    90   104   101   ar
    91   111   110    2
    92    70    67    1
    93   114   112    1
    94   103   101   ar
    95   103   102   ar
    96    67    66    1
    97   101    99   ar
    98   110   109    1
    99    52    49    1
   100    63    64    1
   101    63    62    1
   102    48    49    1
   103   102   100   ar
   104   112   109    1
   105   112   113    1
   106    49    50    1
   107   109   108    1
   108    99   100   ar
   109    99    98    1
   110    62    59    1
   111    97    96    2
   112    98    95    1
   113    51    50    2
   114    61    60    2
   115    60    59    1
   116    59    58    1
   117    95    96    1
   118    95    94    1
