@<TRIPOS>MOLECULE
tmp/3n0yA00.pdb
 227 209 0 0 0
SMALL
GASTEIGER

@<TRIPOS>ATOM
      1  N        -10.8030   -3.3130   19.4280 N.3     2  PHE2       -0.1241
      2  CA        -9.4270   -3.2390   18.8790 C.3     2  PHE2        0.1605
      3  C         -8.5740   -4.4340   19.2420 C.2     2  PHE2        0.2264
      4  O         -7.3940   -4.3060   19.5150 O.2     2  PHE2       -0.2867
      5  CB        -8.7410   -1.9040   19.2720 C.3     2  PHE2        0.0534
      6  CG        -9.4160   -0.6960   18.6780 C.ar    2  PHE2       -0.0203
      7  CD1      -10.2840    0.0850   19.4520 C.ar    2  PHE2       -0.0042
      8  CD2       -9.2120   -0.3560   17.3330 C.ar    2  PHE2       -0.0042
      9  CE1      -10.9240    1.1950   18.9000 C.ar    2  PHE2       -0.0003
     10  CE2       -9.8520    0.7580   16.7710 C.ar    2  PHE2       -0.0003
     11  CZ       -10.7170    1.5250   17.5520 C.ar    2  PHE2       -0.0000
     12  N         -6.6300   -7.9870   18.6810 N.3     4  GLY4       -0.1225
     13  CA        -5.9640   -8.8280   17.6930 C.3     4  GLY4        0.1811
     14  C         -4.6090   -8.2800   17.2920 C.2     4  GLY4        0.2280
     15  O         -4.3540   -7.0910   17.4650 O.2     4  GLY4       -0.2866
     16  N         -4.4950   -6.2360   11.6140 N.3     7  GLU7       -0.1245
     17  CA        -5.5380   -5.2960   11.2140 C.3     7  GLU7        0.1567
     18  C         -5.6110   -5.4440    9.6940 C.2     7  GLU7        0.2260
     19  O         -4.7050   -4.9960    8.9590 O.2     7  GLU7       -0.2867
     20  CB        -5.1690   -3.8520   11.6140 C.3     7  GLU7        0.0388
     21  CG        -6.3000   -2.9030   11.3210 C.3     7  GLU7        0.1160
     22  CD        -5.9280   -1.4390   11.3880 C.2     7  GLU7        0.3649
     23  OE1       -4.7410   -1.0810   11.1380 O.co2   7  GLU7       -0.2457
     24  OE2       -6.8670   -0.6530   11.6640 O.co2   7  GLU7       -0.2457
     25  N         -6.9140   -4.3750    6.2920 N.3     9  GLU9       -0.1245
     26  CA        -7.3540   -3.0070    5.9690 C.3     9  GLU9        0.1567
     27  C         -7.4030   -2.8210    4.4510 C.2     9  GLU9        0.2260
     28  O         -6.6050   -3.4420    3.7310 O.2     9  GLU9       -0.2867
     29  CB        -6.3700   -2.0090    6.6260 C.3     9  GLU9        0.0388
     30  CG        -6.9090   -0.6560    6.9940 C.3     9  GLU9        0.1160
     31  CD        -5.8220    0.4260    7.1920 C.2     9  GLU9        0.3649
     32  OE1       -5.0090    0.3610    8.1610 O.co2   9  GLU9       -0.2457
     33  OE2       -5.7840    1.3710    6.3610 O.co2   9  GLU9       -0.2457
     34  N         -7.6390    0.8550    2.1250 N.3    11  LYS11      -0.1245
     35  CA        -7.6680    2.3060    2.2340 C.3    11  LYS11       0.1561
     36  C         -8.0130    2.9370    0.8740 C.2    11  LYS11       0.2260
     37  O         -7.5470    2.4730   -0.1550 O.2    11  LYS11      -0.2867
     38  CB        -6.3400    2.8770    2.7250 C.3    11  LYS11       0.0271
     39  CG        -6.3120    4.3860    2.6750 C.3    11  LYS11       0.0035
     40  CD        -5.3960    5.0870    3.6820 C.3    11  LYS11       0.0206
     41  CE        -3.9110    5.0270    3.3710 C.3    11  LYS11       0.1093
     42  NZ        -3.3530    3.8020    4.0970 N.3    11  LYS11      -0.1314
     43  N        -17.2810    6.0910   17.1070 N.3    32  PHE32      -0.1241
     44  CA       -16.3730    5.8320   18.2070 C.3    32  PHE32       0.1605
     45  C        -15.6380    7.0860   18.6720 C.2    32  PHE32       0.2264
     46  O        -15.7370    7.4970   19.8420 O.2    32  PHE32      -0.2867
     47  CB       -15.3890    4.6950   17.8520 C.3    32  PHE32       0.0534
     48  CG       -14.3700    4.4250   18.9300 C.ar   32  PHE32      -0.0203
     49  CD1      -13.0480    4.8030   18.7680 C.ar   32  PHE32      -0.0042
     50  CD2      -14.7430    3.8150   20.1320 C.ar   32  PHE32      -0.0042
     51  CE1      -12.0800    4.5780   19.7770 C.ar   32  PHE32      -0.0003
     52  CE2      -13.7970    3.5870   21.1520 C.ar   32  PHE32      -0.0003
     53  CZ       -12.4530    3.9670   20.9720 C.ar   32  PHE32      -0.0000
     54  N          1.1940   11.6160   15.4090 N.3    40  ASP40      -0.1239
     55  CA         1.9510   10.3580   15.4640 C.3    40  ASP40       0.1674
     56  C          3.4160   10.6560   15.3820 C.2    40  ASP40       0.2266
     57  O          3.8440   11.2130   14.3640 O.2    40  ASP40      -0.2867
     58  CB         1.6060    9.5100   14.2410 C.3    40  ASP40       0.1410
     59  CG         0.2590    8.8080   14.3650 C.2    40  ASP40       0.3668
     60  OD1       -0.3720    8.8880   15.4410 O.co2  40  ASP40      -0.2456
     61  OD2       -0.1380    8.1460   13.3970 O.co2  40  ASP40      -0.2456
     62  N          6.8600    9.0370   14.8940 N.3    42  TYR42      -0.1241
     63  CA         7.5200    7.7890   14.4970 C.3    42  TYR42       0.1605
     64  C          8.9380    7.7600   15.0250 C.2    42  TYR42       0.2264
     65  O          9.6850    8.7400   14.9020 O.2    42  TYR42      -0.2867
     66  CB         7.5380    7.7150   12.9950 C.3    42  TYR42       0.0534
     67  CG         6.2170    7.3150   12.3620 C.ar   42  TYR42      -0.0201
     68  CD1        5.1300    8.1670   12.3330 C.ar   42  TYR42      -0.0009
     69  CD2        6.1000    6.0580   11.7270 C.ar   42  TYR42      -0.0009
     70  CE1        3.9210    7.8120   11.6920 C.ar   42  TYR42       0.0417
     71  CE2        4.9000    5.6610   11.1210 C.ar   42  TYR42       0.0417
     72  CZ         3.7990    6.5670   11.0990 C.ar   42  TYR42       0.1957
     73  OH         2.6050    6.2210   10.5040 O.3    42  TYR42      -0.2866
     74  N          1.3050    7.7120   19.5870 N.3    60  ARG60      -0.1245
     75  CA         0.1710    8.4640   19.0520 C.3    60  ARG60       0.1563
     76  C         -0.5830    9.2310   20.1710 C.2    60  ARG60       0.2260
     77  O         -0.8930    8.6560   21.1960 O.2    60  ARG60      -0.2867
     78  CB        -0.7840    7.5050   18.3440 C.3    60  ARG60       0.0307
     79  CG        -2.1450    8.1450   18.0180 C.3    60  ARG60       0.0489
     80  CD        -3.0530    7.2730   17.1010 C.3    60  ARG60       0.2205
     81  NE        -2.3920    7.0580   15.8530 N.pl3  60  ARG60      -0.0865
     82  CZ        -2.6190    6.0400   15.0290 C.cat  60  ARG60       0.5346
     83  NH1       -3.6100    5.1310   15.2730 N.pl3  60  ARG60       0.1354
     84  NH2       -1.9000    5.9370   13.9320 N.pl3  60  ARG60       0.1354
     85  N         -4.1450   11.4700   20.6450 N.3    62  MET62      -0.1245
     86  CA        -5.3900   11.8360   19.9820 C.3    62  MET62       0.1570
     87  C         -6.1430   12.8130   20.8850 C.2    62  MET62       0.2261
     88  O         -6.3810   12.4900   22.0380 O.2    62  MET62      -0.2867
     89  CB        -6.2900   10.6100   19.8090 C.3    62  MET62       0.0387
     90  CG        -5.6380    9.4550   19.0590 C.3    62  MET62       0.0595
     91  SD        -6.7330    7.9860   19.0710 S.3    62  MET62      -0.1393
     92  CE        -5.6330    6.7000   19.5820 C.3    62  MET62       0.0692
     93  N         -6.8250    9.8000   24.1450 N.3    67  ILE67      -0.1245
     94  CA        -6.2340    8.4700   23.9440 C.3    67  ILE67       0.1561
     95  C         -4.7050    8.6470   23.6140 C.2    67  ILE67       0.2260
     96  O         -4.3340    9.5450   22.8730 O.2    67  ILE67      -0.2867
     97  CB        -7.0000    7.6710   22.8400 C.3    67  ILE67       0.0252
     98  CG1       -8.5010    7.4390   23.2070 C.3    67  ILE67       0.0019
     99  CG2       -6.3500    6.2830   22.6600 C.3    67  ILE67       0.0019
    100  CD1       -9.3590    6.9830   22.0330 C.3    67  ILE67       0.0001
    101  N         -1.4310    6.0950   22.5980 N.3    69  LEU69      -0.1245
    102  CA        -1.1020    4.7200   22.1990 C.3    69  LEU69       0.1561
    103  C          0.3740    4.5940   21.8310 C.2    69  LEU69       0.2260
    104  O          0.9420    5.5310   21.2400 O.2    69  LEU69      -0.2867
    105  CB        -1.9130    4.3450   20.9480 C.3    69  LEU69       0.0270
    106  CG        -3.4180    4.2240   21.0980 C.3    69  LEU69       0.0019
    107  CD1       -4.0730    4.0390   19.7650 C.3    69  LEU69       0.0001
    108  CD2       -3.7580    3.0550   22.0000 C.3    69  LEU69       0.0001
    109  N          2.3350    1.9670   19.4050 N.3    71  ILE71      -0.1245
    110  CA         1.9320    1.1150   18.2520 C.3    71  ILE71       0.1561
    111  C          3.1790    0.5720   17.6040 C.2    71  ILE71       0.2260
    112  O          4.1290    1.3110   17.3670 O.2    71  ILE71      -0.2867
    113  CB         1.1400    1.9430   17.1540 C.3    71  ILE71       0.0252
    114  CG1       -0.1030    2.6150   17.7760 C.3    71  ILE71       0.0019
    115  CG2        0.7440    1.0300   15.9710 C.3    71  ILE71       0.0019
    116  CD1       -0.6150    3.7190   16.8980 C.3    71  ILE71       0.0001
    117  N          3.9050   -1.5210   14.1970 N.3    73  LYS73      -0.1245
    118  CA         3.3290   -1.9480   12.9230 C.3    73  LYS73       0.1561
    119  C          4.3570   -2.7940   12.1700 C.2    73  LYS73       0.2260
    120  O          5.4980   -2.4270   12.0420 O.2    73  LYS73      -0.2867
    121  CB         2.9390   -0.7180   12.1030 C.3    73  LYS73       0.0271
    122  CG         1.7540   -0.0100   12.6200 C.3    73  LYS73       0.0035
    123  CD         1.2440    1.0550   11.6130 C.3    73  LYS73       0.0206
    124  CE         1.8540    2.4390   11.9190 C.3    73  LYS73       0.1093
    125  NZ         1.5940    3.4280   10.7860 N.3    73  LYS73      -0.1314
    126  N         -0.0730   -5.5400   13.2800 N.3    80  CYS80      -0.1221
    127  CA        -0.1990   -4.2660   13.9980 C.3    80  CYS80       0.1808
    128  C         -0.6540   -4.5400   15.4250 C.2    80  CYS80       0.2601
    129  O         -1.6630   -5.2460   15.6640 O.2    80  CYS80      -0.2717
    130  CB        -1.2360   -3.3960   13.2880 C.3    80  CYS80       0.0970
    131  SG        -1.1400   -1.6560   13.8260 S.3    80  CYS80      -0.0800
    132  N          0.0730   -3.9840   16.4120 N.am   81  GLU81      -0.1965
    133  CA        -0.3550   -4.1450   17.7790 C.3    81  GLU81       0.1733
    134  C         -0.1280   -2.7960   18.4490 C.2    81  GLU81       0.2616
    135  O          0.7970   -2.0630   18.0700 O.2    81  GLU81      -0.2715
    136  CB         0.4870   -5.2030   18.5090 C.3    81  GLU81       0.0429
    137  CG         0.2820   -6.6200   17.9950 C.3    81  GLU81       0.1163
    138  CD         0.9720   -7.6160   18.8980 C.2    81  GLU81       0.3649
    139  OE1        2.1740   -7.9000   18.6740 O.co2  81  GLU81      -0.2457
    140  OE2        0.2700   -8.1190   19.7930 O.co2  81  GLU81      -0.2457
    141  N         -1.0140   -2.4730   19.3790 N.am   82  ALA82      -0.1977
    142  CA        -0.9390   -1.2630   20.1470 C.3    82  ALA82       0.1597
    143  C         -1.2530   -1.4540   21.6070 C.2    82  ALA82       0.2287
    144  O         -1.9610   -2.3880   21.9880 O.2    82  ALA82      -0.2864
    145  CB        -1.9110   -0.2400   19.5690 C.3    82  ALA82       0.0319
    146  N         -2.4640    0.9560   25.0290 N.3    84  ASN84      -0.1240
    147  CA        -2.7330    2.2380   25.7040 C.3    84  ASN84       0.1653
    148  C         -1.6150    2.5470   26.6520 C.2    84  ASN84       0.2266
    149  O         -1.0320    1.6440   27.3040 O.2    84  ASN84      -0.2867
    150  CB        -4.1180    2.2550   26.3880 C.3    84  ASN84       0.1155
    151  CG        -5.2610    2.3880   25.3830 C.2    84  ASN84       0.2627
    152  OD1       -5.6820    3.5020   25.0300 O.2    84  ASN84      -0.2716
    153  ND2       -5.7610    1.2420   24.8840 N.am   84  ASN84      -0.0877
    154  N         -2.8750   14.1970   11.4170 N.3   108  LYS108     -0.1245
    155  CA        -4.1140   14.0390   10.6730 C.3   108  LYS108      0.1561
    156  C         -5.3290   14.3310   11.5540 C.2   108  LYS108      0.2260
    157  O         -5.2130   14.3620   12.7800 O.2   108  LYS108     -0.2867
    158  CB        -4.2610   12.6320   10.0570 C.3   108  LYS108      0.0271
    159  CG        -4.5900   11.5250   11.0730 C.3   108  LYS108      0.0035
    160  CD        -4.6120   10.1370   10.3500 C.3   108  LYS108      0.0206
    161  CE        -3.2790    9.3770   10.4180 C.3   108  LYS108      0.1093
    162  NZ        -3.0500    8.8580   11.8220 N.3   108  LYS108     -0.1314
    163  N         -8.8430   12.5860   12.3350 N.3   110  ARG110     -0.1245
    164  CA        -9.4470   11.2490   12.1940 C.3   110  ARG110      0.1563
    165  C        -10.7750   11.0670   12.9560 C.2   110  ARG110      0.2260
    166  O        -10.9080   11.4970   14.1250 O.2   110  ARG110     -0.2867
    167  CB        -8.4590   10.1910   12.6890 C.3   110  ARG110      0.0307
    168  CG        -9.0540    8.7580   12.6910 C.3   110  ARG110      0.0489
    169  CD        -7.9620    7.7560   12.9080 C.3   110  ARG110      0.2205
    170  NE        -7.2990    7.4880   11.6120 N.pl3 110  ARG110     -0.0865
    171  CZ        -6.3160    6.6360   11.4420 C.cat 110  ARG110      0.5346
    172  NH1       -5.8450    6.4800   10.2120 N.pl3 110  ARG110      0.1354
    173  NH2       -5.8020    5.9950   12.4850 N.pl3 110  ARG110      0.1354
    174  N        -13.5850    7.7000   13.6810 N.3   112  ILE112     -0.1245
    175  CA       -13.6390    6.2250   13.5750 C.3   112  ILE112      0.1561
    176  C        -15.0840    5.8360   13.8450 C.2   112  ILE112      0.2260
    177  O        -15.6860    6.3160   14.8250 O.2   112  ILE112     -0.2867
    178  CB       -12.7090    5.5460   14.6380 C.3   112  ILE112      0.0252
    179  CG1      -11.2170    5.8770   14.3780 C.3   112  ILE112      0.0019
    180  CG2      -12.9640    3.9900   14.6620 C.3   112  ILE112      0.0019
    181  CD1      -10.2430    5.4920   15.5250 C.3   112  ILE112      0.0001
    182  N        -10.6190    4.1700    5.5050 N.3   133  GLU133     -0.1245
    183  CA       -10.0870    2.8050    5.5850 C.3   133  GLU133      0.1567
    184  C        -11.1740    1.8900    6.1210 C.2   133  GLU133      0.2260
    185  O        -11.8190    2.2490    7.1120 O.2   133  GLU133     -0.2867
    186  CB        -8.8220    2.7030    6.4990 C.3   133  GLU133      0.0388
    187  CG        -7.7470    3.7940    6.2730 C.3   133  GLU133      0.1160
    188  CD        -6.6030    3.7680    7.2980 C.2   133  GLU133      0.3649
    189  OE1       -5.4400    4.0630    6.8950 O.co2 133  GLU133     -0.2457
    190  OE2       -6.8110    3.4360    8.4960 O.co2 133  GLU133     -0.2457
    191  N        -10.2340   -6.5190   12.6690 N.3   137  MET137     -0.1245
    192  CA        -9.2000   -6.9710   13.5710 C.3   137  MET137      0.1570
    193  C         -9.3350   -8.4640   13.6080 C.2   137  MET137      0.2261
    194  O        -10.4820   -8.9750   13.5070 O.2   137  MET137     -0.2867
    195  CB        -9.5190   -6.4670   14.9920 C.3   137  MET137      0.0387
    196  CG        -9.8420   -5.0120   15.0070 C.3   137  MET137      0.0595
    197  SD        -8.3970   -4.2620   14.3630 S.3   137  MET137     -0.1393
    198  CE        -9.0760   -3.3120   12.9940 C.3   137  MET137      0.0692
    199  N          0.9410    3.4210    2.6300 N.3   169  SER169     -0.1202
    200  CA         0.7890    3.9820    3.9800 C.3   169  SER169      0.2020
    201  C          0.9170    5.4930    3.9540 C.2   169  SER169      0.2619
    202  O          1.4810    6.0790    2.9910 O.2   169  SER169     -0.2717
    203  CB         1.8570    3.4230    4.9190 C.3   169  SER169      0.2103
    204  OG         3.1300    3.8620    4.5120 O.3   169  SER169     -0.2182
    205  N          0.4660    6.1520    5.0320 N.am  170  TYR170     -0.1961
    206  CA         0.7280    7.5960    5.1000 C.3   170  TYR170      0.1771
    207  C          2.2310    7.9040    5.0750 C.2   170  TYR170      0.2619
    208  O          2.6240    8.8190    4.4030 O.2   170  TYR170     -0.2715
    209  CB         0.0460    8.2490    6.3130 C.3   170  TYR170      0.0574
    210  CG        -1.4440    8.1970    6.1820 C.ar  170  TYR170     -0.0198
    211  CD1       -2.2370    7.6630    7.1830 C.ar  170  TYR170     -0.0009
    212  CD2       -2.0720    8.6380    5.0150 C.ar  170  TYR170     -0.0009
    213  CE1       -3.6430    7.6260    7.0580 C.ar  170  TYR170      0.0417
    214  CE2       -3.4560    8.6090    4.8770 C.ar  170  TYR170      0.0417
    215  CZ        -4.2330    8.1040    5.9140 C.ar  170  TYR170      0.1957
    216  OH        -5.5840    8.0490    5.7910 O.3   170  TYR170     -0.2866
    217  N          3.0990    7.1210    5.7570 N.am  171  ARG171     -0.1977
    218  CA         4.5350    7.4610    5.6930 C.3   171  ARG171      0.1597
    219  C          5.0820    7.3520    4.2540 C.2   171  ARG171      0.2287
    220  O          5.8940    8.1580    3.8190 O.2   171  ARG171     -0.2864
    221  CB         5.3950    6.6170    6.6630 C.3   171  ARG171      0.0334
    222  CG         5.4810    5.1500    6.4150 C.3   171  ARG171      0.0492
    223  CD         6.5050    4.4960    7.4090 C.3   171  ARG171      0.2205
    224  NE         7.8860    5.0140    7.2930 N.pl3 171  ARG171     -0.0865
    225  CZ         8.8790    4.7450    8.1720 C.cat 171  ARG171      0.5346
    226  NH1       10.1010    5.2450    8.0150 N.pl3 171  ARG171      0.1354
    227  NH2        8.6480    3.9420    9.2210 N.pl3 171  ARG171      0.1354
@<TRIPOS>BOND
     1    37    36    2
     2    36    35    1
     3    34    35    1
     4    35    38    1
     5   199   200    1
     6    39    38    1
     7    39    40    1
     8   202   201    2
     9    41    40    1
    10    41    42    1
    11    28    27    2
    12   220   219    2
    13   201   200    1
    14   201   205   am
    15   200   203    1
    16   219   218    1
    17   208   207    2
    18    27    26    1
    19   204   203    1
    20   214   212   ar
    21   214   215   ar
    22   212   210   ar
    23   205   206    1
    24   207   206    1
    25   207   217   am
    26   206   209    1
    27   182   183    1
    28   183   184    1
    29   183   186    1
    30   218   217    1
    31   218   221    1
    32   216   215    1
    33   215   213   ar
    34    26    25    1
    35    26    29    1
    36   184   185    2
    37   210   209    1
    38   210   211   ar
    39   187   186    1
    40   187   188    1
    41    33    31   ar
    42   222   221    1
    43   222   223    1
    44    29    30    1
    45   189   188   ar
    46    30    31    1
    47   213   211   ar
    48    31    32   ar
    49   224   223    1
    50   224   225    2
    51   188   190   ar
    52   226   225    1
    53   225   227    1
    54    19    18    2
    55    18    17    1
    56   158   155    1
    57   158   159    1
    58   172   171    1
    59   160   161    1
    60   160   159    1
    61   161   162    1
    62    73    72    1
    63   155   154    1
    64   155   156    1
    65   125   124    1
    66    72    71   ar
    67    72    70   ar
    68    71    69   ar
    69    23    22   ar
    70    17    16    1
    71    17    20    1
    72    21    22    1
    73    21    20    1
    74    22    24   ar
    75   171   170    2
    76   171   173    1
    77   156   157    2
    78   170   169    1
    79   123   124    1
    80   123   122    1
    81    70    68   ar
    82    69    67   ar
    83   120   119    2
    84   121   122    1
    85   121   118    1
    86   119   118    1
    87   164   163    1
    88   164   167    1
    89   164   165    1
    90    68    67   ar
    91    67    66    1
    92   191   192    1
    93   167   168    1
    94   168   169    1
    95   118   117    1
    96   165   166    2
    97   198   197    1
    98    66    63    1
    99   126   127    1
   100   130   131    1
   101   130   127    1
   102    61    59   ar
   103   194   193    2
   104   192   193    1
   105   192   195    1
   106   175   174    1
   107   175   176    1
   108   175   178    1
   109   176   177    2
   110    84    82    1
   111   127   128    1
   112    58    59    1
   113    58    55    1
   114   197   196    1
   115    57    56    2
   116    59    60   ar
   117   179   178    1
   118   179   181    1
   119    63    62    1
   120    63    64    1
   121   178   180    1
   122    65    64    2
   123   195   196    1
   124    82    83    1
   125    82    81    2
   126    56    55    1
   127    54    55    1
   128   128   129    2
   129   128   132   am
   130    81    80    1
   131   115   113    1
   132   132   133    1
   133    10     8   ar
   134    10    11   ar
   135   116   114    1
   136    80    79    1
   137    43    44    1
   138   113   114    1
   139   113   110    1
   140    14    15    2
   141    14    13    1
   142     8     6   ar
   143   112   111    2
   144    11     9   ar
   145   111   110    1
   146    13    12    1
   147   133   134    1
   148   133   136    1
   149    47    44    1
   150    47    48    1
   151   137   136    1
   152   137   138    1
   153    79    78    1
   154   135   134    2
   155    44    45    1
   156   110   109    1
   157    78    75    1
   158   134   141   am
   159    45    46    2
   160   139   138   ar
   161     6     5    1
   162     6     7   ar
   163    49    48   ar
   164    49    51   ar
   165     2     3    1
   166     2     5    1
   167     2     1    1
   168   138   140   ar
   169     9     7   ar
   170    48    50   ar
   171    75    74    1
   172    75    76    1
   173    90    91    1
   174    90    89    1
   175    91    92    1
   176     3     4    2
   177   141   142    1
   178   145   142    1
   179   107   106    1
   180    51    53   ar
   181    89    86    1
   182    86    85    1
   183    86    87    1
   184    50    52   ar
   185   142   143    1
   186    76    77    2
   187    87    88    2
   188   105   106    1
   189   105   102    1
   190    53    52   ar
   191   106   108    1
   192   104   103    2
   193   143   144    2
   194   103   102    1
   195   100    98    1
   196   102   101    1
   197    99    97    1
   198    97    98    1
   199    97    94    1
   200    96    95    2
   201    95    94    1
   202    94    93    1
   203   153   151   am
   204   146   147    1
   205   152   151    2
   206   151   150    1
   207   147   150    1
   208   147   148    1
   209   148   149    2
