@<TRIPOS>MOLECULE
tmp/3n0zA00.pdb
 220 200 0 0 0
SMALL
GASTEIGER

@<TRIPOS>ATOM
      1  N        -10.6140   -3.5100   19.0520 N.3     1  PHE1       -0.1241
      2  CA        -9.1610   -3.4170   18.6500 C.3     1  PHE1        0.1605
      3  C         -8.2870   -4.5370   19.1990 C.2     1  PHE1        0.2264
      4  O         -7.1290   -4.2980   19.5490 O.2     1  PHE1       -0.2867
      5  CB        -8.5540   -2.0600   19.0740 C.3     1  PHE1        0.0534
      6  CG        -9.1950   -0.8750   18.4180 C.ar    1  PHE1       -0.0203
      7  CD1      -10.0910   -0.0740   19.1360 C.ar    1  PHE1       -0.0042
      8  CD2       -8.9010   -0.5500   17.0880 C.ar    1  PHE1       -0.0042
      9  CE1      -10.6960    1.0250   18.5420 C.ar    1  PHE1       -0.0003
     10  CE2       -9.5090    0.5630   16.4830 C.ar    1  PHE1       -0.0003
     11  CZ       -10.4090    1.3400   17.2080 C.ar    1  PHE1       -0.0000
     12  N         -4.1490   -6.3080   11.5370 N.3     6  GLU6       -0.1245
     13  CA        -5.2090   -5.3910   11.1580 C.3     6  GLU6        0.1567
     14  C         -5.3670   -5.5740    9.6660 C.2     6  GLU6        0.2260
     15  O         -4.5060   -5.1660    8.8820 O.2     6  GLU6       -0.2867
     16  CB        -4.8360   -3.9150   11.4740 C.3     6  GLU6        0.0388
     17  CG        -6.0480   -2.9730   11.3600 C.3     6  GLU6        0.1160
     18  CD        -5.7390   -1.4610   11.3220 C.2     6  GLU6        0.3649
     19  OE1       -4.6160   -1.0340   10.9060 O.co2   6  GLU6       -0.2457
     20  OE2       -6.6920   -0.7080   11.6840 O.co2   6  GLU6       -0.2457
     21  N         -6.7820   -4.4460    6.3670 N.3     8  GLU8       -0.1245
     22  CA        -7.3680   -3.1410    5.9550 C.3     8  GLU8        0.1567
     23  C         -7.3920   -2.9590    4.4420 C.2     8  GLU8        0.2260
     24  O         -6.6350   -3.6390    3.7150 O.2     8  GLU8       -0.2867
     25  CB        -6.7730   -1.8760    6.6610 C.3     8  GLU8        0.0388
     26  CG        -5.4560   -2.0320    7.3970 C.3     8  GLU8        0.1160
     27  CD        -4.4820   -0.7950    7.2780 C.2     8  GLU8        0.3649
     28  OE1       -4.8960    0.4050    7.4950 O.co2   8  GLU8       -0.2457
     29  OE2       -3.2810   -1.0410    6.9970 O.co2   8  GLU8       -0.2457
     30  N         -7.5810    0.7090    2.1560 N.3    10  LYS10      -0.1245
     31  CA        -7.6040    2.1280    2.2300 C.3    10  LYS10       0.1561
     32  C         -7.9810    2.7910    0.9020 C.2    10  LYS10       0.2260
     33  O         -7.5710    2.3120   -0.1640 O.2    10  LYS10      -0.2867
     34  CB        -6.2350    2.6380    2.6390 C.3    10  LYS10       0.0271
     35  CG        -6.2670    4.0690    2.8860 C.3    10  LYS10       0.0035
     36  CD        -5.2050    4.4480    3.8620 C.3    10  LYS10       0.0206
     37  CE        -4.1370    5.2590    3.2120 C.3    10  LYS10       0.1093
     38  NZ        -3.0170    5.1740    4.1550 N.3    10  LYS10      -0.1314
     39  N        -17.2880    6.0100   17.1090 N.3    31  PHE31      -0.1241
     40  CA       -16.3880    5.6910   18.1970 C.3    31  PHE31       0.1605
     41  C        -15.6280    6.9090   18.6860 C.2    31  PHE31       0.2264
     42  O        -15.7300    7.2700   19.8580 O.2    31  PHE31      -0.2867
     43  CB       -15.4210    4.5390   17.8500 C.3    31  PHE31       0.0534
     44  CG       -14.3890    4.2690   18.9200 C.ar   31  PHE31      -0.0203
     45  CD1      -13.0320    4.4830   18.6750 C.ar   31  PHE31      -0.0042
     46  CD2      -14.7710    3.7670   20.1750 C.ar   31  PHE31      -0.0042
     47  CE1      -12.0580    4.2350   19.6680 C.ar   31  PHE31      -0.0003
     48  CE2      -13.8270    3.4990   21.1520 C.ar   31  PHE31      -0.0003
     49  CZ       -12.4600    3.7390   20.9120 C.ar   31  PHE31      -0.0000
     50  N         -4.8440   13.5760   15.5180 N.3    37  GLU37      -0.1245
     51  CA        -3.9020   12.5400   15.9100 C.3    37  GLU37       0.1567
     52  C         -2.5140   12.9420   15.4830 C.2    37  GLU37       0.2260
     53  O         -2.3090   13.2780   14.2990 O.2    37  GLU37      -0.2867
     54  CB        -4.2180   11.2490   15.1550 C.3    37  GLU37       0.0388
     55  CG        -5.4630   10.6050   15.5870 C.3    37  GLU37       0.1160
     56  CD        -5.5300    9.1170   15.1730 C.2    37  GLU37       0.3649
     57  OE1       -6.4720    8.4650   15.6430 O.co2  37  GLU37      -0.2457
     58  OE2       -4.6890    8.6130   14.3900 O.co2  37  GLU37      -0.2457
     59  N          1.2830   11.5060   15.3850 N.3    39  ASP39      -0.1239
     60  CA         2.0270   10.2550   15.4770 C.3    39  ASP39       0.1674
     61  C          3.4960   10.5940   15.3900 C.2    39  ASP39       0.2266
     62  O          3.9360   11.1560   14.4010 O.2    39  ASP39      -0.2867
     63  CB         1.6670    9.3570   14.2690 C.3    39  ASP39       0.1410
     64  CG         0.3320    8.6760   14.3990 C.2    39  ASP39       0.3668
     65  OD1       -0.3330    8.7340   15.4710 O.co2  39  ASP39      -0.2456
     66  OD2       -0.0780    8.0430   13.3980 O.co2  39  ASP39      -0.2456
     67  N          6.9230    8.9780   14.8800 N.3    41  TYR41      -0.1241
     68  CA         7.5500    7.7320   14.4770 C.3    41  TYR41       0.1605
     69  C          8.9760    7.6760   15.0080 C.2    41  TYR41       0.2264
     70  O          9.7510    8.6350   14.8870 O.2    41  TYR41      -0.2867
     71  CB         7.5660    7.6040   12.9530 C.3    41  TYR41       0.0534
     72  CG         6.2590    7.1870   12.3170 C.ar   41  TYR41      -0.0201
     73  CD1        5.1670    8.0370   12.2850 C.ar   41  TYR41      -0.0009
     74  CD2        6.1430    5.9360   11.6870 C.ar   41  TYR41      -0.0009
     75  CE1        3.9870    7.6990   11.6670 C.ar   41  TYR41       0.0417
     76  CE2        4.9570    5.5480   11.0880 C.ar   41  TYR41       0.0417
     77  CZ         3.8570    6.4500   11.0710 C.ar   41  TYR41       0.1957
     78  OH         2.6460    6.1360   10.4860 O.3    41  TYR41      -0.2866
     79  N          1.3610    7.6190   19.6270 N.3    59  ARG59      -0.1245
     80  CA         0.2430    8.3330   19.0720 C.3    59  ARG59       0.1563
     81  C         -0.5060    9.1010   20.1760 C.2    59  ARG59       0.2260
     82  O         -0.8420    8.5180   21.1930 O.2    59  ARG59      -0.2867
     83  CB        -0.7150    7.3740   18.3940 C.3    59  ARG59       0.0307
     84  CG        -2.0110    8.0350   17.9220 C.3    59  ARG59       0.0489
     85  CD        -2.8960    7.1500   17.0460 C.3    59  ARG59       0.2205
     86  NE        -2.1970    6.9430   15.8120 N.pl3  59  ARG59      -0.0865
     87  CZ        -2.4430    5.9740   14.9340 C.cat  59  ARG59       0.5346
     88  NH1       -3.4460    5.1410   15.1220 N.pl3  59  ARG59       0.1354
     89  NH2       -1.6740    5.8910   13.8620 N.pl3  59  ARG59       0.1354
     90  N         -4.0490   11.3290   20.6890 N.3    61  MET61      -0.1245
     91  CA        -5.3120   11.6610   20.0310 C.3    61  MET61       0.1570
     92  C         -6.0750   12.6700   20.8960 C.2    61  MET61       0.2261
     93  O         -6.3210   12.3730   22.0330 O.2    61  MET61      -0.2867
     94  CB        -6.1940   10.4060   19.9010 C.3    61  MET61       0.0387
     95  CG        -5.7870    9.4180   18.8210 C.3    61  MET61       0.0595
     96  SD        -6.7120    7.8490   19.0090 S.3    61  MET61      -0.1393
     97  CE        -5.4610    6.9170   19.8300 C.3    61  MET61       0.0692
     98  N         -6.7540    9.6880   24.2390 N.3    66  ILE66      -0.1245
     99  CA        -6.1240    8.3960   23.9950 C.3    66  ILE66       0.1561
    100  C         -4.5980    8.5390   23.6470 C.2    66  ILE66       0.2260
    101  O         -4.2030    9.4430   22.9320 O.2    66  ILE66      -0.2867
    102  CB        -6.8850    7.6040   22.8930 C.3    66  ILE66       0.0252
    103  CG1       -8.3620    7.3340   23.2630 C.3    66  ILE66       0.0019
    104  CG2       -6.2090    6.2300   22.6550 C.3    66  ILE66       0.0019
    105  CD1       -9.1890    6.9160   22.0580 C.3    66  ILE66       0.0001
    106  N         -1.2680    5.9680   22.6620 N.3    68  LEU68      -0.1245
    107  CA        -0.9520    4.5890   22.2290 C.3    68  LEU68       0.1561
    108  C          0.5170    4.4750   21.8450 C.2    68  LEU68       0.2260
    109  O          1.0840    5.3930   21.2640 O.2    68  LEU68      -0.2867
    110  CB        -1.7830    4.2090   20.9900 C.3    68  LEU68       0.0270
    111  CG        -3.3010    4.2530   21.1980 C.3    68  LEU68       0.0019
    112  CD1       -3.9250    4.0220   19.8930 C.3    68  LEU68       0.0001
    113  CD2       -3.6700    3.1190   22.1130 C.3    68  LEU68       0.0001
    114  N          2.4580    1.9700   19.4510 N.3    70  ILE70      -0.1245
    115  CA         2.0580    1.0690   18.3490 C.3    70  ILE70       0.1561
    116  C          3.3100    0.4930   17.7070 C.2    70  ILE70       0.2260
    117  O          4.2350    1.2230   17.4260 O.2    70  ILE70      -0.2867
    118  CB         1.2230    1.8370   17.2730 C.3    70  ILE70       0.0252
    119  CG1       -0.0170    2.5460   17.9020 C.3    70  ILE70       0.0019
    120  CG2        0.8160    0.9170   16.1120 C.3    70  ILE70       0.0019
    121  CD1       -0.5310    3.6500   16.9260 C.3    70  ILE70       0.0001
    122  N          4.0080   -1.6290   14.3070 N.3    72  LYS72      -0.1245
    123  CA         3.4550   -2.0970   13.0290 C.3    72  LYS72       0.1561
    124  C          4.5180   -2.8930   12.2780 C.2    72  LYS72       0.2260
    125  O          5.6350   -2.4710   12.2040 O.2    72  LYS72      -0.2867
    126  CB         3.0810   -0.8640   12.1930 C.3    72  LYS72       0.0271
    127  CG         1.7950   -0.1640   12.6570 C.3    72  LYS72       0.0035
    128  CD         1.3010    0.9170   11.6590 C.3    72  LYS72       0.0206
    129  CE         2.0350    2.2180   11.9080 C.3    72  LYS72       0.1093
    130  NZ         1.7170    3.3250   10.8960 N.3    72  LYS72      -0.1314
    131  N          0.0830   -5.6430   13.3510 N.3    79  CYS79      -0.1235
    132  CA        -0.1140   -4.4000   14.1410 C.3    79  CYS79       0.1677
    133  C         -0.5180   -4.7110   15.5790 C.2    79  CYS79       0.2270
    134  O         -1.5290   -5.3910   15.8280 O.2    79  CYS79      -0.2867
    135  CB        -1.2240   -3.5420   13.4960 C.3    79  CYS79       0.0956
    136  SG        -1.2500   -1.8630   14.1750 S.3    79  CYS79      -0.0801
    137  N         -0.8480   -2.6110   19.5480 N.3    81  ALA81      -0.1245
    138  CA        -0.7890   -1.3810   20.3200 C.3    81  ALA81       0.1562
    139  C         -1.0730   -1.5710   21.7920 C.2    81  ALA81       0.2260
    140  O         -1.7460   -2.5340   22.2130 O.2    81  ALA81      -0.2867
    141  CB        -1.7730   -0.3430   19.7420 C.3    81  ALA81       0.0290
    142  N         -2.2210    0.8440   25.1960 N.3    83  ASN83      -0.1240
    143  CA        -2.5050    2.1540   25.8100 C.3    83  ASN83       0.1653
    144  C         -1.4310    2.5050   26.7740 C.2    83  ASN83       0.2266
    145  O         -0.9310    1.6460   27.5320 O.2    83  ASN83      -0.2867
    146  CB        -3.8430    2.1660   26.5370 C.3    83  ASN83       0.1155
    147  CG        -4.9840    2.4100   25.6130 C.2    83  ASN83       0.2627
    148  OD1       -5.4400    3.5470   25.4580 O.2    83  ASN83      -0.2716
    149  ND2       -5.4300    1.3580   24.9340 N.am   83  ASN83      -0.0877
    150  N          3.7360   12.4220   11.7710 N.3   105  ILE105     -0.1245
    151  CA         2.6060   12.4710   10.8330 C.3   105  ILE105      0.1561
    152  C          1.4220   12.9640   11.6250 C.2   105  ILE105      0.2260
    153  O          1.1330   12.4260   12.6950 O.2   105  ILE105     -0.2867
    154  CB         2.2740   11.1180   10.1420 C.3   105  ILE105      0.0252
    155  CG1        3.4910   10.6930    9.3080 C.3   105  ILE105      0.0019
    156  CG2        1.0040   11.1930    9.2560 C.3   105  ILE105      0.0019
    157  CD1        3.2700    9.5190    8.4140 C.3   105  ILE105      0.0001
    158  N         -2.8430   14.0570   11.4380 N.3   107  LYS107     -0.1245
    159  CA        -4.0910   13.9680   10.6830 C.3   107  LYS107      0.1561
    160  C         -5.2700   14.2420   11.5770 C.2   107  LYS107      0.2260
    161  O         -5.1340   14.2870   12.8080 O.2   107  LYS107     -0.2867
    162  CB        -4.3200   12.6000   10.0270 C.3   107  LYS107      0.0271
    163  CG        -4.6400   11.4790   11.0620 C.3   107  LYS107      0.0035
    164  CD        -4.6370   10.1330   10.2960 C.3   107  LYS107      0.0206
    165  CE        -3.3300    9.3960   10.4460 C.3   107  LYS107      0.1093
    166  NZ        -3.1100    8.8270   11.8320 N.3   107  LYS107     -0.1314
    167  N         -8.7940   12.4470   12.4200 N.3   109  ARG109     -0.1245
    168  CA        -9.3850   11.1090   12.2340 C.3   109  ARG109      0.1563
    169  C        -10.7090   10.9430   12.9810 C.2   109  ARG109      0.2260
    170  O        -10.8430   11.4220   14.1140 O.2   109  ARG109     -0.2867
    171  CB        -8.3890   10.0490   12.7170 C.3   109  ARG109      0.0307
    172  CG        -8.9910    8.6460   12.7670 C.3   109  ARG109      0.0489
    173  CD        -7.8770    7.6750   12.9180 C.3   109  ARG109      0.2205
    174  NE        -7.3240    7.3830   11.5850 N.pl3 109  ARG109     -0.0865
    175  CZ        -6.3200    6.5290   11.3980 C.cat 109  ARG109      0.5346
    176  NH1       -5.8910    6.2620   10.1660 N.pl3 109  ARG109      0.1354
    177  NH2       -5.7950    5.9300   12.4430 N.pl3 109  ARG109      0.1354
    178  N        -13.4640    7.5990   13.7660 N.3   111  ILE111     -0.1245
    179  CA       -13.5280    6.1360   13.6900 C.3   111  ILE111      0.1561
    180  C        -14.9880    5.7380   13.9350 C.2   111  ILE111      0.2260
    181  O        -15.6170    6.2210   14.8810 O.2   111  ILE111     -0.2867
    182  CB       -12.6360    5.4210   14.7440 C.3   111  ILE111      0.0252
    183  CG1      -11.1300    5.8240   14.5870 C.3   111  ILE111      0.0019
    184  CG2      -12.8900    3.8760   14.6190 C.3   111  ILE111      0.0019
    185  CD1      -10.1940    5.4520   15.7570 C.3   111  ILE111      0.0001
    186  N        -10.5880    4.0180    5.5240 N.3   132  GLU132     -0.1245
    187  CA       -10.0350    2.6540    5.5650 C.3   132  GLU132      0.1567
    188  C        -11.1020    1.7610    6.1670 C.2   132  GLU132      0.2260
    189  O        -11.6920    2.1620    7.1770 O.2   132  GLU132     -0.2867
    190  CB        -8.7730    2.5430    6.4400 C.3   132  GLU132      0.0388
    191  CG        -7.8050    3.7460    6.3800 C.3   132  GLU132      0.1160
    192  CD        -6.5410    3.5710    7.2490 C.2   132  GLU132      0.3649
    193  OE1       -6.5960    3.1600    8.4590 O.co2 132  GLU132     -0.2457
    194  OE2       -5.4440    3.8350    6.7220 O.co2 132  GLU132     -0.2457
    195  N         -9.8060   -6.4820   12.8550 N.3   136  MET136     -0.1245
    196  CA        -8.6430   -6.9610   13.5970 C.3   136  MET136      0.1570
    197  C         -8.8630   -8.4540   13.8460 C.2   136  MET136      0.2261
    198  O        -10.0330   -8.9120   13.9290 O.2   136  MET136     -0.2867
    199  CB        -8.4600   -6.2180   14.9390 C.3   136  MET136      0.0387
    200  CG        -8.0520   -4.7310   14.8210 C.3   136  MET136      0.0595
    201  SD        -6.2440   -4.6120   14.6110 S.3   136  MET136     -0.1393
    202  CE        -5.6140   -4.4540   16.2800 C.3   136  MET136      0.0692
    203  N          0.9650    3.3370    2.6060 N.3   168  SER168     -0.1202
    204  CA         0.8510    3.9050    3.9590 C.3   168  SER168      0.2020
    205  C          0.9710    5.4160    3.9380 C.2   168  SER168      0.2618
    206  O          1.5030    5.9900    2.9750 O.2   168  SER168     -0.2717
    207  CB         1.9410    3.3510    4.8800 C.3   168  SER168      0.2103
    208  OG         3.2460    3.7140    4.4640 O.3   168  SER168     -0.2182
    209  N          0.5560    6.0670    5.0400 N.am  169  TYR169     -0.1975
    210  CA         0.7590    7.5110    5.1140 C.3   169  TYR169      0.1639
    211  C          2.2810    7.8190    5.0680 C.2   169  TYR169      0.2290
    212  O          2.6730    8.7720    4.4450 O.2   169  TYR169     -0.2864
    213  CB         0.0810    8.1240    6.3420 C.3   169  TYR169      0.0560
    214  CG        -1.4070    8.1150    6.2070 C.ar  169  TYR169     -0.0198
    215  CD1       -2.2000    7.5670    7.2060 C.ar  169  TYR169     -0.0009
    216  CD2       -2.0240    8.5890    5.0310 C.ar  169  TYR169     -0.0009
    217  CE1       -3.5850    7.5550    7.1080 C.ar  169  TYR169      0.0417
    218  CE2       -3.3990    8.5770    4.9150 C.ar  169  TYR169      0.0417
    219  CZ        -4.1710    8.0550    5.9580 C.ar  169  TYR169      0.1957
    220  OH        -5.5290    8.0340    5.8340 O.3   169  TYR169     -0.2866
@<TRIPOS>BOND
     1    33    32    2
     2    32    31    1
     3    30    31    1
     4    31    34    1
     5   203   204    1
     6    34    35    1
     7    35    36    1
     8   206   205    2
     9    37    36    1
    10    37    38    1
    11    24    23    2
    12   205   204    1
    13   205   209   am
    14   204   207    1
    15    23    22    1
    16   212   211    2
    17   208   207    1
    18   218   216   ar
    19   218   219   ar
    20   216   214   ar
    21   209   210    1
    22   211   210    1
    23   210   213    1
    24   186   187    1
    25   187   188    1
    26   187   190    1
    27   220   219    1
    28    22    21    1
    29    22    25    1
    30   219   217   ar
    31   188   189    2
    32   214   213    1
    33   214   215   ar
    34   191   190    1
    35   191   192    1
    36    25    26    1
    37   194   192   ar
    38    29    27   ar
    39   217   215   ar
    40   192   193   ar
    41    27    26    1
    42    27    28   ar
    43   157   155    1
    44    15    14    2
    45   156   154    1
    46   155   154    1
    47    14    13    1
    48   162   159    1
    49   162   163    1
    50   154   151    1
    51   176   175    1
    52   164   165    1
    53   164   163    1
    54   165   166    1
    55    78    77    1
    56   159   158    1
    57   159   160    1
    58   151   152    1
    59   151   150    1
    60   130   129    1
    61    19    18   ar
    62    77    76   ar
    63    77    75   ar
    64    76    74   ar
    65    13    16    1
    66    13    12    1
    67    18    17    1
    68    18    20   ar
    69    17    16    1
    70   175   174    2
    71   175   177    1
    72   160   161    2
    73   174   173    1
    74   152   153    2
    75   128   129    1
    76   128   127    1
    77    75    73   ar
    78    74    72   ar
    79   126   127    1
    80   126   123    1
    81   125   124    2
    82   168   167    1
    83   168   171    1
    84   168   169    1
    85   124   123    1
    86    73    72   ar
    87    72    71    1
    88   171   172    1
    89   172   173    1
    90   195   196    1
    91    71    68    1
    92   169   170    2
    93   123   122    1
    94   131   132    1
    95    66    64   ar
    96   135   132    1
    97   135   136    1
    98   196   197    1
    99   196   199    1
   100   179   178    1
   101   179   180    1
   102   179   182    1
   103   197   198    2
   104    89    87    1
   105   180   181    2
   106   132   133    1
   107    63    64    1
   108    63    60    1
   109    53    52    2
   110    58    56   ar
   111    64    65   ar
   112    62    61    2
   113    68    67    1
   114    68    69    1
   115   183   182    1
   116   183   185    1
   117   201   200    1
   118   201   202    1
   119   184   182    1
   120   200   199    1
   121    70    69    2
   122    87    88    1
   123    87    86    2
   124    54    55    1
   125    54    51    1
   126    56    55    1
   127    56    57   ar
   128    59    60    1
   129    61    60    1
   130    52    51    1
   131    50    51    1
   132   133   134    2
   133    86    85    1
   134   120   118    1
   135    10     8   ar
   136    10    11   ar
   137   121   119    1
   138    85    84    1
   139     8     6   ar
   140    39    40    1
   141    11     9   ar
   142   118   119    1
   143   118   115    1
   144   117   116    2
   145   116   115    1
   146    43    40    1
   147    43    44    1
   148    84    83    1
   149    40    41    1
   150   115   114    1
   151    83    80    1
   152     6     5    1
   153     6     7   ar
   154     9     7   ar
   155     2     1    1
   156     2     5    1
   157     2     3    1
   158    45    44   ar
   159    45    47   ar
   160    41    42    2
   161    95    96    1
   162    95    94    1
   163    44    46   ar
   164    96    97    1
   165    80    79    1
   166    80    81    1
   167     3     4    2
   168   137   138    1
   169    47    49   ar
   170   141   138    1
   171   112   111    1
   172    94    91    1
   173    91    90    1
   174    91    92    1
   175    46    48   ar
   176    81    82    2
   177   138   139    1
   178    92    93    2
   179    49    48   ar
   180   110   111    1
   181   110   107    1
   182   111   113    1
   183   109   108    2
   184   139   140    2
   185   108   107    1
   186   105   103    1
   187   107   106    1
   188   104   102    1
   189   102   103    1
   190   102    99    1
   191   101   100    2
   192   100    99    1
   193    99    98    1
   194   149   147   am
   195   142   143    1
   196   148   147    2
   197   147   146    1
   198   143   146    1
   199   143   144    1
   200   144   145    2
