@<TRIPOS>MOLECULE
tmp/3n10B00.pdb
 157 142 0 0 0
SMALL
GASTEIGER

@<TRIPOS>ATOM
      1  N          7.7770    6.9640   42.9350 N.3     2  PHE2       -0.1241
      2  CA         8.4450    6.2790   41.8480 C.3     2  PHE2        0.1605
      3  C          8.6660    7.2160   40.6600 C.2     2  PHE2        0.2264
      4  O          8.4620    6.8450   39.4960 O.2     2  PHE2       -0.2867
      5  CB         7.6370    5.0520   41.4870 C.3     2  PHE2        0.0534
      6  CG         7.4910    4.0560   42.6210 C.ar    2  PHE2       -0.0203
      7  CD1        6.2260    3.6610   43.0430 C.ar    2  PHE2       -0.0042
      8  CD2        8.6100    3.4910   43.2420 C.ar    2  PHE2       -0.0042
      9  CE1        6.0770    2.7240   44.0780 C.ar    2  PHE2       -0.0003
     10  CE2        8.4730    2.5430   44.2740 C.ar    2  PHE2       -0.0003
     11  CZ         7.2080    2.1470   44.6820 C.ar    2  PHE2       -0.0000
     12  N         17.5670    5.7310   40.1110 N.3     7  GLU7       -0.1245
     13  CA        17.1770    5.0550   41.3610 C.3     7  GLU7        0.1567
     14  C         18.4280    4.7570   42.1670 C.2     7  GLU7        0.2260
     15  O         19.3310    4.0070   41.7210 O.2     7  GLU7       -0.2867
     16  CB        16.4710    3.7570   41.1220 C.3     7  GLU7        0.0388
     17  CG        15.9320    3.2080   42.4740 C.3     7  GLU7        0.1160
     18  CD        15.0230    2.0430   42.3220 C.2     7  GLU7        0.3649
     19  OE1       14.0690    1.9660   43.1190 O.co2   7  GLU7       -0.2457
     20  OE2       15.2590    1.2060   41.4280 O.co2   7  GLU7       -0.2457
     21  N         19.8400    2.8460   45.2760 N.3     9  GLU9       -0.1245
     22  CA        19.3590    1.6150   45.9490 C.3     9  GLU9        0.1567
     23  C         20.4990    0.8660   46.6130 C.2     9  GLU9        0.2260
     24  O         21.6110    0.7220   46.0480 O.2     9  GLU9       -0.2867
     25  CB        18.6160    0.6830   44.9830 C.3     9  GLU9        0.0388
     26  CG        18.1040   -0.6080   45.6780 C.3     9  GLU9        0.1160
     27  CD        17.8640   -1.7990   44.7380 C.2     9  GLU9        0.3649
     28  OE1       18.4500   -2.9110   45.0030 O.co2   9  GLU9       -0.2457
     29  OE2       17.0670   -1.6440   43.7820 O.co2   9  GLU9       -0.2457
     30  N          2.7710   -0.2820   50.6570 N.3    32  PHE32      -0.1241
     31  CA         2.3200   -0.0500   49.2670 C.3    32  PHE32       0.1605
     32  C          1.7610   -1.3470   48.6660 C.2    32  PHE32       0.2264
     33  O          0.6440   -1.3780   48.1260 O.2    32  PHE32      -0.2867
     34  CB         3.4640    0.4890   48.3700 C.3    32  PHE32       0.0534
     35  CG         3.0760    0.6810   46.9320 C.ar   32  PHE32      -0.0203
     36  CD1        3.7120   -0.0440   45.9300 C.ar   32  PHE32      -0.0042
     37  CD2        2.0500    1.5680   46.5690 C.ar   32  PHE32      -0.0042
     38  CE1        3.3570    0.1050   44.5860 C.ar   32  PHE32      -0.0003
     39  CE2        1.6800    1.7350   45.2260 C.ar   32  PHE32      -0.0003
     40  CZ         2.3360    0.9980   44.2200 C.ar   32  PHE32      -0.0000
     41  N          7.2830   -6.9300   34.3670 N.3    60  ARG60      -0.1245
     42  CA         6.9550   -7.4310   35.7050 C.3    60  ARG60       0.1563
     43  C          5.4430   -7.5100   35.9210 C.2    60  ARG60       0.2260
     44  O          4.7210   -6.5610   35.6140 O.2    60  ARG60      -0.2867
     45  CB         7.5420   -6.5140   36.7790 C.3    60  ARG60       0.0307
     46  CG         7.1420   -6.8700   38.1860 C.3    60  ARG60       0.0489
     47  CD         7.8560   -6.0290   39.1900 C.3    60  ARG60       0.2205
     48  NE         9.2910   -6.3300   39.1140 N.pl3  60  ARG60      -0.0865
     49  CZ        10.2520   -5.5420   39.5970 C.cat  60  ARG60       0.5346
     50  NH1        9.9700   -4.4400   40.2830 N.pl3  60  ARG60       0.1354
     51  NH2       11.5400   -5.8960   39.4070 N.pl3  60  ARG60       0.1354
     52  N          2.7930   -8.1940   39.1440 N.3    62  MET62      -0.1245
     53  CA         2.7250   -8.3350   40.5960 C.3    62  MET62       0.1570
     54  C          1.3030   -8.7350   40.9630 C.2    62  MET62       0.2261
     55  O          0.3670   -8.0350   40.5690 O.2    62  MET62      -0.2867
     56  CB         3.0460   -6.9790   41.2410 C.3    62  MET62       0.0387
     57  CG         4.4550   -6.4820   40.8720 C.3    62  MET62       0.0595
     58  SD         4.6580   -4.6440   40.9810 S.3    62  MET62      -0.1393
     59  CE         4.2400   -4.3430   42.6610 C.3    62  MET62       0.0692
     60  N         -0.5530   -4.7890   39.5480 N.3    67  ILE67      -0.1245
     61  CA         0.3620   -3.8380   38.9290 C.3    67  ILE67       0.1561
     62  C          1.1580   -4.5950   37.8630 C.2    67  ILE67       0.2260
     63  O          1.4750   -5.7650   38.0580 O.2    67  ILE67      -0.2867
     64  CB         1.2720   -3.2040   39.9820 C.3    67  ILE67       0.0252
     65  CG1        0.4510   -2.2880   40.9310 C.3    67  ILE67       0.0019
     66  CG2        2.4350   -2.4480   39.3170 C.3    67  ILE67       0.0019
     67  CD1        1.1800   -1.7340   42.1830 C.3    67  ILE67       0.0001
     68  N          4.3920   -3.7250   35.0270 N.3    69  LEU69      -0.1245
     69  CA         5.4060   -2.7380   34.7410 C.3    69  LEU69       0.1561
     70  C          6.3140   -3.1520   33.6280 C.2    69  LEU69       0.2260
     71  O          6.6410   -4.3200   33.4960 O.2    69  LEU69      -0.2867
     72  CB         6.2960   -2.5050   36.0010 C.3    69  LEU69       0.0270
     73  CG         5.6360   -1.8460   37.2220 C.3    69  LEU69       0.0019
     74  CD1        6.5550   -1.9590   38.4370 C.3    69  LEU69       0.0001
     75  CD2        5.2840   -0.3800   36.9170 C.3    69  LEU69       0.0001
     76  N         10.0930   -2.1250   32.6500 N.3    71  ILE71      -0.1245
     77  CA        11.1820   -1.4940   33.3840 C.3    71  ILE71       0.1561
     78  C         12.4450   -1.5850   32.5020 C.2    71  ILE71       0.2260
     79  O         12.7920   -2.6540   31.9860 O.2    71  ILE71      -0.2867
     80  CB        11.4750   -2.2380   34.7270 C.3    71  ILE71       0.0252
     81  CG1       10.2400   -2.2240   35.6150 C.3    71  ILE71       0.0019
     82  CG2       12.6970   -1.6630   35.4320 C.3    71  ILE71       0.0019
     83  CD1       10.2430   -3.4190   36.5500 C.3    71  ILE71       0.0001
     84  N         16.4400   -0.7400   33.0150 N.3    73  LYS73      -0.1245
     85  CA        17.4900   -0.3350   33.9600 C.3    73  LYS73       0.1561
     86  C         18.7370   -0.0670   33.1780 C.2    73  LYS73       0.2260
     87  O         19.0350   -0.8300   32.2790 O.2    73  LYS73      -0.2867
     88  CB        17.7420   -1.4090   35.0220 C.3    73  LYS73       0.0271
     89  CG        16.5390   -1.7050   35.9280 C.3    73  LYS73       0.0035
     90  CD        17.0100   -2.4930   37.1760 C.3    73  LYS73       0.0206
     91  CE        15.8270   -2.7940   38.0920 C.3    73  LYS73       0.1093
     92  NZ        16.1650   -3.8260   39.1380 N.3    73  LYS73      -0.1314
     93  N         17.3070    4.0860   35.9950 N.3    80  CYS80      -0.1235
     94  CA        16.1670    3.1870   36.0170 C.3    80  CYS80       0.1677
     95  C         14.9120    3.9870   35.6740 C.2    80  CYS80       0.2270
     96  O         14.6640    5.0710   36.2280 O.2    80  CYS80      -0.2867
     97  CB        16.0340    2.5850   37.4000 C.3    80  CYS80       0.0956
     98  SG        14.6760    1.3650   37.4790 S.3    80  CYS80      -0.0801
     99  N         10.6070    3.1710   34.6950 N.3    82  ALA82      -0.1245
    100  CA         9.5210    2.2000   34.4970 C.3    82  ALA82       0.1562
    101  C          8.2240    2.9060   34.0180 C.2    82  ALA82       0.2260
    102  O          7.9940    4.1140   34.2920 O.2    82  ALA82      -0.2867
    103  CB         9.2880    1.4270   35.7710 C.3    82  ALA82       0.0290
    104  N          3.8620    1.9890   33.7940 N.3    84  ASN84      -0.1240
    105  CA         2.7530    1.0300   34.0020 C.3    84  ASN84       0.1653
    106  C          2.3160    0.5640   32.6420 C.2    84  ASN84       0.2266
    107  O          2.3790    1.3260   31.6660 O.2    84  ASN84      -0.2867
    108  CB         1.5810    1.7170   34.7140 C.3    84  ASN84       0.1155
    109  CG         1.8670    1.9460   36.1910 C.2    84  ASN84       0.2627
    110  OD1        1.8780    1.0160   36.9960 O.2    84  ASN84      -0.2716
    111  ND2        2.0940    3.2020   36.5520 N.am   84  ASN84      -0.0877
    112  N          7.4570  -10.2500   47.3000 N.3   110  ARG110     -0.1245
    113  CA         7.9260   -8.9170   47.6410 C.3   110  ARG110      0.1563
    114  C          6.8110   -8.1250   48.3070 C.2   110  ARG110      0.2260
    115  O          5.6690   -8.1240   47.8060 O.2   110  ARG110     -0.2867
    116  CB         8.3430   -8.1760   46.3630 C.3   110  ARG110      0.0307
    117  CG         8.7450   -6.7010   46.6750 C.3   110  ARG110      0.0489
    118  CD         9.4430   -6.0880   45.4580 C.3   110  ARG110      0.2205
    119  NE        10.8730   -6.4100   45.4600 N.pl3 110  ARG110     -0.0865
    120  CZ        11.6960   -6.1970   44.4270 C.cat 110  ARG110      0.5346
    121  NH1       11.2280   -5.7100   43.2770 N.pl3 110  ARG110      0.1354
    122  NH2       12.9770   -6.4850   44.5280 N.pl3 110  ARG110      0.1354
    123  N          6.3780   -3.9560   49.6330 N.3   112  ILE112     -0.1245
    124  CA         6.9860   -2.6390   49.4020 C.3   112  ILE112      0.1561
    125  C          6.3680   -1.6800   50.4160 C.2   112  ILE112      0.2260
    126  O          5.1360   -1.6150   50.4890 O.2   112  ILE112     -0.2867
    127  CB         6.6790   -2.1160   47.9890 C.3   112  ILE112      0.0252
    128  CG1        7.2990   -3.0240   46.8900 C.3   112  ILE112      0.0019
    129  CG2        7.2610   -0.7120   47.8030 C.3   112  ILE112      0.0019
    130  CD1        6.7530   -2.7910   45.5130 C.3   112  ILE112      0.0001
    131  N         11.6760    4.1780   49.9080 N.3   119  HIS119     -0.1241
    132  CA        10.9010    2.9370   49.9300 C.3   119  HIS119      0.1621
    133  C         11.7770    1.7860   50.3500 C.2   119  HIS119      0.2264
    134  O         12.9730    1.7640   50.0780 O.2   119  HIS119     -0.2867
    135  CB        10.0940    2.6900   48.6450 C.3   119  HIS119      0.0745
    136  CG        10.8740    2.6780   47.3610 C.ar  119  HIS119      0.0817
    137  ND1       11.2770    3.8360   46.7180 N.ar  119  HIS119     -0.2268
    138  CD2       11.1750    1.6600   46.5160 C.ar  119  HIS119      0.1154
    139  CE1       11.8840    3.5160   45.5840 C.ar  119  HIS119      0.1986
    140  NE2       11.8330    2.2020   45.4380 N.ar  119  HIS119     -0.2212
    141  N         15.6980   -4.1170   50.0480 N.3   133  GLU133     -0.1196
    142  CA        16.2880   -3.0100   49.2210 C.3   133  GLU133      0.1783
    143  C         15.7910   -1.6880   49.8260 C.2   133  GLU133      0.2306
    144  O         14.6020   -1.5580   50.1420 O.2   133  GLU133     -0.2863
    145  CB        15.8330   -3.1350   47.7560 C.2   133  GLU133      0.0071
    146  CG        16.2250   -4.4650   47.0290 C.2   133  GLU133      0.0834
    147  CD        15.8090   -4.5940   45.5330 C.2   133  GLU133      0.3877
    148  OE1       15.1330   -3.6710   44.9950 O.co2 133  GLU133     -0.2406
    149  OE2       16.1970   -5.6480   44.9060 O.co2 133  GLU133     -0.2406
    150  N         13.9490    7.2420   44.2200 N.3   137  MET137     -0.1245
    151  CA        14.0820    7.6930   42.8240 C.3   137  MET137      0.1570
    152  C         14.1790    9.2020   42.7870 C.2   137  MET137      0.2261
    153  O         13.6270    9.9130   43.6350 O.2   137  MET137     -0.2867
    154  CB        12.9220    7.1830   41.9330 C.3   137  MET137      0.0387
    155  CG        12.9720    5.6770   41.6960 C.3   137  MET137      0.0595
    156  SD        11.7990    5.0240   40.5000 S.3   137  MET137     -0.1393
    157  CE        12.8040    4.7390   39.0270 C.3   137  MET137      0.0692
@<TRIPOS>BOND
     1   107   106    2
     2    79    78    2
     3    87    86    2
     4    78    77    1
     5   106   105    1
     6    76    77    1
     7    84    85    1
     8    86    85    1
     9    77    80    1
    10    71    70    2
    11    70    69    1
    12   104   105    1
    13    85    88    1
    14   105   108    1
    15   101   102    2
    16   101   100    1
    17    41    42    1
    18   100    99    1
    19   100   103    1
    20   108   109    1
    21    80    82    1
    22    80    81    1
    23    69    68    1
    24    69    72    1
    25    88    89    1
    26    44    43    2
    27    81    83    1
    28    95    94    1
    29    95    96    2
    30    42    43    1
    31    42    45    1
    32    89    90    1
    33    93    94    1
    34    72    73    1
    35    94    97    1
    36   109   111   am
    37   109   110    2
    38    45    46    1
    39    75    73    1
    40    90    91    1
    41    73    74    1
    42    97    98    1
    43    62    63    2
    44    62    61    1
    45    91    92    1
    46    46    47    1
    47    61    60    1
    48    61    64    1
    49   157   156    1
    50    48    47    1
    51    48    49    2
    52    52    53    1
    53    66    64    1
    54    51    49    1
    55     4     3    2
    56    49    50    1
    57    64    65    1
    58    12    13    1
    59   156   155    1
    60    55    54    2
    61    53    54    1
    62    53    56    1
    63     3     2    1
    64    57    58    1
    65    57    56    1
    66    65    67    1
    67    58    59    1
    68    16    13    1
    69    16    17    1
    70    13    14    1
    71    20    18   ar
    72     5     2    1
    73     5     6    1
    74   155   154    1
    75    15    14    2
    76     2     1    1
    77   154   151    1
    78    18    17    1
    79    18    19   ar
    80     6     7   ar
    81     6     8   ar
    82   152   151    1
    83   152   153    2
    84   151   150    1
    85     7     9   ar
    86     8    10   ar
    87   121   120    1
    88    29    27   ar
    89     9    11   ar
    90    40    38   ar
    91    40    39   ar
    92    10    11   ar
    93   120   122    1
    94   120   119    2
    95    38    36   ar
    96    27    28   ar
    97    27    26    1
    98   149   147   ar
    99    25    26    1
   100    25    22    1
   101   148   147   ar
   102    39    37   ar
   103    21    22    1
   104   140   139   ar
   105   140   138   ar
   106   118   119    1
   107   118   117    1
   108   130   128    1
   109   147   146    1
   110   139   137   ar
   111    36    35   ar
   112    22    23    1
   113    24    23    2
   114   116   117    1
   115   116   113    1
   116   138   136   ar
   117    37    35   ar
   118   137   136   ar
   119   128   127    1
   120    35    34    1
   121   146   145    2
   122   112   113    1
   123   136   135    1
   124   113   114    1
   125   145   142    1
   126   129   127    1
   127   115   114    2
   128   127   124    1
   129    33    32    2
   130    34    31    1
   131   135   132    1
   132    32    31    1
   133   142   143    1
   134   142   141    1
   135    31    30    1
   136   124   123    1
   137   124   125    1
   138   143   144    2
   139   131   132    1
   140   132   133    1
   141   134   133    2
   142   125   126    2
