@<TRIPOS>MOLECULE
tmp/3n15A00.pdb
 186 180 0 0 0
SMALL
GASTEIGER

@<TRIPOS>ATOM
      1  N         -8.7520    0.8390   -1.3000 N.3     9  TYR9       -0.1241
      2  CA        -7.9360    0.3790   -0.1970 C.3     9  TYR9        0.1605
      3  C         -8.8390   -0.2350    0.8580 C.2     9  TYR9        0.2264
      4  O         -9.9070    0.2790    1.1360 O.2     9  TYR9       -0.2867
      5  CB        -7.1310    1.5370    0.3950 C.3     9  TYR9        0.0534
      6  CG        -5.8640    1.8190   -0.3880 C.ar    9  TYR9       -0.0201
      7  CD1       -4.6520    1.2480   -0.0120 C.ar    9  TYR9       -0.0009
      8  CD2       -5.8910    2.6250   -1.5130 C.ar    9  TYR9       -0.0009
      9  CE1       -3.4820    1.4990   -0.7390 C.ar    9  TYR9        0.0417
     10  CE2       -4.7340    2.8840   -2.2480 C.ar    9  TYR9        0.0417
     11  CZ        -3.5340    2.3160   -1.8530 C.ar    9  TYR9        0.1957
     12  OH        -2.3900    2.5570   -2.5880 O.3     9  TYR9       -0.2866
     13  N         -7.5680   -3.3000    9.6900 N.3    13  PHE13      -0.1241
     14  CA        -7.5410   -2.6700   10.9970 C.3    13  PHE13       0.1605
     15  C         -8.8550   -1.9310   11.1880 C.2    13  PHE13       0.2264
     16  O         -9.5410   -1.6170   10.2170 O.2    13  PHE13      -0.2867
     17  CB        -6.3570   -1.6900   11.1010 C.3    13  PHE13       0.0534
     18  CG        -6.3290   -0.6300   10.0120 C.ar   13  PHE13      -0.0203
     19  CD1       -7.0800    0.5320   10.1300 C.ar   13  PHE13      -0.0042
     20  CD2       -5.5310   -0.7910    8.8860 C.ar   13  PHE13      -0.0042
     21  CE1       -7.0540    1.5090    9.1370 C.ar   13  PHE13      -0.0003
     22  CE2       -5.5000    0.1770    7.8860 C.ar   13  PHE13      -0.0003
     23  CZ        -6.2590    1.3340    8.0170 C.ar   13  PHE13      -0.0000
     24  N        -10.1760    1.5370   12.3630 N.3    15  ASN15      -0.1240
     25  CA        -9.8320    2.8970   12.7610 C.3    15  ASN15       0.1653
     26  C        -11.0860    3.6790   13.1420 C.2    15  ASN15       0.2266
     27  O        -11.0880    4.9150   13.1730 O.2    15  ASN15      -0.2867
     28  CB        -9.0550    3.6070   11.6490 C.3    15  ASN15       0.1155
     29  CG        -9.9090    3.8960   10.4350 C.2    15  ASN15       0.2627
     30  OD1      -11.0260    3.3800   10.3040 O.2    15  ASN15      -0.2716
     31  ND2       -9.3900    4.7280    9.5340 N.am   15  ASN15      -0.0877
     32  N         -2.2050   -2.7990    5.8170 N.3    36  PHE36      -0.1241
     33  CA        -0.9970   -2.7380    4.9990 C.3    36  PHE36       0.1605
     34  C         -0.0340   -3.8280    5.4710 C.2    36  PHE36       0.2264
     35  O         -0.1180   -4.2730    6.6180 O.2    36  PHE36      -0.2867
     36  CB        -0.2690   -1.4080    5.2390 C.3    36  PHE36       0.0534
     37  CG        -1.0070   -0.1910    4.7540 C.ar   36  PHE36      -0.0203
     38  CD1       -1.6900    0.6210    5.6390 C.ar   36  PHE36      -0.0042
     39  CD2       -0.9670    0.1690    3.4170 C.ar   36  PHE36      -0.0042
     40  CE1       -2.3460    1.7540    5.1890 C.ar   36  PHE36      -0.0003
     41  CE2       -1.6200    1.2950    2.9650 C.ar   36  PHE36      -0.0003
     42  CZ        -2.3070    2.0880    3.8520 C.ar   36  PHE36      -0.0000
     43  N          3.4880   -4.3160    6.9510 N.3    38  GLU38      -0.1245
     44  CA         4.3850   -3.3980    7.6590 C.3    38  GLU38       0.1567
     45  C          5.6260   -4.1160    8.1870 C.2    38  GLU38       0.2260
     46  O          5.7300   -5.3380    8.0870 O.2    38  GLU38      -0.2867
     47  CB         3.6400   -2.6850    8.7950 C.3    38  GLU38       0.0388
     48  CG         2.7530   -1.5360    8.3150 C.3    38  GLU38       0.1160
     49  CD         1.4770   -1.4450    9.1070 C.2    38  GLU38       0.3649
     50  OE1        1.1380   -2.4540    9.7630 O.co2  38  GLU38      -0.2457
     51  OE2        0.8060   -0.3910    9.0710 O.co2  38  GLU38      -0.2457
     52  N          3.1470   -0.2760    3.2930 N.3    77  GLY77      -0.1210
     53  CA         3.4050    1.0710    3.7750 C.3    77  GLY77       0.1956
     54  C          2.2400    1.7600    4.4660 C.2    77  GLY77       0.2612
     55  O          1.9100    1.4080    5.6080 O.2    77  GLY77      -0.2717
     56  N          1.6220    2.7250    3.7630 N.am   78  GLY78      -0.1942
     57  CA         0.6950    3.7440    4.3250 C.3    78  GLY78       0.2014
     58  C          1.3790    4.2550    5.5800 C.2    78  GLY78       0.2639
     59  O          2.6010    4.3600    5.5810 O.2    78  GLY78      -0.2714
     60  N          0.4950    5.0200    6.2060 N.am   79  GLN79      -0.1963
     61  CA         0.7470    6.2790    6.8270 C.3    79  GLN79       0.1733
     62  C          1.8310    6.0440    7.8000 C.2    79  GLN79       0.2616
     63  O          2.7360    6.7950    7.9130 O.2    79  GLN79      -0.2715
     64  CB        -0.5040    6.8410    7.5010 C.3    79  GLN79       0.0408
     65  CG        -0.2900    8.0700    8.3550 C.3    79  GLN79       0.0908
     66  CD        -1.5750    8.6220    8.9320 C.2    79  GLN79       0.2608
     67  OE1       -2.3470    9.1640    8.2320 O.2    79  GLN79      -0.2717
     68  NE2       -1.7980    8.4160   10.1890 N.am   79  GLN79      -0.0878
     69  N          1.7120    4.9300    8.4640 N.am   80  ASN80      -0.1972
     70  CA         2.6030    4.5730    9.5660 C.3    80  ASN80       0.1688
     71  C          3.6870    3.5700    9.1820 C.2    80  ASN80       0.2292
     72  O          4.5340    3.2240   10.0080 O.2    80  ASN80      -0.2864
     73  CB         1.7930    3.9670   10.7150 C.3    80  ASN80       0.1181
     74  CG         0.6690    4.8680   11.1720 C.2    80  ASN80       0.2629
     75  OD1       -0.3950    4.3950   11.5900 O.2    80  ASN80      -0.2716
     76  ND2        0.8950    6.1750   11.0980 N.am   80  ASN80      -0.0877
     77  N          3.0400    1.7700   -1.2750 N.3   113  ASP113     -0.1239
     78  CA         2.5290    2.9870   -0.6680 C.3   113  ASP113      0.1674
     79  C          3.4680    3.4740    0.4160 C.2   113  ASP113      0.2266
     80  O          3.0660    3.6330    1.5580 O.2   113  ASP113     -0.2867
     81  CB         1.1310    2.7750   -0.0860 C.3   113  ASP113      0.1410
     82  CG         0.5880    4.0280    0.5710 C.2   113  ASP113      0.3668
     83  OD1        1.0930    5.1240    0.2540 O.co2 113  ASP113     -0.2456
     84  OD2       -0.3400    3.9310    1.4020 O.co2 113  ASP113     -0.2456
     85  N          5.5770    6.1590    2.3350 N.3   115  GLN115     -0.1245
     86  CA         5.3630    7.5680    2.5410 C.3   115  GLN115      0.1566
     87  C          6.3840    8.1760    3.4840 C.2   115  GLN115      0.2260
     88  O          6.2080    9.2420    3.9370 O.2   115  GLN115     -0.2867
     89  CB         3.9540    7.8010    3.0820 C.3   115  GLN115      0.0367
     90  CG         2.8800    7.2710    2.1980 C.3   115  GLN115      0.0905
     91  CD         1.4570    7.5460    2.6810 C.2   115  GLN115      0.2608
     92  OE1        1.2120    8.2610    3.6220 O.2   115  GLN115     -0.2717
     93  NE2        0.5590    6.9460    2.0350 N.am  115  GLN115     -0.0878
     94  N          1.1480    4.3280   -4.8740 N.3   158  ALA158     -0.1245
     95  CA         0.3240    5.4530   -4.4330 C.3   158  ALA158      0.1562
     96  C          1.1410    6.5640   -3.7820 C.2   158  ALA158      0.2260
     97  O          0.8920    6.9310   -2.6270 O.2   158  ALA158     -0.2867
     98  CB        -0.7630    4.9740   -3.4600 C.3   158  ALA158      0.0290
     99  N          2.5490   10.2320   -2.6710 N.3   160  GLU160     -0.1245
    100  CA         1.9960   11.5730   -2.5400 C.3   160  GLU160      0.1567
    101  C          2.5320   12.4830   -3.6460 C.2   160  GLU160      0.2260
    102  O          3.5410   12.1800   -4.2710 O.2   160  GLU160     -0.2867
    103  CB         2.3160   12.1270   -1.1580 C.3   160  GLU160      0.0388
    104  CG         1.5410   11.4110   -0.0600 C.3   160  GLU160      0.1160
    105  CD         2.1260   11.6210    1.3250 C.2   160  GLU160      0.3649
    106  OE1        2.0420   12.7510    1.8610 O.co2 160  GLU160     -0.2457
    107  OE2        2.6580   10.6450    1.8940 O.co2 160  GLU160     -0.2457
    108  N         -1.8110   10.1250   -4.7510 N.3   195  GLN195     -0.1245
    109  CA        -2.7890   10.5950   -3.7870 C.3   195  GLN195      0.1566
    110  C         -3.0600   12.0870   -3.9690 C.2   195  GLN195      0.2260
    111  O         -2.2690   12.9330   -3.5340 O.2   195  GLN195     -0.2867
    112  CB        -2.2900   10.3440   -2.3760 C.3   195  GLN195      0.0367
    113  CG        -2.0570    8.8720   -2.0360 C.3   195  GLN195      0.0905
    114  CD        -1.4870    8.7100   -0.6460 C.2   195  GLN195      0.2608
    115  OE1       -1.8850    9.4190    0.2780 O.2   195  GLN195     -0.2717
    116  NE2       -0.5490    7.7780   -0.4860 N.am  195  GLN195     -0.0878
    117  N         -4.7680   14.0760   -2.3540 N.3   197  TYR197     -0.1227
    118  CA        -5.4110   14.5110   -1.1210 C.3   197  TYR197      0.1736
    119  C         -4.3710   14.6580   -0.0150 C.2   197  TYR197      0.2595
    120  O         -3.2380   14.1850   -0.1660 O.2   197  TYR197     -0.2718
    121  CB        -6.5300   13.5440   -0.7150 C.3   197  TYR197      0.0548
    122  CG        -6.1460   12.0840   -0.7470 C.ar  197  TYR197     -0.0200
    123  CD1       -5.6700   11.4430    0.3980 C.ar  197  TYR197     -0.0009
    124  CD2       -6.2750   11.3400   -1.9130 C.ar  197  TYR197     -0.0009
    125  CE1       -5.3280   10.0990    0.3750 C.ar  197  TYR197      0.0417
    126  CE2       -5.9240    9.9980   -1.9520 C.ar  197  TYR197      0.0417
    127  CZ        -5.4570    9.3830   -0.8080 C.ar  197  TYR197      0.1957
    128  OH        -5.1250    8.0590   -0.8500 O.3   197  TYR197     -0.2866
    129  N         -4.7570   15.3130    1.0790 N.am  198  ASN198     -0.1974
    130  CA        -3.8100   15.7440    2.1110 C.3   198  ASN198      0.1688
    131  C         -2.6120   16.4560    1.4710 C.2   198  ASN198      0.2292
    132  O         -1.4690   16.2980    1.9160 O.2   198  ASN198     -0.2864
    133  CB        -3.3360   14.5460    2.9450 C.3   198  ASN198      0.1181
    134  CG        -4.4810   13.8210    3.6330 C.2   198  ASN198      0.2629
    135  OD1       -5.3420   14.4450    4.2540 O.2   198  ASN198     -0.2716
    136  ND2       -4.4930   12.4930    3.5300 N.am  198  ASN198     -0.0877
    137  N        -14.0530   12.9470    5.4850 N.3   256  ALA256     -0.1231
    138  CA       -13.2860   12.5050    6.6520 C.3   256  ALA256      0.1694
    139  C        -12.1570   11.5240    6.3410 C.2   256  ALA256      0.2592
    140  O        -11.3240   11.2290    7.2100 O.2   256  ALA256     -0.2718
    141  CB       -14.2100   11.9210    7.7180 C.3   256  ALA256      0.0304
    142  N        -12.1160   11.0190    5.1150 N.am  257  ALA257     -0.1966
    143  CA       -11.1050   10.0310    4.7440 C.3   257  ALA257      0.1728
    144  C         -9.7330   10.6740    4.5790 C.2   257  ALA257      0.2616
    145  O         -8.7080    9.9860    4.6140 O.2   257  ALA257     -0.2715
    146  CB       -11.5100    9.3060    3.4590 C.3   257  ALA257      0.0334
    147  N         -9.7330   11.9930    4.3800 N.am  258  ALA258     -0.1964
    148  CA        -8.5050   12.7770    4.2210 C.3   258  ALA258      0.1713
    149  C         -8.6200   14.0330    5.0720 C.2   258  ALA258      0.2458
    150  O         -9.0420   15.0810    4.5920 O.2   258  ALA258     -0.2730
    151  CB        -8.2990   13.1440    2.7620 C.3   258  ALA258      0.0333
    152  N         -8.2660   13.9200    6.3540 N.am  259  PRO259     -0.2727
    153  CA        -8.5430   14.9820    7.3140 C.3   259  PRO259      0.1402
    154  C         -7.8740   16.3100    6.9740 C.2   259  PRO259      0.2269
    155  O         -8.2520   17.3290    7.5260 O.2   259  PRO259     -0.2865
    156  CB        -7.9910   14.4180    8.6290 C.3   259  PRO259      0.0296
    157  CG        -8.0550   12.9330    8.4430 C.3   259  PRO259      0.0237
    158  CD        -7.7230   12.7120    7.0030 C.3   259  PRO259      0.0939
    159  N         -8.9810    6.0210   -1.0430 N.3   303  TRP303     -0.1241
    160  CA        -8.9260    5.7140    0.3570 C.3   303  TRP303      0.1605
    161  C        -10.2860    6.1510    0.8970 C.2   303  TRP303      0.2264
    162  O        -10.5300    7.3530    1.0270 O.2   303  TRP303     -0.2867
    163  CB        -7.8230    6.5350    1.0300 C.3   303  TRP303      0.0550
    164  CG        -7.6690    6.1700    2.4560 C.ar  303  TRP303      0.0003
    165  CD1       -8.2060    6.8160    3.5400 C.ar  303  TRP303      0.0946
    166  CD2       -6.9580    5.0390    2.9670 C.ar  303  TRP303      0.0152
    167  NE1       -7.8570    6.1540    4.6970 N.ar  303  TRP303     -0.2442
    168  CE2       -7.0910    5.0610    4.3720 C.ar  303  TRP303      0.0810
    169  CE3       -6.2030    4.0210    2.3750 C.ar  303  TRP303      0.0012
    170  CZ2       -6.5050    4.0910    5.1940 C.ar  303  TRP303      0.0191
    171  CZ3       -5.6260    3.0580    3.1900 C.ar  303  TRP303      0.0001
    172  CH2       -5.7760    3.1030    4.5850 C.ar  303  TRP303      0.0015
    173  N        -14.1390    3.6790    4.2560 N.3   307  TRP307     -0.1241
    174  CA       -14.6920    5.0400    4.3180 C.3   307  TRP307      0.1605
    175  C        -15.9080    5.1860    3.3990 C.2   307  TRP307      0.2264
    176  O        -16.9140    5.8080    3.7690 O.2   307  TRP307     -0.2867
    177  CB       -13.6230    6.0900    3.9830 C.3   307  TRP307      0.0550
    178  CG       -12.8140    6.4730    5.1860 C.ar  307  TRP307      0.0003
    179  CD1      -11.5010    6.1830    5.4250 C.ar  307  TRP307      0.0946
    180  CD2      -13.2770    7.2030    6.3250 C.ar  307  TRP307      0.0152
    181  NE1      -11.1170    6.7000    6.6430 N.ar  307  TRP307     -0.2442
    182  CE2      -12.1900    7.3330    7.2130 C.ar  307  TRP307      0.0810
    183  CE3      -14.5080    7.7680    6.6790 C.ar  307  TRP307      0.0012
    184  CZ2      -12.3010    7.9940    8.4390 C.ar  307  TRP307      0.0191
    185  CZ3      -14.6150    8.4270    7.8940 C.ar  307  TRP307      0.0001
    186  CH2      -13.5190    8.5370    8.7560 C.ar  307  TRP307      0.0015
@<TRIPOS>BOND
     1    94    95    1
     2   108   109    1
     3    95    96    1
     4    95    98    1
     5   102   101    2
     6   110   109    1
     7   110   111    2
     8   109   112    1
     9    96    97    2
    10   101   100    1
    11    99   100    1
    12    12    11    1
    13   100   103    1
    14   112   113    1
    15   117   118    1
    16    10    11   ar
    17    10     8   ar
    18   113   114    1
    19   126   124   ar
    20   126   127   ar
    21   124   122   ar
    22    11     9   ar
    23     8     6   ar
    24     1     2    1
    25    77    78    1
    26   103   104    1
    27   118   121    1
    28   118   119    1
    29   159   160    1
    30   128   127    1
    31   127   125   ar
    32   122   121    1
    33   122   123   ar
    34     9     7   ar
    35    78    81    1
    36    78    79    1
    37   114   116   am
    38   114   115    2
    39     6     7   ar
    40     6     5    1
    41     2     5    1
    42     2     3    1
    43   120   119    2
    44    81    82    1
    45   104   105    1
    46   119   129   am
    47    83    82   ar
    48   160   161    1
    49   160   163    1
    50   125   123   ar
    51    79    80    2
    52    82    84   ar
    53     3     4    2
    54   161   162    2
    55   163   164    1
    56   129   130    1
    57   105   106   ar
    58   105   107   ar
    59   131   132    2
    60   131   130    1
    61    93    91   am
    62   130   133    1
    63    90    91    1
    64    90    89    1
    65    85    86    1
    66   169   166   ar
    67   169   171   ar
    68   164   166   ar
    69   164   165   ar
    70    86    89    1
    71    86    87    1
    72    91    92    2
    73   151   148    1
    74   133   134    1
    75    41    39   ar
    76    41    42   ar
    77   166   168   ar
    78   171   172   ar
    79    52    53    1
    80   175   176    2
    81   175   174    1
    82    39    37   ar
    83   146   143    1
    84    87    88    2
    85   136   134   am
    86   165   167   ar
    87   134   135    2
    88    56    57    1
    89    56    54   am
    90    53    54    1
    91    42    40   ar
    92   177   174    1
    93   177   178    1
    94   148   147    1
    95   148   149    1
    96   173   174    1
    97    57    58    1
    98   168   167   ar
    99   168   170   ar
   100   147   144   am
   101    54    55    2
   102   144   145    2
   103   144   143    1
   104   172   170   ar
   105   150   149    2
   106   143   142    1
   107    37    36    1
   108    37    38   ar
   109    33    36    1
   110    33    34    1
   111    33    32    1
   112   149   152   am
   113   142   139   am
   114   178   179   ar
   115   178   180   ar
   116    40    38   ar
   117   179   181   ar
   118    34    35    2
   119   137   138    1
   120    58    59    2
   121    58    60   am
   122    60    61    1
   123   180   183   ar
   124   180   182   ar
   125   139   138    1
   126   139   140    2
   127   152   158    1
   128   152   153    1
   129   181   182   ar
   130   138   141    1
   131   183   185   ar
   132    61    64    1
   133    61    62    1
   134    43    44    1
   135   154   153    1
   136   154   155    2
   137   158   157    1
   138   182   184   ar
   139   153   156    1
   140    64    65    1
   141    44    45    1
   142    44    47    1
   143    62    63    2
   144    62    69   am
   145    22    23   ar
   146    22    20   ar
   147   185   186   ar
   148    23    21   ar
   149    46    45    2
   150    67    66    2
   151    48    47    1
   152    48    49    1
   153    65    66    1
   154   184   186   ar
   155   157   156    1
   156    69    70    1
   157    20    18   ar
   158    66    68   am
   159    51    49   ar
   160    49    50   ar
   161    21    19   ar
   162    71    70    1
   163    71    72    2
   164    31    29   am
   165    70    73    1
   166    13    14    1
   167    18    19   ar
   168    18    17    1
   169    16    15    2
   170    30    29    2
   171    29    28    1
   172    73    74    1
   173    14    17    1
   174    14    15    1
   175    76    74   am
   176    74    75    2
   177    28    25    1
   178    24    25    1
   179    25    26    1
   180    26    27    2
