@<TRIPOS>MOLECULE
tmp/3n18A00.pdb
 217 209 0 0 0
SMALL
GASTEIGER

@<TRIPOS>ATOM
      1  N         -8.6280   -0.4170    0.6710 N.3    10  TYR10      -0.1241
      2  CA        -7.8440    0.0320   -0.4740 C.3    10  TYR10       0.1605
      3  C         -8.7460    0.6180   -1.5520 C.2    10  TYR10       0.2264
      4  O         -9.8110    0.0790   -1.8480 O.2    10  TYR10      -0.2867
      5  CB        -7.0050   -1.1140   -1.0390 C.3    10  TYR10       0.0534
      6  CG        -5.7770   -1.3970   -0.2100 C.ar   10  TYR10      -0.0201
      7  CD1       -4.5390   -0.8950   -0.5810 C.ar   10  TYR10      -0.0009
      8  CD2       -5.8610   -2.1420    0.9580 C.ar   10  TYR10      -0.0009
      9  CE1       -3.4130   -1.1390    0.1780 C.ar   10  TYR10       0.0417
     10  CE2       -4.7390   -2.3930    1.7260 C.ar   10  TYR10       0.0417
     11  CZ        -3.5180   -1.8870    1.3300 C.ar   10  TYR10       0.1957
     12  OH        -2.3950   -2.1270    2.0880 O.3    10  TYR10      -0.2866
     13  N         -7.4120    3.3430  -10.4140 N.3    14  PHE14      -0.1241
     14  CA        -7.3630    2.6940  -11.7170 C.3    14  PHE14       0.1605
     15  C         -8.6350    1.8850  -11.9110 C.2    14  PHE14       0.2264
     16  O         -9.3350    1.5820  -10.9460 O.2    14  PHE14      -0.2867
     17  CB        -6.1640    1.7520  -11.7910 C.3    14  PHE14       0.0534
     18  CG        -6.1080    0.7590  -10.6650 C.ar   14  PHE14      -0.0203
     19  CD1       -6.8170   -0.4280  -10.7340 C.ar   14  PHE14      -0.0042
     20  CD2       -5.3510    1.0170   -9.5340 C.ar   14  PHE14      -0.0042
     21  CE1       -6.7690   -1.3430   -9.6960 C.ar   14  PHE14      -0.0003
     22  CE2       -5.2990    0.1080   -8.4940 C.ar   14  PHE14      -0.0003
     23  CZ        -6.0080   -1.0740   -8.5760 C.ar   14  PHE14      -0.0000
     24  N         -9.9680   -1.6440  -13.0110 N.3    16  ASN16      -0.1240
     25  CA        -9.6280   -3.0360  -13.2940 C.3    16  ASN16       0.1653
     26  C        -10.8590   -3.8830  -13.5940 C.2    16  ASN16       0.2266
     27  O        -10.8020   -5.1130  -13.5530 O.2    16  ASN16      -0.2867
     28  CB        -8.8430   -3.6500  -12.1310 C.3    16  ASN16       0.1155
     29  CG        -9.7090   -3.9060  -10.9130 C.2    16  ASN16       0.2627
     30  OD1      -10.8440   -3.4360  -10.8340 O.2    16  ASN16      -0.2716
     31  ND2       -9.1770   -4.6580   -9.9550 N.am   16  ASN16      -0.0877
     32  N         -2.1360    3.0280   -6.5960 N.3    37  PHE37      -0.1241
     33  CA        -0.9300    2.9890   -5.7700 C.3    37  PHE37       0.1605
     34  C          0.0080    4.1010   -6.2230 C.2    37  PHE37       0.2264
     35  O         -0.1390    4.6360   -7.3220 O.2    37  PHE37      -0.2867
     36  CB        -0.1850    1.6690   -5.9750 C.3    37  PHE37       0.0534
     37  CG        -0.9110    0.4650   -5.4660 C.ar   37  PHE37      -0.0203
     38  CD1       -1.6460   -0.3340   -6.3260 C.ar   37  PHE37      -0.0042
     39  CD2       -0.8400    0.1140   -4.1290 C.ar   37  PHE37      -0.0042
     40  CE1       -2.3090   -1.4510   -5.8590 C.ar   37  PHE37      -0.0003
     41  CE2       -1.5000   -1.0010   -3.6560 C.ar   37  PHE37      -0.0003
     42  CZ        -2.2360   -1.7860   -4.5220 C.ar   37  PHE37      -0.0000
     43  N          3.4660    4.6190   -7.7730 N.3    39  GLU39      -0.1245
     44  CA         4.2880    3.7080   -8.5650 C.3    39  GLU39       0.1567
     45  C          5.5550    4.3490   -9.1230 C.2    39  GLU39       0.2260
     46  O          5.6750    5.5720   -9.1870 O.2    39  GLU39      -0.2867
     47  CB         3.4610    3.0750   -9.6850 C.3    39  GLU39       0.0388
     48  CG         2.2770    2.2680   -9.1750 C.3    39  GLU39       0.1160
     49  CD         1.6000    1.4560  -10.2650 C.2    39  GLU39       0.3649
     50  OE1        2.2820    1.0570  -11.2330 O.co2  39  GLU39      -0.2457
     51  OE2        0.3810    1.2100  -10.1490 O.co2  39  GLU39      -0.2457
     52  N          1.0140   -5.0860   -6.5340 N.3    80  GLN80      -0.1231
     53  CA         1.2400   -6.1010   -7.5740 C.3    80  GLN80       0.1698
     54  C          2.0870   -5.5920   -8.7460 C.2    80  GLN80       0.2592
     55  O          2.9790   -6.2950   -9.2220 O.2    80  GLN80      -0.2718
     56  CB        -0.0920   -6.6550   -8.1010 C.3    80  GLN80       0.0381
     57  CG         0.0590   -7.5870   -9.3120 C.3    80  GLN80       0.0905
     58  CD        -1.2200   -7.7380  -10.1280 C.2    80  GLN80       0.2608
     59  OE1       -2.2230   -8.2730   -9.6520 O.2    80  GLN80      -0.2717
     60  NE2       -1.1780   -7.2820  -11.3740 N.am   80  GLN80      -0.0878
     61  N          1.8030   -4.3750   -9.2050 N.am   81  ASN81      -0.1974
     62  CA         2.5080   -3.7990  -10.3440 C.3    81  ASN81       0.1688
     63  C          3.3800   -2.6190   -9.9520 C.2    81  ASN81       0.2292
     64  O          3.6850   -1.7610  -10.7810 O.2    81  ASN81      -0.2864
     65  CB         1.5190   -3.3750  -11.4300 C.3    81  ASN81       0.1181
     66  CG         0.7010   -4.5370  -11.9550 C.2    81  ASN81       0.2629
     67  OD1        1.1000   -5.6960  -11.8370 O.2    81  ASN81      -0.2716
     68  ND2       -0.4520   -4.2320  -12.5410 N.am   81  ASN81      -0.0877
     69  N          3.2060   -1.5130    0.7200 N.3   114  ASP114     -0.1239
     70  CA         2.5560   -2.6670    0.1140 C.3   114  ASP114      0.1674
     71  C          3.4350   -3.2410   -0.9950 C.2   114  ASP114      0.2266
     72  O          2.9820   -3.4590   -2.1240 O.2   114  ASP114     -0.2867
     73  CB         1.1900   -2.2540   -0.4360 C.3   114  ASP114      0.1410
     74  CG         0.3480   -3.4340   -0.8680 C.2   114  ASP114      0.3668
     75  OD1        0.6410   -4.5750   -0.4550 O.co2 114  ASP114     -0.2456
     76  OD2       -0.6180   -3.2100   -1.6240 O.co2 114  ASP114     -0.2456
     77  N          5.5080   -6.1570   -2.6930 N.3   116  GLY116     -0.1210
     78  CA         5.4790   -7.6150   -2.7800 C.3   116  GLY116      0.1956
     79  C          6.5030   -8.1890   -3.7400 C.2   116  GLY116      0.2612
     80  O          6.3400   -9.2980   -4.2490 O.2   116  GLY116     -0.2717
     81  N          7.5610   -7.4270   -3.9940 N.am  117  SER117     -0.1952
     82  CA         8.6640   -7.8950   -4.8200 C.3   117  SER117      0.1924
     83  C          9.8760   -7.0120   -4.5690 C.2   117  SER117      0.2314
     84  O          9.7400   -5.8930   -4.0760 O.2   117  SER117     -0.2863
     85  CB         8.2850   -7.8810   -6.3020 C.3   117  SER117      0.2116
     86  OG         8.1400   -6.5570   -6.7850 O.3   117  SER117     -0.2180
     87  N          1.2640   -3.8130    4.3900 N.3   159  ALA159     -0.1245
     88  CA         0.4470   -4.9600    4.0160 C.3   159  ALA159      0.1562
     89  C          1.2650   -6.0560    3.3480 C.2   159  ALA159      0.2260
     90  O          0.9990   -6.4150    2.2010 O.2   159  ALA159     -0.2867
     91  CB        -0.6830   -4.5220    3.0940 C.3   159  ALA159      0.0290
     92  N          2.6880   -9.8240    2.4240 N.3   161  GLU161     -0.1245
     93  CA         2.1300  -11.1620    2.3320 C.3   161  GLU161      0.1567
     94  C          2.6790  -12.0210    3.4670 C.2   161  GLU161      0.2260
     95  O          3.7120  -11.7020    4.0550 O.2   161  GLU161     -0.2867
     96  CB         2.4550  -11.7680    0.9720 C.3   161  GLU161      0.0388
     97  CG         2.0330  -10.8660   -0.1760 C.3   161  GLU161      0.1160
     98  CD         2.2840  -11.4760   -1.5370 C.2   161  GLU161      0.3649
     99  OE1        2.3260  -12.7190   -1.6360 O.co2 161  GLU161     -0.2457
    100  OE2        2.4310  -10.7090   -2.5110 O.co2 161  GLU161     -0.2457
    101  N          4.2420  -14.8870    3.8070 N.3   163  ALA163     -0.1231
    102  CA         5.5880  -15.4530    3.7390 C.3   163  ALA163      0.1694
    103  C          6.6290  -14.5120    4.3470 C.2   163  ALA163      0.2592
    104  O          7.6030  -14.9610    4.9520 O.2   163  ALA163     -0.2718
    105  CB         5.9520  -15.7990    2.3000 C.3   163  ALA163      0.0304
    106  N          6.4090  -13.2100    4.1820 N.am  164  TYR164     -0.1976
    107  CA         7.3420  -12.1880    4.6510 C.3   164  TYR164      0.1639
    108  C          7.2800  -11.9680    6.1590 C.2   164  TYR164      0.2290
    109  O          8.1720  -11.3500    6.7410 O.2   164  TYR164     -0.2864
    110  CB         7.0550  -10.8540    3.9620 C.3   164  TYR164      0.0560
    111  CG         7.2730  -10.8400    2.4670 C.ar  164  TYR164     -0.0198
    112  CD1        8.5180  -10.5430    1.9300 C.ar  164  TYR164     -0.0009
    113  CD2        6.2280  -11.1010    1.5930 C.ar  164  TYR164     -0.0009
    114  CE1        8.7180  -10.5190    0.5630 C.ar  164  TYR164      0.0417
    115  CE2        6.4190  -11.0800    0.2250 C.ar  164  TYR164      0.0417
    116  CZ         7.6650  -10.7890   -0.2830 C.ar  164  TYR164      0.1957
    117  OH         7.8550  -10.7670   -1.6460 O.3   164  TYR164     -0.2866
    118  N         12.6730  -14.2910    0.7630 N.3   175  ILE175     -0.1245
    119  CA        11.4550  -13.5850    1.1640 C.3   175  ILE175      0.1561
    120  C         10.9550  -14.0170    2.5400 C.2   175  ILE175      0.2260
    121  O         10.1720  -13.3100    3.1740 O.2   175  ILE175     -0.2867
    122  CB        10.3070  -13.7680    0.1490 C.3   175  ILE175      0.0252
    123  CG1        9.8010  -15.2130    0.1500 C.3   175  ILE175      0.0019
    124  CG2       10.7480  -13.3470   -1.2380 C.3   175  ILE175      0.0019
    125  CD1        8.5610  -15.4250   -0.6910 C.3   175  ILE175      0.0001
    126  N         -1.6670   -9.5850    4.4340 N.3   196  GLN196     -0.1245
    127  CA        -2.6370  -10.1050    3.4810 C.3   196  GLN196      0.1566
    128  C         -2.9220  -11.5800    3.7450 C.2   196  GLN196      0.2260
    129  O         -2.1540  -12.4480    3.3340 O.2   196  GLN196     -0.2867
    130  CB        -2.1310   -9.9160    2.0510 C.3   196  GLN196      0.0367
    131  CG        -1.7660   -8.4800    1.7180 C.3   196  GLN196      0.0905
    132  CD        -1.3140   -8.3160    0.2830 C.2   196  GLN196      0.2608
    133  OE1       -1.7270   -9.0680   -0.5970 O.2   196  GLN196     -0.2717
    134  NE2       -0.4610   -7.3280    0.0380 N.am  196  GLN196     -0.0878
    135  N         -4.5840  -13.6510    2.3400 N.3   198  PHE198     -0.1227
    136  CA        -5.2200  -14.1660    1.1330 C.3   198  PHE198      0.1736
    137  C         -4.2180  -14.3830    0.0050 C.2   198  PHE198      0.2595
    138  O         -3.0890  -13.8950    0.0700 O.2   198  PHE198     -0.2718
    139  CB        -6.3840  -13.2670    0.6960 C.3   198  PHE198      0.0547
    140  CG        -6.0170  -11.8160    0.5390 C.ar  198  PHE198     -0.0202
    141  CD1       -5.5800  -11.3260   -0.6810 C.ar  198  PHE198     -0.0042
    142  CD2       -6.1300  -10.9380    1.6060 C.ar  198  PHE198     -0.0042
    143  CE1       -5.2490   -9.9930   -0.8300 C.ar  198  PHE198     -0.0003
    144  CE2       -5.7990   -9.6040    1.4630 C.ar  198  PHE198     -0.0003
    145  CZ        -5.3590   -9.1300    0.2440 C.ar  198  PHE198     -0.0000
    146  N         -4.6390  -15.1180   -1.0240 N.am  199  ASN199     -0.1974
    147  CA        -3.7240  -15.5890   -2.0610 C.3   199  ASN199      0.1688
    148  C         -2.4830  -16.1880   -1.4020 C.2   199  ASN199      0.2292
    149  O         -1.3600  -15.9880   -1.8690 O.2   199  ASN199     -0.2864
    150  CB        -3.3290  -14.4510   -3.0110 C.3   199  ASN199      0.1181
    151  CG        -4.5250  -13.8200   -3.7130 C.2   199  ASN199      0.2629
    152  OD1       -5.4470  -14.5110   -4.1470 O.2   199  ASN199     -0.2716
    153  ND2       -4.5040  -12.4980   -3.8390 N.am  199  ASN199     -0.0877
    154  N        -13.9040  -12.8870   -5.5820 N.3   257  ALA257     -0.1231
    155  CA       -13.1580  -12.4970   -6.7760 C.3   257  ALA257      0.1694
    156  C        -12.0320  -11.5070   -6.4870 C.2   257  ALA257      0.2592
    157  O        -11.1690  -11.2760   -7.3340 O.2   257  ALA257     -0.2718
    158  CB       -14.1010  -11.9340   -7.8340 C.3   257  ALA257      0.0304
    159  N        -12.0390  -10.9150   -5.2980 N.am  258  ALA258     -0.1966
    160  CA       -11.0050   -9.9490   -4.9490 C.3   258  ALA258      0.1728
    161  C         -9.6770  -10.6430   -4.6730 C.2   258  ALA258      0.2616
    162  O         -8.6280  -10.0020   -4.6560 O.2   258  ALA258     -0.2715
    163  CB       -11.4290   -9.1150   -3.7570 C.3   258  ALA258      0.0334
    164  N         -9.7360  -11.9530   -4.4510 N.am  259  ALA259     -0.1964
    165  CA        -8.5430  -12.7690   -4.2510 C.3   259  ALA259      0.1713
    166  C         -8.6680  -14.0430   -5.0810 C.2   259  ALA259      0.2458
    167  O         -9.0680  -15.0890   -4.5720 O.2   259  ALA259     -0.2730
    168  CB        -8.3640  -13.1020   -2.7800 C.3   259  ALA259      0.0333
    169  N         -8.3290  -13.9550   -6.3740 N.am  260  PRO260     -0.2716
    170  CA        -8.5560  -15.0460   -7.3190 C.3   260  PRO260      0.1536
    171  C         -7.8820  -16.3680   -6.9570 C.2   260  PRO260      0.2599
    172  O         -8.2480  -17.4060   -7.5070 O.2   260  PRO260     -0.2715
    173  CB        -7.9650  -14.5050   -8.6250 C.3   260  PRO260      0.0310
    174  CG        -8.0400  -13.0290   -8.4860 C.3   260  PRO260      0.0237
    175  CD        -7.7870  -12.7560   -7.0370 C.3   260  PRO260      0.0939
    176  N         -6.9010  -16.3370   -6.0610 N.am  261  SER261     -0.1950
    177  CA        -6.2010  -17.5590   -5.6750 C.3   261  SER261      0.1924
    178  C         -6.6830  -18.0860   -4.3250 C.2   261  SER261      0.2314
    179  O         -6.0600  -18.9660   -3.7280 O.2   261  SER261     -0.2863
    180  CB        -4.6890  -17.3310   -5.6610 C.3   261  SER261      0.2116
    181  OG        -4.2430  -16.8710   -6.9240 O.3   261  SER261     -0.2180
    182  N         -8.5490   -4.9030    7.5010 N.3   302  MET302     -0.1245
    183  CA        -8.2280   -4.2500    6.2400 C.3   302  MET302      0.1570
    184  C         -8.8550   -5.0700    5.1180 C.2   302  MET302      0.2261
    185  O         -9.0540   -6.2770    5.2630 O.2   302  MET302     -0.2867
    186  CB        -6.7090   -4.1740    6.0540 C.3   302  MET302      0.0387
    187  CG        -6.2470   -3.7270    4.6680 C.3   302  MET302      0.0595
    188  SD        -6.2590   -5.0570    3.4400 S.3   302  MET302     -0.1393
    189  CE        -4.5870   -5.6830    3.5930 C.3   302  MET302      0.0692
    190  N         -8.9070   -5.6560    0.6610 N.3   304  TRP304     -0.1241
    191  CA        -8.8280   -5.4080   -0.7600 C.3   304  TRP304      0.1605
    192  C        -10.1750   -5.8620   -1.3110 C.2   304  TRP304      0.2264
    193  O        -10.4350   -7.0610   -1.3740 O.2   304  TRP304     -0.2867
    194  CB        -7.7070   -6.2350   -1.3900 C.3   304  TRP304      0.0550
    195  CG        -7.5310   -5.9430   -2.8390 C.ar  304  TRP304      0.0003
    196  CD1       -8.0060   -6.6720   -3.8920 C.ar  304  TRP304      0.0946
    197  CD2       -6.8490   -4.8210   -3.4020 C.ar  304  TRP304      0.0152
    198  NE1       -7.6530   -6.0730   -5.0780 N.ar  304  TRP304     -0.2442
    199  CE2       -6.9410   -4.9340   -4.8030 C.ar  304  TRP304      0.0810
    200  CE3       -6.1630   -3.7320   -2.8560 C.ar  304  TRP304      0.0012
    201  CZ2       -6.3730   -4.0000   -5.6650 C.ar  304  TRP304      0.0191
    202  CZ3       -5.6010   -2.8060   -3.7130 C.ar  304  TRP304      0.0001
    203  CH2       -5.7080   -2.9460   -5.1020 C.ar  304  TRP304      0.0015
    204  N        -14.0030   -3.5010   -4.7600 N.3   308  TRP308     -0.1241
    205  CA       -14.5760   -4.8440   -4.7490 C.3   308  TRP308      0.1605
    206  C        -15.7580   -4.9350   -3.7890 C.2   308  TRP308      0.2264
    207  O        -16.7580   -5.5880   -4.0800 O.2   308  TRP308     -0.2867
    208  CB       -13.5180   -5.8880   -4.3840 C.3   308  TRP308      0.0550
    209  CG       -12.6990   -6.3230   -5.5520 C.ar  308  TRP308      0.0003
    210  CD1      -11.3790   -6.0640   -5.7730 C.ar  308  TRP308      0.0946
    211  CD2      -13.1520   -7.0900   -6.6730 C.ar  308  TRP308      0.0152
    212  NE1      -10.9790   -6.6270   -6.9620 N.ar  308  TRP308     -0.2442
    213  CE2      -12.0500   -7.2620   -7.5340 C.ar  308  TRP308      0.0810
    214  CE3      -14.3820   -7.6490   -7.0310 C.ar  308  TRP308      0.0012
    215  CZ2      -12.1420   -7.9690   -8.7310 C.ar  308  TRP308      0.0191
    216  CZ3      -14.4710   -8.3520   -8.2180 C.ar  308  TRP308      0.0001
    217  CH2      -13.3580   -8.5050   -9.0540 C.ar  308  TRP308      0.0015
@<TRIPOS>BOND
     1    26    27    2
     2    26    25    1
     3    25    24    1
     4    25    28    1
     5    68    66   am
     6    28    29    1
     7    66    67    2
     8    66    65    1
     9    15    14    1
    10    15    16    2
    11    17    14    1
    12    17    18    1
    13    14    13    1
    14    65    62    1
    15    60    58   am
    16    50    49   ar
    17    29    30    2
    18    29    31   am
    19    64    63    2
    20    19    18   ar
    21    19    21   ar
    22    18    20   ar
    23    62    63    1
    24    62    61    1
    25    49    51   ar
    26    49    48    1
    27    58    59    2
    28    58    57    1
    29    21    23   ar
    30    47    48    1
    31    47    44    1
    32    20    22   ar
    33    57    56    1
    34    55    54    2
    35    61    54   am
    36    46    45    2
    37    45    44    1
    38   217   215   ar
    39   217   216   ar
    40    54    53    1
    41   215   213   ar
    42   173   174    1
    43   173   170    1
    44    23    22   ar
    45    44    43    1
    46   174   175    1
    47   216   214   ar
    48    56    53    1
    49   158   155    1
    50    53    52    1
    51   213   212   ar
    52   213   211   ar
    53   172   171    2
    54   157   156    2
    55    35    34    2
    56   170   171    1
    57   170   169    1
    58   175   169    1
    59   214   211   ar
    60   212   210   ar
    61   171   176   am
    62   181   180    1
    63    86    85    1
    64   155   156    1
    65   155   154    1
    66   211   209   ar
    67    32    33    1
    68   156   159   am
    69   169   166   am
    70    38    40   ar
    71    38    37   ar
    72    85    82    1
    73    34    33    1
    74   176   177    1
    75    36    33    1
    76    36    37    1
    77    40    42   ar
    78   210   209   ar
    79   177   180    1
    80   177   178    1
    81   201   203   ar
    82   201   199   ar
    83   209   208    1
    84    37    39   ar
    85   159   160    1
    86   203   202   ar
    87   166   167    2
    88   166   165    1
    89   198   199   ar
    90   198   196   ar
    91   160   161    1
    92   160   163    1
    93    82    83    1
    94    82    81    1
    95   199   197   ar
    96   204   205    1
    97   205   208    1
    98   205   206    1
    99   161   162    2
   100   161   164   am
   101    83    84    2
   102    42    41   ar
   103   164   165    1
   104   178   179    2
   105   165   168    1
   106    80    79    2
   107   152   151    2
   108    39    41   ar
   109   207   206    2
   110    81    79   am
   111   196   195   ar
   112   153   151   am
   113    79    78    1
   114   202   200   ar
   115   151   150    1
   116   197   200   ar
   117   197   195   ar
   118   150   147    1
   119   195   194    1
   120    78    77    1
   121   100    98   ar
   122    72    71    2
   123   147   148    1
   124   147   146    1
   125   149   148    2
   126     4     3    2
   127   117   116    1
   128    99    98   ar
   129    76    74   ar
   130     3     2    1
   131    98    97    1
   132   194   191    1
   133   193   192    2
   134   192   191    1
   135   124   122    1
   136     5     2    1
   137     5     6    1
   138   146   137   am
   139    71    70    1
   140    74    75   ar
   141    74    73    1
   142   143   141   ar
   143   143   145   ar
   144   191   190    1
   145   125   123    1
   146   141   140   ar
   147   133   132    2
   148     7     6   ar
   149     7     9   ar
   150     2     1    1
   151    73    70    1
   152   116   115   ar
   153   116   114   ar
   154     6     8   ar
   155    97    96    1
   156   137   138    2
   157   137   136    1
   158   134   132   am
   159    70    69    1
   160   122   123    1
   161   122   119    1
   162     9    11   ar
   163   115   113   ar
   164   145   144   ar
   165   132   131    1
   166   140   139    1
   167   140   142   ar
   168   114   112   ar
   169   139   136    1
   170   118   119    1
   171     8    10   ar
   172    96    93    1
   173   136   135    1
   174   119   120    1
   175    11    10   ar
   176    11    12    1
   177   144   142   ar
   178   113   111   ar
   179   131   130    1
   180   112   111   ar
   181   130   127    1
   182    90    89    2
   183   105   102    1
   184    93    92    1
   185    93    94    1
   186   111   110    1
   187   120   121    2
   188    91    88    1
   189   129   128    2
   190    89    88    1
   191   188   189    1
   192   188   187    1
   193    94    95    2
   194   127   128    1
   195   127   126    1
   196   102   101    1
   197   102   103    1
   198   110   107    1
   199    88    87    1
   200   106   103   am
   201   106   107    1
   202   103   104    2
   203   107   108    1
   204   187   186    1
   205   184   185    2
   206   184   183    1
   207   186   183    1
   208   108   109    2
   209   183   182    1
