@<TRIPOS>MOLECULE
tmp/3n1aA00.pdb
 147 140 0 0 0
SMALL
GASTEIGER

@<TRIPOS>ATOM
      1  N         -8.7100   -0.4510    0.6570 N.3    10  TYR10      -0.1241
      2  CA        -7.9070   -0.0100   -0.4770 C.3    10  TYR10       0.1605
      3  C         -8.8010    0.5790   -1.5580 C.2    10  TYR10       0.2264
      4  O         -9.8660    0.0430   -1.8600 O.2    10  TYR10      -0.2867
      5  CB        -7.0610   -1.1590   -1.0360 C.3    10  TYR10       0.0534
      6  CG        -5.8130   -1.4180   -0.2250 C.ar   10  TYR10      -0.0201
      7  CD1       -4.5780   -0.9380   -0.6440 C.ar   10  TYR10      -0.0009
      8  CD2       -5.8730   -2.1180    0.9710 C.ar   10  TYR10      -0.0009
      9  CE1       -3.4350   -1.1620    0.1010 C.ar   10  TYR10       0.0417
     10  CE2       -4.7340   -2.3490    1.7230 C.ar   10  TYR10       0.0417
     11  CZ        -3.5190   -1.8680    1.2840 C.ar   10  TYR10       0.1957
     12  OH        -2.3850   -2.0910    2.0300 O.3    10  TYR10      -0.2866
     13  N         -7.4760    3.3330  -10.3940 N.3    14  PHE14      -0.1241
     14  CA        -7.4310    2.6650  -11.6800 C.3    14  PHE14       0.1605
     15  C         -8.7350    1.9110  -11.8860 C.2    14  PHE14       0.2264
     16  O         -9.4960    1.7020  -10.9390 O.2    14  PHE14      -0.2867
     17  CB        -6.2550    1.6870  -11.7170 C.3    14  PHE14       0.0534
     18  CG        -6.2500    0.6990  -10.5780 C.ar   14  PHE14      -0.0203
     19  CD1       -6.9830   -0.4750  -10.6580 C.ar   14  PHE14      -0.0042
     20  CD2       -5.5130    0.9450   -9.4290 C.ar   14  PHE14      -0.0042
     21  CE1       -6.9830   -1.3850   -9.6140 C.ar   14  PHE14      -0.0003
     22  CE2       -5.5100    0.0400   -8.3810 C.ar   14  PHE14      -0.0003
     23  CZ        -6.2490   -1.1250   -8.4740 C.ar   14  PHE14      -0.0000
     24  N        -10.0130   -1.6850  -12.9770 N.3    16  ASN16      -0.1240
     25  CA        -9.6130   -3.0590  -13.2430 C.3    16  ASN16       0.1653
     26  C        -10.8090   -3.9510  -13.5530 C.2    16  ASN16       0.2266
     27  O        -10.7030   -5.1770  -13.5310 O.2    16  ASN16      -0.2867
     28  CB        -8.8320   -3.6300  -12.0590 C.3    16  ASN16       0.1155
     29  CG        -9.7270   -3.9740  -10.8860 C.2    16  ASN16       0.2627
     30  OD1      -10.8450   -3.4700  -10.7720 O.2    16  ASN16      -0.2716
     31  ND2       -9.2380   -4.8400  -10.0040 N.am   16  ASN16      -0.0877
     32  N         -2.1920    2.9990   -6.6180 N.3    37  PHE37      -0.1241
     33  CA        -0.9840    2.9770   -5.7960 C.3    37  PHE37       0.1605
     34  C         -0.0570    4.1060   -6.2290 C.2    37  PHE37       0.2264
     35  O         -0.1840    4.6340   -7.3330 O.2    37  PHE37      -0.2867
     36  CB        -0.2160    1.6690   -6.0020 C.3    37  PHE37       0.0534
     37  CG        -0.9150    0.4520   -5.4760 C.ar   37  PHE37      -0.0203
     38  CD1       -1.6230   -0.3780   -6.3290 C.ar   37  PHE37      -0.0042
     39  CD2       -0.8410    0.1230   -4.1330 C.ar   37  PHE37      -0.0042
     40  CE1       -2.2600   -1.5060   -5.8480 C.ar   37  PHE37      -0.0003
     41  CE2       -1.4760   -1.0040   -3.6460 C.ar   37  PHE37      -0.0003
     42  CZ        -2.1860   -1.8180   -4.5040 C.ar   37  PHE37      -0.0000
     43  N          3.3360    4.7370   -7.7560 N.3    39  GLU39      -0.1245
     44  CA         4.1500    3.8530   -8.5850 C.3    39  GLU39       0.1567
     45  C          5.4850    4.4580   -9.0200 C.2    39  GLU39       0.2260
     46  O          5.6840    5.6710   -8.9660 O.2    39  GLU39      -0.2867
     47  CB         3.3480    3.3770   -9.7980 C.3    39  GLU39       0.0388
     48  CG         2.0250    2.7300   -9.4160 C.3    39  GLU39       0.1160
     49  CD         1.2920    2.1380  -10.6030 C.2    39  GLU39       0.3649
     50  OE1        1.7760    2.2930  -11.7470 O.co2  39  GLU39      -0.2457
     51  OE2        0.2330    1.5100  -10.3890 O.co2  39  GLU39      -0.2457
     52  N          2.0160   -2.4040   -5.3320 N.3    79  GLY79      -0.1210
     53  CA         1.2170   -2.9320   -6.4290 C.3    79  GLY79       0.1956
     54  C          2.1490   -3.4580   -7.5020 C.2    79  GLY79       0.2612
     55  O          3.3630   -3.4890   -7.3090 O.2    79  GLY79      -0.2717
     56  N          1.5920   -3.8650   -8.6390 N.am   80  GLN80      -0.1965
     57  CA         2.3990   -4.4450   -9.7070 C.3    80  GLN80       0.1733
     58  C          3.3020   -3.4370  -10.4040 C.2    80  GLN80       0.2616
     59  O          4.3700   -3.7910  -10.8960 O.2    80  GLN80      -0.2715
     60  CB         1.4990   -5.1130  -10.7370 C.3    80  GLN80       0.0408
     61  CG         0.5550   -6.1250  -10.1240 C.3    80  GLN80       0.0908
     62  CD        -0.4240   -6.7100  -11.1290 C.2    80  GLN80       0.2608
     63  OE1       -0.6960   -7.9110  -11.1170 O.2    80  GLN80      -0.2717
     64  NE2       -0.9590   -5.8630  -12.0050 N.am   80  GLN80      -0.0878
     65  N          2.8680   -2.1850  -10.4620 N.am   81  ASN81      -0.1972
     66  CA         3.6420   -1.1530  -11.1420 C.3    81  ASN81       0.1688
     67  C          4.3690   -0.2170  -10.1830 C.2    81  ASN81       0.2292
     68  O          4.8340    0.8490  -10.5860 O.2    81  ASN81      -0.2864
     69  CB         2.7440   -0.3320  -12.0700 C.3    81  ASN81       0.1181
     70  CG         2.1440   -1.1610  -13.1920 C.2    81  ASN81       0.2629
     71  OD1        1.8060   -2.3320  -13.0090 O.2    81  ASN81      -0.2716
     72  ND2        2.0010   -0.5500  -14.3630 N.am   81  ASN81      -0.0877
     73  N          3.1520   -1.4830    0.7090 N.3   114  ASP114     -0.1239
     74  CA         2.5210   -2.6390    0.0920 C.3   114  ASP114      0.1674
     75  C          3.4240   -3.2030   -1.0010 C.2   114  ASP114      0.2266
     76  O          2.9910   -3.4410   -2.1300 O.2   114  ASP114     -0.2867
     77  CB         1.1560   -2.2400   -0.4710 C.3   114  ASP114      0.1410
     78  CG         0.3450   -3.4260   -0.9470 C.2   114  ASP114      0.3668
     79  OD1        0.6480   -4.5770   -0.5610 O.co2 114  ASP114     -0.2456
     80  OD2       -0.6120   -3.1950   -1.7120 O.co2 114  ASP114     -0.2456
     81  N          1.2050   -3.8550    4.3950 N.3   159  ALA159     -0.1245
     82  CA         0.3820   -4.9940    3.9980 C.3   159  ALA159      0.1562
     83  C          1.2080   -6.0780    3.3120 C.2   159  ALA159      0.2260
     84  O          0.9470   -6.4310    2.1630 O.2   159  ALA159     -0.2867
     85  CB        -0.7530   -4.5410    3.0910 C.3   159  ALA159      0.0290
     86  N         -1.7060   -9.6410    4.4060 N.3   196  GLN196     -0.1245
     87  CA        -2.6680  -10.1540    3.4410 C.3   196  GLN196      0.1566
     88  C         -2.9690  -11.6250    3.7040 C.2   196  GLN196      0.2260
     89  O         -2.2130  -12.4990    3.2900 O.2   196  GLN196     -0.2867
     90  CB        -2.1390   -9.9780    2.0150 C.3   196  GLN196      0.0367
     91  CG        -1.8630   -8.5330    1.6260 C.3   196  GLN196      0.0905
     92  CD        -1.3460   -8.4020    0.2050 C.2   196  GLN196      0.2608
     93  OE1       -1.5690   -9.2760   -0.6310 O.2   196  GLN196     -0.2717
     94  NE2       -0.6480   -7.3080   -0.0740 N.am  196  GLN196     -0.0878
     95  N         -4.6810  -13.6600    2.2740 N.3   198  PHE198     -0.1227
     96  CA        -5.3110  -14.1810    1.0630 C.3   198  PHE198      0.1736
     97  C         -4.2930  -14.4180   -0.0510 C.2   198  PHE198      0.2595
     98  O         -3.1620  -13.9350    0.0220 O.2   198  PHE198     -0.2718
     99  CB        -6.4610  -13.2750    0.6010 C.3   198  PHE198      0.0547
    100  CG        -6.0960  -11.8220    0.4950 C.ar  198  PHE198     -0.0202
    101  CD1       -5.6920  -11.2840   -0.7130 C.ar  198  PHE198     -0.0042
    102  CD2       -6.1760  -10.9890    1.6020 C.ar  198  PHE198     -0.0042
    103  CE1       -5.3630   -9.9450   -0.8170 C.ar  198  PHE198     -0.0003
    104  CE2       -5.8490   -9.6520    1.5070 C.ar  198  PHE198     -0.0003
    105  CZ        -5.4400   -9.1270    0.2970 C.ar  198  PHE198     -0.0000
    106  N         -4.6950  -15.1650   -1.0760 N.am  199  ASN199     -0.1974
    107  CA        -3.7550  -15.6200   -2.0960 C.3   199  ASN199      0.1688
    108  C         -2.5130  -16.2070   -1.4210 C.2   199  ASN199      0.2292
    109  O         -1.3910  -16.0130   -1.8890 O.2   199  ASN199     -0.2864
    110  CB        -3.3530  -14.4680   -3.0270 C.3   199  ASN199      0.1181
    111  CG        -4.5450  -13.8170   -3.7180 C.2   199  ASN199      0.2629
    112  OD1       -5.4890  -14.4900   -4.1390 O.2   199  ASN199     -0.2716
    113  ND2       -4.4960  -12.4970   -3.8510 N.am  199  ASN199     -0.0877
    114  N        -12.0940  -10.8980   -5.2880 N.3   258  ALA258     -0.1245
    115  CA       -11.0500   -9.9360   -4.9520 C.3   258  ALA258      0.1562
    116  C         -9.7210  -10.6380   -4.6850 C.2   258  ALA258      0.2260
    117  O         -8.6710  -10.0040   -4.6760 O.2   258  ALA258     -0.2867
    118  CB       -11.4620   -9.0740   -3.7650 C.3   258  ALA258      0.0290
    119  N         -8.4360  -14.0090   -6.3940 N.3   260  PRO260     -0.2116
    120  CA        -8.6540  -15.0970   -7.3490 C.3   260  PRO260      0.1372
    121  C         -7.9470  -16.4020   -6.9870 C.2   260  PRO260      0.2244
    122  O         -8.2740  -17.4530   -7.5440 O.2   260  PRO260     -0.2868
    123  CB        -8.0740  -14.5360   -8.6520 C.3   260  PRO260      0.0268
    124  CG        -8.1640  -13.0610   -8.4970 C.3   260  PRO260      0.0207
    125  CD        -7.8850  -12.8100   -7.0470 C.3   260  PRO260      0.0892
    126  N         -8.5550   -4.8890    7.4420 N.3   302  MET302     -0.1245
    127  CA        -8.2720   -4.2220    6.1820 C.3   302  MET302      0.1570
    128  C         -8.9120   -5.0470    5.0720 C.2   302  MET302      0.2261
    129  O         -9.1400   -6.2480    5.2360 O.2   302  MET302     -0.2867
    130  CB        -6.7610   -4.1050    5.9640 C.3   302  MET302      0.0387
    131  CG        -6.3540   -3.7090    4.5520 C.3   302  MET302      0.0595
    132  SD        -6.3320   -5.1050    3.4050 S.3   302  MET302     -0.1393
    133  CE        -4.6260   -5.6350    3.5150 C.3   302  MET302      0.0692
    134  N         -9.0210   -5.6650    0.6250 N.3   304  TRP304     -0.1241
    135  CA        -8.9290   -5.4460   -0.7990 C.3   304  TRP304      0.1605
    136  C        -10.2670   -5.9090   -1.3550 C.2   304  TRP304      0.2264
    137  O        -10.5130   -7.1090   -1.4470 O.2   304  TRP304     -0.2867
    138  CB        -7.8150   -6.2970   -1.4020 C.3   304  TRP304      0.0550
    139  CG        -7.5900   -5.9860   -2.8380 C.ar  304  TRP304      0.0003
    140  CD1       -8.0350   -6.6950   -3.9170 C.ar  304  TRP304      0.0946
    141  CD2       -6.8900   -4.8570   -3.3580 C.ar  304  TRP304      0.0152
    142  NE1       -7.6410   -6.0770   -5.0800 N.ar  304  TRP304     -0.2442
    143  CE2       -6.9350   -4.9460   -4.7620 C.ar  304  TRP304      0.0810
    144  CE3       -6.2210   -3.7800   -2.7700 C.ar  304  TRP304      0.0012
    145  CZ2       -6.3370   -3.9990   -5.5870 C.ar  304  TRP304      0.0191
    146  CZ3       -5.6270   -2.8410   -3.5920 C.ar  304  TRP304      0.0001
    147  CH2       -5.6870   -2.9580   -4.9850 C.ar  304  TRP304      0.0015
@<TRIPOS>BOND
     1    72    70   am
     2    26    27    2
     3    26    25    1
     4    25    24    1
     5    25    28    1
     6    70    71    2
     7    70    69    1
     8    69    66    1
     9    28    29    1
    10    64    62   am
    11    15    14    1
    12    15    16    2
    13    50    49   ar
    14    17    14    1
    15    17    18    1
    16    14    13    1
    17    66    65    1
    18    66    67    1
    19    62    63    2
    20    62    61    1
    21    59    58    2
    22    29    30    2
    23    29    31   am
    24    60    61    1
    25    60    57    1
    26    19    18   ar
    27    19    21   ar
    28    49    51   ar
    29    49    48    1
    30    68    67    2
    31    18    20   ar
    32    65    58   am
    33    58    57    1
    34    47    48    1
    35    47    44    1
    36    57    56    1
    37    21    23   ar
    38    20    22   ar
    39    45    46    2
    40    45    44    1
    41   123   124    1
    42   123   120    1
    43    56    54   am
    44    44    43    1
    45   124   125    1
    46    23    22   ar
    47   122   121    2
    48    54    55    2
    49    54    53    1
    50   120   121    1
    51   120   119    1
    52    35    34    2
    53   125   119    1
    54    32    33    1
    55    53    52    1
    56    38    40   ar
    57    38    37   ar
    58    34    33    1
    59    36    33    1
    60    36    37    1
    61    40    42   ar
    62   145   147   ar
    63   145   143   ar
    64    37    39   ar
    65   114   115    1
    66   142   143   ar
    67   142   140   ar
    68   147   146   ar
    69   115   116    1
    70   115   118    1
    71   143   141   ar
    72   116   117    2
    73    42    41   ar
    74   112   111    2
    75    39    41   ar
    76   140   139   ar
    77   113   111   am
    78   111   110    1
    79   146   144   ar
    80   141   139   ar
    81   141   144   ar
    82   110   107    1
    83   139   138    1
    84    76    75    2
    85   107   108    1
    86   107   106    1
    87   109   108    2
    88     4     3    2
    89    80    78   ar
    90     3     2    1
    91   137   136    2
    92   138   135    1
    93   136   135    1
    94   106    97   am
    95     5     2    1
    96     5     6    1
    97    75    74    1
    98    78    79   ar
    99    78    77    1
   100   103   101   ar
   101   103   105   ar
   102   135   134    1
   103   101   100   ar
   104     7     6   ar
   105     7     9   ar
   106    93    92    2
   107     2     1    1
   108    77    74    1
   109     6     8   ar
   110    94    92   am
   111    97    98    2
   112    97    96    1
   113    74    73    1
   114     9    11   ar
   115    92    91    1
   116   105   104   ar
   117   100    99    1
   118   100   102   ar
   119    99    96    1
   120     8    10   ar
   121    96    95    1
   122    11    10   ar
   123    11    12    1
   124   104   102   ar
   125    91    90    1
   126    90    87    1
   127    84    83    2
   128    85    82    1
   129    89    88    2
   130    83    82    1
   131   132   133    1
   132   132   131    1
   133    87    88    1
   134    87    86    1
   135    82    81    1
   136   131   130    1
   137   128   129    2
   138   128   127    1
   139   130   127    1
   140   127   126    1
