@<TRIPOS>MOLECULE
tmp/3n1cD00.pdb
 122 109 0 0 0
SMALL
GASTEIGER

@<TRIPOS>ATOM
      1  N         49.2550    0.1550   57.0670 N.3    10  ALA10      -0.1245
      2  CA        48.6830   -1.0120   56.4010 C.3    10  ALA10       0.1562
      3  C         49.4580   -1.3270   55.1330 C.2    10  ALA10       0.2260
      4  O         49.0230   -0.9820   54.0370 O.2    10  ALA10      -0.2867
      5  CB        47.2140   -0.7740   56.0760 C.3    10  ALA10       0.0290
      6  N         51.2470   -3.6620   52.0960 N.3    12  SER12      -0.1217
      7  CA        50.6940   -4.7150   51.2630 C.3    12  SER12       0.1889
      8  C         51.7940   -5.3560   50.4420 C.2    12  SER12       0.2288
      9  O         52.6610   -4.6610   49.9180 O.2    12  SER12      -0.2866
     10  CB        49.6190   -4.1600   50.3290 C.3    12  SER12       0.2089
     11  OG        49.1690   -5.1600   49.4290 O.3    12  SER12      -0.2183
     12  N         51.9930   -6.6310   47.1490 N.3    14  ASP14      -0.1239
     13  CA        51.2120   -6.5720   45.9200 C.3    14  ASP14       0.1674
     14  C         51.6430   -7.6580   44.9510 C.2    14  ASP14       0.2266
     15  O         52.8370   -7.9040   44.7750 O.2    14  ASP14      -0.2867
     16  CB        51.3870   -5.2130   45.2350 C.3    14  ASP14       0.1410
     17  CG        50.7130   -4.0830   45.9900 C.2    14  ASP14       0.3668
     18  OD1       49.8800   -4.3520   46.8800 O.co2  14  ASP14      -0.2456
     19  OD2       51.0220   -2.9160   45.6820 O.co2  14  ASP14      -0.2456
     20  N         54.0900   -2.9280   48.5080 N.3    38  GLY38      -0.1210
     21  CA        52.9710   -2.0180   48.3300 C.3    38  GLY38       0.1956
     22  C         52.5300   -1.3250   49.6080 C.2    38  GLY38       0.2612
     23  O         53.1240   -1.5210   50.6700 O.2    38  GLY38      -0.2717
     24  N         51.4770   -0.5180   49.5090 N.am   39  GLY39      -0.1942
     25  CA        51.0290    0.2890   50.6340 C.3    39  GLY39       0.2014
     26  C         51.5050    1.7150   50.4340 C.2    39  GLY39       0.2639
     27  O         52.5640    1.9350   49.8520 O.2    39  GLY39      -0.2714
     28  N         50.7320    2.6810   50.9190 N.am   40  GLY40      -0.1954
     29  CA        50.9720    4.0810   50.6100 C.3    40  GLY40       0.1869
     30  C         52.3480    4.6360   50.9380 C.2    40  GLY40       0.2309
     31  O         53.0690    5.0870   50.0510 O.2    40  GLY40      -0.2863
     32  N         55.0790    2.8870   48.9450 N.3    43  ASN43      -0.1240
     33  CA        55.1770    3.3640   47.5680 C.3    43  ASN43       0.1653
     34  C         55.8360    4.7390   47.4950 C.2    43  ASN43       0.2266
     35  O         56.6480    4.9990   46.6080 O.2    43  ASN43      -0.2867
     36  CB        53.8070    3.3680   46.8880 C.3    43  ASN43       0.1155
     37  CG        53.3000    1.9670   46.6130 C.2    43  ASN43       0.2627
     38  OD1       54.0860    1.0270   46.4750 O.2    43  ASN43      -0.2716
     39  ND2       51.9870    1.8180   46.5360 N.am   43  ASN43      -0.0877
     40  N         48.9940   -8.2820   54.3490 N.3    90  ARG90      -0.1245
     41  CA        47.9850   -8.6200   53.3500 C.3    90  ARG90       0.1563
     42  C         48.5840   -8.7290   51.9510 C.2    90  ARG90       0.2260
     43  O         49.6980   -8.2690   51.6910 O.2    90  ARG90      -0.2867
     44  CB        46.8830   -7.5630   53.3330 C.3    90  ARG90       0.0307
     45  CG        47.3600   -6.2340   52.7580 C.3    90  ARG90       0.0489
     46  CD        46.2590   -5.1870   52.6940 C.3    90  ARG90       0.2205
     47  NE        46.8240   -3.8430   52.7430 N.pl3  90  ARG90      -0.0865
     48  CZ        46.2050   -2.7450   52.3220 C.cat  90  ARG90       0.5346
     49  NH1       44.9880   -2.8150   51.7980 N.pl3  90  ARG90       0.1354
     50  NH2       46.8180   -1.5730   52.4150 N.pl3  90  ARG90       0.1354
     51  N         47.4200   -7.8450   48.0210 N.3    92  ASN92      -0.1240
     52  CA        46.4500   -7.2630   47.1070 C.3    92  ASN92       0.1653
     53  C         46.7740   -7.6920   45.6780 C.2    92  ASN92       0.2266
     54  O         47.9440   -7.7700   45.2990 O.2    92  ASN92      -0.2867
     55  CB        46.4430   -5.7410   47.2430 C.3    92  ASN92       0.1155
     56  CG        45.9550   -5.2760   48.6110 C.2    92  ASN92       0.2627
     57  OD1       45.3580   -6.0450   49.3660 O.2    92  ASN92      -0.2716
     58  ND2       46.2060   -4.0090   48.9320 N.am   92  ASN92      -0.0877
     59  N         46.5810   -7.1280   41.6020 N.3    94  HIS94      -0.1241
     60  CA        46.4020   -6.1620   40.5280 C.3    94  HIS94       0.1621
     61  C         46.3660   -6.9100   39.2070 C.2    94  HIS94       0.2264
     62  O         47.2970   -7.6380   38.8690 O.2    94  HIS94      -0.2867
     63  CB        47.5390   -5.1390   40.5340 C.3    94  HIS94       0.0745
     64  CG        47.5870   -4.3020   41.7740 C.ar   94  HIS94       0.0817
     65  ND1       48.2240   -4.7130   42.9270 N.ar   94  HIS94      -0.2268
     66  CD2       47.0720   -3.0820   42.0490 C.ar   94  HIS94       0.1154
     67  CE1       48.1000   -3.7820   43.8530 C.ar   94  HIS94       0.1986
     68  NE2       47.4040   -2.7790   43.3460 N.ar   94  HIS94      -0.2212
     69  N         42.0350   -3.4990   40.5920 N.3   105  ARG105     -0.1245
     70  CA        42.7540   -3.5570   41.8580 C.3   105  ARG105      0.1563
     71  C         41.8810   -4.0980   42.9720 C.2   105  ARG105      0.2260
     72  O         40.9180   -3.4550   43.3920 O.2   105  ARG105     -0.2867
     73  CB        43.2830   -2.1740   42.2340 C.3   105  ARG105      0.0307
     74  CG        44.1370   -1.5350   41.1530 C.3   105  ARG105      0.0489
     75  CD        44.0950   -0.0250   41.2640 C.3   105  ARG105      0.2205
     76  NE        45.0320    0.4900   42.2540 N.pl3 105  ARG105     -0.0865
     77  CZ        45.0260    1.7390   42.7040 C.cat 105  ARG105      0.5346
     78  NH1       44.1220    2.6030   42.2620 N.pl3 105  ARG105      0.1354
     79  NH2       45.9230    2.1240   43.5980 N.pl3 105  ARG105      0.1354
     80  N         41.7020   -4.7930   46.6360 N.3   107  VAL107     -0.1245
     81  CA        42.3810   -4.3360   47.8360 C.3   107  VAL107      0.1561
     82  C         41.7440   -4.9140   49.0940 C.2   107  VAL107      0.2260
     83  O         40.6600   -4.4940   49.5070 O.2   107  VAL107     -0.2867
     84  CB        42.3930   -2.8000   47.9040 C.3   107  VAL107      0.0252
     85  CG1       43.0820   -2.3150   49.1700 C.3   107  VAL107      0.0019
     86  CG2       43.0720   -2.2160   46.6660 C.3   107  VAL107      0.0019
     87  N         48.3160    5.9240   53.2100 N.3   138  GLY138     -0.1210
     88  CA        47.6460    4.6370   53.1190 C.3   138  GLY138      0.1956
     89  C         46.5130    4.5170   54.1190 C.2   138  GLY138      0.2612
     90  O         46.3410    5.3800   54.9800 O.2   138  GLY138     -0.2717
     91  N         45.7390    3.4430   54.0100 N.am  139  SER139     -0.1952
     92  CA        44.5730    3.2460   54.8680 C.3   139  SER139      0.1924
     93  C         44.9390    2.8940   56.3120 C.2   139  SER139      0.2314
     94  O         46.0560    2.4670   56.6000 O.2   139  SER139     -0.2863
     95  CB        43.6730    2.1570   54.2820 C.3   139  SER139      0.2116
     96  OG        44.3510    0.9150   54.2350 O.3   139  SER139     -0.2180
     97  N         47.5680    3.7180   38.1890 N.3   252  VAL252     -0.1231
     98  CA        47.6070    3.3280   39.5700 C.3   252  VAL252      0.1692
     99  C         48.6460    3.9280   40.5120 C.2   252  VAL252      0.2592
    100  O         48.2900    4.4920   41.5000 O.2   252  VAL252     -0.2718
    101  CB        47.7850    1.8360   39.6020 C.3   252  VAL252      0.0266
    102  CG1       48.6380    1.4720   40.6780 C.3   252  VAL252      0.0020
    103  CG2       46.4330    1.1580   39.6540 C.3   252  VAL252      0.0020
    104  N         49.9140    3.9000   40.1440 N.am  253  GLY253     -0.1957
    105  CA        50.9770    4.4470   40.9670 C.3   253  GLY253      0.1869
    106  C         51.2490    5.9290   40.8100 C.2   253  GLY253      0.2309
    107  O         52.2830    6.4200   41.2610 O.2   253  GLY253     -0.2863
    108  N         50.9590    8.0310   44.6510 N.3   256  ASP256     -0.1239
    109  CA        52.0820    7.8430   45.5600 C.3   256  ASP256      0.1674
    110  C         53.3970    8.3640   44.9730 C.2   256  ASP256      0.2266
    111  O         54.2510    8.8720   45.6970 O.2   256  ASP256     -0.2867
    112  CB        52.1990    6.3720   45.9590 C.3   256  ASP256      0.1410
    113  CG        50.9610    5.8680   46.6810 C.2   256  ASP256      0.3668
    114  OD1       50.7150    4.6450   46.6480 O.co2 256  ASP256     -0.2456
    115  OD2       50.2320    6.6980   47.2770 O.co2 256  ASP256     -0.2456
    116  N         52.1250   -1.1090   39.5500 N.3   292  THR292     -0.1218
    117  CA        52.9710   -1.3480   40.7140 C.3   292  THR292      0.1862
    118  C         54.3930   -0.8210   40.5810 C.2   292  THR292      0.2287
    119  O         55.1420   -0.7200   41.5210 O.2   292  THR292     -0.2866
    120  CB        53.0030   -2.7850   40.9520 C.3   292  THR292      0.1770
    121  OG1       52.9460   -3.4050   39.6750 O.3   292  THR292     -0.2211
    122  CG2       51.7850   -3.1880   41.7600 C.3   292  THR292      0.0375
@<TRIPOS>BOND
     1    97    98    1
     2    62    61    2
     3    61    60    1
     4   116   117    1
     5    98   101    1
     6    98    99    1
     7   101   103    1
     8   101   102    1
     9   121   120    1
    10   104    99   am
    11   104   105    1
    12    99   100    2
    13    60    63    1
    14    60    59    1
    15    63    64    1
    16   118   117    1
    17   118   119    2
    18    69    70    1
    19   117   120    1
    20   106   105    1
    21   106   107    2
    22   120   122    1
    23    74    75    1
    24    74    73    1
    25    75    76    1
    26    64    66   ar
    27    64    65   ar
    28    70    73    1
    29    70    71    1
    30    66    68   ar
    31    76    77    2
    32    78    77    1
    33    77    79    1
    34    65    67   ar
    35    71    72    2
    36    68    67   ar
    37   108   109    1
    38    15    14    2
    39    14    13    1
    40   110   109    1
    41   110   111    2
    42    16    13    1
    43    16    17    1
    44    54    53    2
    45   109   112    1
    46    53    52    1
    47    19    17   ar
    48    13    12    1
    49   112   113    1
    50    17    18   ar
    51    38    37    2
    52    39    37   am
    53    35    34    2
    54    37    36    1
    55    80    81    1
    56   114   113   ar
    57    86    84    1
    58   113   115   ar
    59    36    33    1
    60    52    55    1
    61    52    51    1
    62    55    56    1
    63    34    33    1
    64    33    32    1
    65    81    84    1
    66    81    82    1
    67    84    85    1
    68    21    20    1
    69    21    22    1
    70    56    58   am
    71    56    57    2
    72    82    83    2
    73    11    10    1
    74    24    22   am
    75    24    25    1
    76    22    23    2
    77    27    26    2
    78     9     8    2
    79    31    30    2
    80    10     7    1
    81    26    25    1
    82    26    28   am
    83     8     7    1
    84    29    28    1
    85    29    30    1
    86     7     6    1
    87    43    42    2
    88    49    48    1
    89    42    41    1
    90    48    50    1
    91    48    47    2
    92    46    47    1
    93    46    45    1
    94    45    44    1
    95    88    87    1
    96    88    89    1
    97    44    41    1
    98    41    40    1
    99    91    89   am
   100    91    92    1
   101     4     3    2
   102    89    90    2
   103    96    95    1
   104    95    92    1
   105    92    93    1
   106     3     2    1
   107     5     2    1
   108    93    94    2
   109     2     1    1
