@<TRIPOS>MOLECULE
tmp/3n1dA02.pdb
 100 95 0 0 0
SMALL
GASTEIGER

@<TRIPOS>ATOM
      1  N        -21.7070  -19.4650  -14.2130 N.3    69  VAL69      -0.1231
      2  CA       -21.4100  -18.1250  -14.6800 C.3    69  VAL69       0.1692
      3  C        -20.0050  -17.7400  -14.2730 C.2    69  VAL69       0.2592
      4  O        -19.6910  -16.5550  -14.1540 O.2    69  VAL69      -0.2718
      5  CB       -22.4020  -17.0950  -14.1100 C.3    69  VAL69       0.0266
      6  CG1      -22.5490  -15.9170  -15.0610 C.3    69  VAL69       0.0020
      7  CG2      -23.7500  -17.7470  -13.8450 C.3    69  VAL69       0.0020
      8  N        -19.1510  -18.7350  -14.0520 N.am   70  TYR70      -0.1962
      9  CA       -17.7590  -18.4000  -13.6100 C.3    70  TYR70       0.1771
     10  C        -16.8990  -18.2250  -14.8400 C.2    70  TYR70       0.2619
     11  O        -16.9580  -19.0060  -15.7620 O.2    70  TYR70      -0.2715
     12  CB       -17.1380  -19.5030  -12.7700 C.3    70  TYR70       0.0574
     13  CG       -17.7520  -19.6830  -11.4090 C.ar   70  TYR70      -0.0198
     14  CD1      -18.5550  -18.6880  -10.8150 C.ar   70  TYR70      -0.0009
     15  CD2      -17.5540  -20.8990  -10.6950 C.ar   70  TYR70      -0.0009
     16  CE1      -19.1600  -18.8830   -9.5570 C.ar   70  TYR70       0.0417
     17  CE2      -18.1580  -21.1010   -9.4360 C.ar   70  TYR70       0.0417
     18  CZ       -18.9630  -20.0790   -8.8930 C.ar   70  TYR70       0.1957
     19  OH       -19.5340  -20.2670   -7.6400 O.3    70  TYR70      -0.2866
     20  N        -16.1290  -17.1300  -14.9020 N.am   71  ILE71      -0.1963
     21  CA       -15.2670  -17.0110  -16.0610 C.3    71  ILE71       0.1727
     22  C        -14.0530  -17.9090  -15.8540 C.2    71  ILE71       0.2616
     23  O        -13.4640  -17.9380  -14.7640 O.2    71  ILE71      -0.2715
     24  CB       -14.7730  -15.5060  -16.1130 C.3    71  ILE71       0.0290
     25  CG1      -15.9250  -14.6150  -16.6160 C.3    71  ILE71       0.0022
     26  CG2      -13.5350  -15.3600  -17.0210 C.3    71  ILE71       0.0023
     27  CD1      -15.6180  -13.1260  -16.6200 C.3    71  ILE71       0.0001
     28  N        -13.7080  -18.6300  -16.8980 N.am   72  MET72      -0.1977
     29  CA       -12.6230  -19.6060  -16.7880 C.3    72  MET72       0.1605
     30  C        -11.3170  -19.0920  -17.4050 C.2    72  MET72       0.2287
     31  O        -10.2450  -19.4780  -16.9560 O.2    72  MET72      -0.2864
     32  CB       -13.0230  -20.9050  -17.5440 C.3    72  MET72       0.0413
     33  CG       -14.2020  -21.6990  -16.9080 C.3    72  MET72       0.0598
     34  SD       -13.6870  -22.3610  -15.3450 S.3    72  MET72      -0.1393
     35  CE       -14.3630  -21.1350  -14.2650 C.3    72  MET72       0.0692
     36  N         -7.4270  -19.1190  -15.5900 N.3    83  PHE83      -0.1241
     37  CA        -7.1060  -19.0780  -14.1560 C.3    83  PHE83       0.1605
     38  C         -6.3660  -20.3330  -13.7000 C.2    83  PHE83       0.2264
     39  O         -6.5380  -21.4340  -14.2910 O.2    83  PHE83      -0.2867
     40  CB        -8.4120  -18.9460  -13.3590 C.3    83  PHE83       0.0534
     41  CG        -8.9910  -17.5630  -13.4600 C.ar   83  PHE83      -0.0203
     42  CD1       -8.2520  -16.4760  -12.9920 C.ar   83  PHE83      -0.0042
     43  CD2      -10.2660  -17.3830  -14.0140 C.ar   83  PHE83      -0.0042
     44  CE1       -8.8080  -15.1480  -13.0770 C.ar   83  PHE83      -0.0003
     45  CE2      -10.8710  -16.0570  -14.0580 C.ar   83  PHE83      -0.0003
     46  CZ       -10.0800  -14.9490  -13.6000 C.ar   83  PHE83      -0.0000
     47  N         -6.5790  -22.9200  -11.6540 N.3    85  GLU85      -0.1245
     48  CA        -7.5830  -23.6900  -10.8100 C.3    85  GLU85       0.1567
     49  C         -8.0970  -24.8470  -11.6280 C.2    85  GLU85       0.2260
     50  O         -8.1500  -24.7940  -12.8600 O.2    85  GLU85      -0.2867
     51  CB        -8.7220  -22.8270  -10.2850 C.3    85  GLU85       0.0388
     52  CG        -9.5870  -22.2610  -11.3880 C.3    85  GLU85       0.1160
     53  CD       -10.7090  -21.5550  -10.7310 C.2    85  GLU85       0.3649
     54  OE1      -10.5720  -20.3240  -10.5480 O.co2  85  GLU85      -0.2457
     55  OE2      -11.6750  -22.2740  -10.2530 O.co2  85  GLU85      -0.2457
     56  N         -9.5010  -17.6820   -9.9630 N.3   109  GLY109     -0.1210
     57  CA       -10.5220  -16.7070  -10.3530 C.3   109  GLY109      0.1956
     58  C        -11.3570  -16.1910   -9.1760 C.2   109  GLY109      0.2611
     59  O        -12.3100  -15.4020   -9.3680 O.2   109  GLY109     -0.2717
     60  N        -11.0990  -16.5710   -7.9450 N.am  110  ASN110     -0.1974
     61  CA       -11.9980  -15.9750   -6.9650 C.3   110  ASN110      0.1688
     62  C        -11.5950  -14.6260   -6.4210 C.2   110  ASN110      0.2292
     63  O        -10.4470  -14.1470   -6.6040 O.2   110  ASN110     -0.2864
     64  CB       -12.2420  -16.8370   -5.8340 C.3   110  ASN110      0.1181
     65  CG       -11.0400  -17.0440   -5.0900 C.2   110  ASN110      0.2629
     66  OD1      -10.7700  -16.3940   -4.0160 O.2   110  ASN110     -0.2716
     67  ND2      -10.2830  -17.9610   -5.5850 N.am  110  ASN110     -0.0877
     68  N        -15.5840   -9.4440  -14.4200 N.3   155  ILE155     -0.1245
     69  CA       -16.5200  -10.3950  -13.7350 C.3   155  ILE155      0.1561
     70  C        -17.7790   -9.6240  -13.2860 C.2   155  ILE155      0.2260
     71  O        -18.8930  -10.1320  -13.4960 O.2   155  ILE155     -0.2867
     72  CB       -15.8550  -11.0610  -12.6130 C.3   155  ILE155      0.0252
     73  CG1      -14.8020  -12.0270  -13.2360 C.3   155  ILE155      0.0019
     74  CG2      -16.9050  -11.7550  -11.6120 C.3   155  ILE155      0.0019
     75  CD1      -13.7520  -12.3870  -12.1500 C.3   155  ILE155      0.0001
     76  N        -20.7640  -11.2790  -15.6790 N.3   159  ALA159     -0.1231
     77  CA       -21.3990  -12.2970  -14.8100 C.3   159  ALA159      0.1694
     78  C        -22.3170  -11.7440  -13.7090 C.2   159  ALA159      0.2591
     79  O        -23.4890  -12.2430  -13.5040 O.2   159  ALA159     -0.2718
     80  CB       -20.3200  -13.2210  -14.2100 C.3   159  ALA159      0.0304
     81  N        -21.8290  -10.7730  -12.9140 N.am  160  GLU160     -0.1979
     82  CA       -22.6330  -10.3630  -11.7500 C.3   160  GLU160      0.1602
     83  C        -23.9230   -9.6180  -12.1850 C.2   160  GLU160      0.2287
     84  O        -24.9980   -9.7370  -11.5740 O.2   160  GLU160     -0.2864
     85  CB       -21.8010   -9.4750  -10.7530 C.3   160  GLU160      0.0415
     86  CG       -20.5450  -10.2150  -10.2100 C.3   160  GLU160      0.1163
     87  CD       -20.8510  -11.3950   -9.2400 C.2   160  GLU160      0.3649
     88  OE1      -22.0010  -11.8590   -9.1140 O.co2 160  GLU160     -0.2457
     89  OE2      -19.9180  -11.8560   -8.5380 O.co2 160  GLU160     -0.2457
     90  N        -26.3770  -12.0600  -13.1660 N.3   163  ARG163     -0.1245
     91  CA       -27.0870  -12.6600  -12.0060 C.3   163  ARG163      0.1563
     92  C        -28.1270  -11.7690  -11.3570 C.2   163  ARG163      0.2260
     93  O        -29.0000  -12.3420  -10.6880 O.2   163  ARG163     -0.2867
     94  CB       -26.0190  -13.0690  -10.9300 C.3   163  ARG163      0.0307
     95  CG       -25.1190  -14.1590  -11.5010 C.3   163  ARG163      0.0489
     96  CD       -23.9650  -14.3430  -10.4780 C.3   163  ARG163      0.2205
     97  NE       -23.0600  -15.4430  -10.9010 N.pl3 163  ARG163     -0.0865
     98  CZ       -21.7730  -15.4600  -10.5540 C.cat 163  ARG163      0.5346
     99  NH1      -21.2780  -14.4030   -9.8590 N.pl3 163  ARG163      0.1354
    100  NH2      -20.9700  -16.4640  -10.9180 N.pl3 163  ARG163      0.1354
@<TRIPOS>BOND
     1    32    33    1
     2    32    29    1
     3    30    31    2
     4    30    29    1
     5    26    24    1
     6    33    34    1
     7    28    29    1
     8    28    22   am
     9    27    25    1
    10    25    24    1
    11    24    21    1
    12    21    22    1
    13    21    20    1
    14    22    23    2
    15    11    10    2
    16    76    77    1
    17    36    37    1
    18    34    35    1
    19     6     5    1
    20    20    10   am
    21    10     9    1
    22    77    80    1
    23    77    78    1
    24     2     3    1
    25     2     1    1
    26     2     5    1
    27    68    69    1
    28    39    38    2
    29     3     4    2
    30     3     8   am
    31    37    38    1
    32    37    40    1
    33     5     7    1
    34    45    43   ar
    35    45    46   ar
    36     8     9    1
    37    43    41   ar
    38    69    70    1
    39    69    72    1
    40    78    79    2
    41    78    81   am
    42     9    12    1
    43    46    44   ar
    44    71    70    2
    45    41    40    1
    46    41    42   ar
    47    73    72    1
    48    73    75    1
    49    90    91    1
    50    44    42   ar
    51    81    82    1
    52    50    49    2
    53    12    13    1
    54    72    74    1
    55    83    82    1
    56    83    84    2
    57    91    92    1
    58    91    94    1
    59    82    85    1
    60    47    48    1
    61    49    48    1
    62    95    94    1
    63    95    96    1
    64    13    14   ar
    65    13    15   ar
    66    52    53    1
    67    52    51    1
    68    92    93    2
    69   100    98    1
    70    97    98    2
    71    97    96    1
    72    14    16   ar
    73    48    51    1
    74    85    86    1
    75    53    54   ar
    76    53    55   ar
    77    15    17   ar
    78    98    99    1
    79    57    56    1
    80    57    58    1
    81    86    87    1
    82    16    18   ar
    83    17    18   ar
    84    59    58    2
    85    87    88   ar
    86    87    89   ar
    87    58    60   am
    88    18    19    1
    89    60    61    1
    90    61    62    1
    91    61    64    1
    92    63    62    2
    93    64    65    1
    94    67    65   am
    95    65    66    2
