@<TRIPOS>MOLECULE
tmp/3n1dA01.pdb
 97 93 0 0 0
SMALL
GASTEIGER

@<TRIPOS>ATOM
      1  N        -21.7070  -19.4650  -14.2130 N.3    69  VAL69      -0.1231
      2  CA       -21.4100  -18.1250  -14.6800 C.3    69  VAL69       0.1692
      3  C        -20.0050  -17.7400  -14.2730 C.2    69  VAL69       0.2592
      4  O        -19.6910  -16.5550  -14.1540 O.2    69  VAL69      -0.2718
      5  CB       -22.4020  -17.0950  -14.1100 C.3    69  VAL69       0.0266
      6  CG1      -22.5490  -15.9170  -15.0610 C.3    69  VAL69       0.0020
      7  CG2      -23.7500  -17.7470  -13.8450 C.3    69  VAL69       0.0020
      8  N        -19.1510  -18.7350  -14.0520 N.am   70  TYR70      -0.1962
      9  CA       -17.7590  -18.4000  -13.6100 C.3    70  TYR70       0.1771
     10  C        -16.8990  -18.2250  -14.8400 C.2    70  TYR70       0.2619
     11  O        -16.9580  -19.0060  -15.7620 O.2    70  TYR70      -0.2715
     12  CB       -17.1380  -19.5030  -12.7700 C.3    70  TYR70       0.0574
     13  CG       -17.7520  -19.6830  -11.4090 C.ar   70  TYR70      -0.0198
     14  CD1      -18.5550  -18.6880  -10.8150 C.ar   70  TYR70      -0.0009
     15  CD2      -17.5540  -20.8990  -10.6950 C.ar   70  TYR70      -0.0009
     16  CE1      -19.1600  -18.8830   -9.5570 C.ar   70  TYR70       0.0417
     17  CE2      -18.1580  -21.1010   -9.4360 C.ar   70  TYR70       0.0417
     18  CZ       -18.9630  -20.0790   -8.8930 C.ar   70  TYR70       0.1957
     19  OH       -19.5340  -20.2670   -7.6400 O.3    70  TYR70      -0.2866
     20  N        -16.1290  -17.1300  -14.9020 N.am   71  ILE71      -0.1977
     21  CA       -15.2670  -17.0110  -16.0610 C.3    71  ILE71       0.1596
     22  C        -14.0530  -17.9090  -15.8540 C.2    71  ILE71       0.2287
     23  O        -13.4640  -17.9380  -14.7640 O.2    71  ILE71      -0.2864
     24  CB       -14.7730  -15.5060  -16.1130 C.3    71  ILE71       0.0276
     25  CG1      -15.9250  -14.6150  -16.6160 C.3    71  ILE71       0.0022
     26  CG2      -13.5350  -15.3600  -17.0210 C.3    71  ILE71       0.0022
     27  CD1      -15.6180  -13.1260  -16.6200 C.3    71  ILE71       0.0001
     28  N         -9.5010  -17.6820   -9.9630 N.3   109  GLY109     -0.1210
     29  CA       -10.5220  -16.7070  -10.3530 C.3   109  GLY109      0.1956
     30  C        -11.3570  -16.1910   -9.1760 C.2   109  GLY109      0.2612
     31  O        -12.3100  -15.4020   -9.3680 O.2   109  GLY109     -0.2717
     32  N        -11.0990  -16.5710   -7.9450 N.am  110  ASN110     -0.1960
     33  CA       -11.9980  -15.9750   -6.9650 C.3   110  ASN110      0.1819
     34  C        -11.5950  -14.6260   -6.4210 C.2   110  ASN110      0.2621
     35  O        -10.4470  -14.1470   -6.6040 O.2   110  ASN110     -0.2715
     36  CB       -12.2420  -16.8370   -5.8340 C.3   110  ASN110      0.1195
     37  CG       -11.0400  -17.0440   -5.0900 C.2   110  ASN110      0.2630
     38  OD1      -10.7700  -16.3940   -4.0160 O.2   110  ASN110     -0.2716
     39  ND2      -10.2830  -17.9610   -5.5850 N.am  110  ASN110     -0.0877
     40  N        -12.6180  -13.9360   -5.9280 N.am  111  TYR111     -0.1960
     41  CA       -12.4550  -12.5370   -5.6370 C.3   111  TYR111      0.1771
     42  C        -11.3320  -12.3070   -4.6470 C.2   111  TYR111      0.2619
     43  O        -10.5840  -11.3300   -4.7850 O.2   111  TYR111     -0.2715
     44  CB       -13.7230  -12.0230   -5.0210 C.3   111  TYR111      0.0574
     45  CG       -14.7890  -11.6640   -6.0560 C.ar  111  TYR111     -0.0198
     46  CD1      -14.4640  -10.9450   -7.1790 C.ar  111  TYR111     -0.0009
     47  CD2      -16.1590  -11.8660   -5.7890 C.ar  111  TYR111     -0.0009
     48  CE1      -15.4740  -10.5120   -8.0660 C.ar  111  TYR111      0.0417
     49  CE2      -17.1740  -11.4660   -6.6860 C.ar  111  TYR111      0.0417
     50  CZ       -16.8310  -10.8150   -7.8150 C.ar  111  TYR111      0.1957
     51  OH       -17.8270  -10.4180   -8.6890 O.3   111  TYR111     -0.2866
     52  N        -11.2320  -13.1550   -3.6300 N.am  112  GLU112     -0.1977
     53  CA       -10.1560  -12.9500   -2.6660 C.3   112  GLU112      0.1602
     54  C         -8.7440  -13.0210   -3.3240 C.2   112  GLU112      0.2287
     55  O         -7.9330  -12.1380   -3.0980 O.2   112  GLU112     -0.2864
     56  CB       -10.3050  -13.9030   -1.4890 C.3   112  GLU112      0.0415
     57  CG        -9.0260  -14.7220   -1.3580 C.3   112  GLU112      0.1163
     58  CD        -9.0670  -15.9540   -0.3820 C.2   112  GLU112      0.3649
     59  OE1       -9.6980  -17.0130   -0.7070 O.co2 112  GLU112     -0.2457
     60  OE2       -8.4610  -15.8150    0.7320 O.co2 112  GLU112     -0.2457
     61  N        -15.5840   -9.4440  -14.4200 N.3   155  ILE155     -0.1245
     62  CA       -16.5200  -10.3950  -13.7350 C.3   155  ILE155      0.1561
     63  C        -17.7790   -9.6240  -13.2860 C.2   155  ILE155      0.2260
     64  O        -18.8930  -10.1320  -13.4960 O.2   155  ILE155     -0.2867
     65  CB       -15.8550  -11.0610  -12.6130 C.3   155  ILE155      0.0252
     66  CG1      -14.8020  -12.0270  -13.2360 C.3   155  ILE155      0.0019
     67  CG2      -16.9050  -11.7550  -11.6120 C.3   155  ILE155      0.0019
     68  CD1      -13.7520  -12.3870  -12.1500 C.3   155  ILE155      0.0001
     69  N        -21.8290  -10.7730  -12.9140 N.3   160  GLU160     -0.1245
     70  CA       -22.6330  -10.3630  -11.7500 C.3   160  GLU160      0.1567
     71  C        -23.9230   -9.6180  -12.1850 C.2   160  GLU160      0.2260
     72  O        -24.9980   -9.7370  -11.5740 O.2   160  GLU160     -0.2867
     73  CB       -21.8010   -9.4750  -10.7530 C.3   160  GLU160      0.0388
     74  CG       -20.5450  -10.2150  -10.2100 C.3   160  GLU160      0.1160
     75  CD       -20.8510  -11.3950   -9.2400 C.2   160  GLU160      0.3649
     76  OE1      -22.0010  -11.8590   -9.1140 O.co2 160  GLU160     -0.2457
     77  OE2      -19.9180  -11.8560   -8.5380 O.co2 160  GLU160     -0.2457
     78  N        -26.3770  -12.0600  -13.1660 N.3   163  ARG163     -0.1245
     79  CA       -27.0870  -12.6600  -12.0060 C.3   163  ARG163      0.1563
     80  C        -28.1270  -11.7690  -11.3570 C.2   163  ARG163      0.2260
     81  O        -29.0000  -12.3420  -10.6880 O.2   163  ARG163     -0.2867
     82  CB       -26.0190  -13.0690  -10.9300 C.3   163  ARG163      0.0307
     83  CG       -25.1190  -14.1590  -11.5010 C.3   163  ARG163      0.0489
     84  CD       -23.9650  -14.3430  -10.4780 C.3   163  ARG163      0.2205
     85  NE       -23.0600  -15.4430  -10.9010 N.pl3 163  ARG163     -0.0865
     86  CZ       -21.7730  -15.4600  -10.5540 C.cat 163  ARG163      0.5346
     87  NH1      -21.2780  -14.4030   -9.8590 N.pl3 163  ARG163      0.1354
     88  NH2      -20.9700  -16.4640  -10.9180 N.pl3 163  ARG163      0.1354
     89  N        -23.1330   -9.7720   -4.7360 N.3   189  GLU189     -0.1245
     90  CA       -22.1390  -10.7010   -5.2530 C.3   189  GLU189      0.1567
     91  C        -21.7550  -11.7810   -4.2690 C.2   189  GLU189      0.2260
     92  O        -21.6130  -12.9840   -4.6500 O.2   189  GLU189     -0.2867
     93  CB       -20.8340   -9.9580   -5.6310 C.3   189  GLU189      0.0388
     94  CG       -21.0940   -8.9310   -6.7950 C.3   189  GLU189      0.1160
     95  CD       -19.9140   -7.9100   -6.9870 C.2   189  GLU189      0.3649
     96  OE1      -18.9320   -7.9870   -6.2190 O.co2 189  GLU189     -0.2457
     97  OE2      -19.9910   -7.1000   -7.9730 O.co2 189  GLU189     -0.2457
@<TRIPOS>BOND
     1    26    24    1
     2    27    25    1
     3    25    24    1
     4    24    21    1
     5    21    22    1
     6    21    20    1
     7    22    23    2
     8    11    10    2
     9     6     5    1
    10    20    10   am
    11    10     9    1
    12     2     3    1
    13     2     1    1
    14     2     5    1
    15    61    62    1
    16     3     4    2
    17     3     8   am
    18     5     7    1
    19     8     9    1
    20    62    63    1
    21    62    65    1
    22     9    12    1
    23    64    63    2
    24    66    65    1
    25    66    68    1
    26    78    79    1
    27    69    70    1
    28    12    13    1
    29    65    67    1
    30    71    70    1
    31    71    72    2
    32    79    80    1
    33    79    82    1
    34    70    73    1
    35    83    82    1
    36    83    84    1
    37    13    14   ar
    38    13    15   ar
    39    80    81    2
    40    88    86    1
    41    85    86    2
    42    85    84    1
    43    14    16   ar
    44    73    74    1
    45    15    17   ar
    46    86    87    1
    47    29    28    1
    48    29    30    1
    49    74    75    1
    50    16    18   ar
    51    17    18   ar
    52    31    30    2
    53    75    76   ar
    54    75    77   ar
    55    30    32   am
    56    18    19    1
    57    51    50    1
    58    48    50   ar
    59    48    46   ar
    60    97    95   ar
    61    32    33    1
    62    50    49   ar
    63    46    45   ar
    64    95    94    1
    65    95    96   ar
    66    33    34    1
    67    33    36    1
    68    94    93    1
    69    49    47   ar
    70    35    34    2
    71    34    40   am
    72    45    47   ar
    73    45    44    1
    74    40    41    1
    75    36    37    1
    76    41    44    1
    77    41    42    1
    78    93    90    1
    79    39    37   am
    80    90    89    1
    81    90    91    1
    82    37    38    2
    83    43    42    2
    84    92    91    2
    85    42    52   am
    86    52    53    1
    87    54    55    2
    88    54    53    1
    89    53    56    1
    90    56    57    1
    91    57    58    1
    92    59    58   ar
    93    58    60   ar
