@<TRIPOS>MOLECULE
tmp/3n1sF00.pdb
 176 171 0 0 0
SMALL
GASTEIGER

@<TRIPOS>ATOM
      1  N        -45.4430   10.1350   24.8360 N.3     6  ILE6       -0.1231
      2  CA       -46.0020   11.1400   25.7330 C.3     6  ILE6        0.1692
      3  C        -47.1810   11.8670   25.0750 C.2     6  ILE6        0.2592
      4  O        -48.0500   12.4010   25.7680 O.2     6  ILE6       -0.2718
      5  CB       -44.9270   12.1430   26.2380 C.3     6  ILE6        0.0266
      6  CG1      -45.4420   12.8950   27.4630 C.3     6  ILE6        0.0019
      7  CG2      -44.4690   13.1400   25.1440 C.3     6  ILE6        0.0020
      8  CD1      -44.3550   13.5230   28.2930 C.3     6  ILE6        0.0001
      9  N        -47.2400   11.8640   23.7420 N.am    7  PHE7       -0.1976
     10  CA       -48.3390   12.5470   23.0630 C.3     7  PHE7        0.1639
     11  C        -49.6810   11.9080   23.3890 C.2     7  PHE7        0.2290
     12  O        -50.7090   12.5730   23.3390 O.2     7  PHE7       -0.2864
     13  CB       -48.1300   12.5430   21.5520 C.3     7  PHE7        0.0560
     14  CG       -47.0730   13.5040   21.0610 C.ar    7  PHE7       -0.0200
     15  CD1      -46.2700   14.2320   21.9340 C.ar    7  PHE7       -0.0042
     16  CD2      -46.8410   13.6160   19.6920 C.ar    7  PHE7       -0.0042
     17  CE1      -45.2800   15.1200   21.4470 C.ar    7  PHE7       -0.0003
     18  CE2      -45.8540   14.4970   19.2040 C.ar    7  PHE7       -0.0003
     19  CZ       -45.0790   15.2330   20.0760 C.ar    7  PHE7       -0.0000
     20  N        -50.9450   13.5680   26.3870 N.3    10  ILE10      -0.1245
     21  CA       -51.3530   14.9280   26.0380 C.3    10  ILE10       0.1561
     22  C        -52.7530   14.9030   25.4110 C.2    10  ILE10       0.2260
     23  O        -53.6430   15.6530   25.8410 O.2    10  ILE10      -0.2867
     24  CB       -50.3090   15.5910   25.1080 C.3    10  ILE10       0.0252
     25  CG1      -49.0210   15.8880   25.8900 C.3    10  ILE10       0.0019
     26  CG2      -50.8740   16.8570   24.4780 C.3    10  ILE10       0.0019
     27  CD1      -47.8200   16.3700   25.0130 C.3    10  ILE10       0.0001
     28  N        -51.7750   14.8250   31.1840 N.3    15  ILE15      -0.1231
     29  CA       -50.6790   15.6980   31.5920 C.3    15  ILE15       0.1678
     30  C        -50.9310   17.0640   30.9590 C.2    15  ILE15       0.2434
     31  O        -51.6350   17.1500   29.9550 O.2    15  ILE15      -0.2733
     32  CB       -49.2670   15.1330   31.2050 C.3    15  ILE15       0.0265
     33  CG1      -49.0550   15.0970   29.6800 C.3    15  ILE15       0.0019
     34  CG2      -49.0280   13.7700   31.8560 C.3    15  ILE15       0.0020
     35  CD1      -47.5910   14.9850   29.2610 C.3    15  ILE15       0.0001
     36  N        -50.3890   18.1350   31.5480 N.am   16  PRO16      -0.2718
     37  CA       -50.6170   19.4700   31.0120 C.3    16  PRO16       0.1535
     38  C        -50.0770   19.7020   29.5970 C.2    16  PRO16       0.2599
     39  O        -49.0340   19.1440   29.2040 O.2    16  PRO16      -0.2715
     40  CB       -49.8760   20.3640   32.0160 C.3    16  PRO16       0.0310
     41  CG       -49.8340   19.5640   33.2690 C.3    16  PRO16       0.0237
     42  CD       -49.5860   18.1830   32.7850 C.3    16  PRO16       0.0939
     43  N        -50.8140   20.5160   28.8490 N.am   17  SER17      -0.1950
     44  CA       -50.4010   21.0040   27.5280 C.3    17  SER17       0.1924
     45  C        -51.2960   22.1680   27.1960 C.2    17  SER17       0.2314
     46  O        -52.3110   22.3890   27.8690 O.2    17  SER17      -0.2863
     47  CB       -50.5320   19.9170   26.4450 C.3    17  SER17       0.2116
     48  OG       -51.8880   19.6010   26.1510 O.3    17  SER17      -0.2180
     49  N        -51.6590   21.1160   19.6690 N.3    29  PHE29      -0.1227
     50  CA       -51.1730   21.6760   20.9220 C.3    29  PHE29       0.1736
     51  C        -49.8510   22.3920   20.7080 C.2    29  PHE29       0.2595
     52  O        -49.0850   22.0510   19.8100 O.2    29  PHE29      -0.2718
     53  CB       -51.0720   20.6070   22.0350 C.3    29  PHE29       0.0547
     54  CG       -50.2300   19.3990   21.6690 C.ar   29  PHE29      -0.0202
     55  CD1      -50.7970   18.3240   20.9820 C.ar   29  PHE29      -0.0042
     56  CD2      -48.8830   19.3510   22.0030 C.ar   29  PHE29      -0.0042
     57  CE1      -50.0170   17.1960   20.6390 C.ar   29  PHE29      -0.0003
     58  CE2      -48.0930   18.2470   21.6630 C.ar   29  PHE29      -0.0003
     59  CZ       -48.6680   17.1680   20.9810 C.ar   29  PHE29      -0.0000
     60  N        -49.5690   23.3890   21.5340 N.am   30  ARG30      -0.1966
     61  CA       -48.3330   24.1330   21.3760 C.3    30  ARG30       0.1729
     62  C        -47.1100   23.2820   21.6770 C.2    30  ARG30       0.2616
     63  O        -47.1210   22.4470   22.5810 O.2    30  ARG30      -0.2715
     64  CB       -48.3290   25.3660   22.2680 C.3    30  ARG30       0.0348
     65  CG       -49.4560   26.2930   21.8970 C.3    30  ARG30       0.0492
     66  CD       -49.1950   27.6980   22.3360 C.3    30  ARG30       0.2205
     67  NE       -50.3510   28.4860   21.9490 N.pl3  30  ARG30      -0.0865
     68  CZ       -50.4560   29.2010   20.8320 C.cat  30  ARG30       0.5346
     69  NH1      -49.4410   29.2920   19.9670 N.pl3  30  ARG30       0.1354
     70  NH2      -51.5920   29.8520   20.5940 N.pl3  30  ARG30       0.1354
     71  N        -46.0420   23.5110   20.9260 N.am   31  ASP31      -0.1957
     72  CA       -44.7980   22.7850   21.1580 C.3    31  ASP31       0.1840
     73  C        -44.1930   23.2450   22.4830 C.2    31  ASP31       0.2622
     74  O        -44.2510   24.4200   22.8010 O.2    31  ASP31      -0.2715
     75  CB       -43.8110   23.0070   20.0070 C.3    31  ASP31       0.1450
     76  CG       -42.7370   21.9570   19.9870 C.2    31  ASP31       0.3671
     77  OD1      -41.8450   22.0130   20.8610 O.co2  31  ASP31      -0.2456
     78  OD2      -42.8210   21.0450   19.1360 O.co2  31  ASP31      -0.2456
     79  N        -43.6070   22.3380   23.2520 N.am   32  ILE32      -0.1963
     80  CA       -42.9860   22.7250   24.5350 C.3    32  ILE32       0.1727
     81  C        -41.6940   23.5270   24.3380 C.2    32  ILE32       0.2616
     82  O        -41.2330   24.2420   25.2410 O.2    32  ILE32      -0.2715
     83  CB       -42.7280   21.4780   25.4060 C.3    32  ILE32       0.0290
     84  CG1      -42.5450   21.8440   26.8840 C.3    32  ILE32       0.0022
     85  CG2      -41.5520   20.6690   24.8710 C.3    32  ILE32       0.0023
     86  CD1      -42.7060   20.6600   27.8180 C.3    32  ILE32       0.0001
     87  N        -41.1010   23.4210   23.1570 N.am   33  SER33      -0.1950
     88  CA       -39.8730   24.1370   22.8900 C.3    33  SER33       0.1924
     89  C        -40.0190   24.8280   21.5350 C.2    33  SER33       0.2314
     90  O        -39.4680   24.3760   20.5290 O.2    33  SER33      -0.2863
     91  CB       -38.6780   23.1790   22.9050 C.3    33  SER33       0.2116
     92  OG       -37.4800   23.9240   22.8190 O.3    33  SER33      -0.2180
     93  N        -39.9220   26.8330   18.1730 N.3    35  GLN35      -0.1245
     94  CA       -38.8490   27.2880   17.2950 C.3    35  GLN35       0.1566
     95  C        -39.2500   28.4960   16.4450 C.2    35  GLN35       0.2260
     96  O        -38.4320   29.0560   15.7150 O.2    35  GLN35      -0.2867
     97  CB       -38.3760   26.1340   16.4140 C.3    35  GLN35       0.0367
     98  CG       -37.7270   25.0240   17.2170 C.3    35  GLN35       0.0905
     99  CD       -37.1380   23.9430   16.3340 C.2    35  GLN35       0.2608
    100  OE1      -36.5130   24.2360   15.3140 O.2    35  GLN35      -0.2717
    101  NE2      -37.3290   22.6830   16.7250 N.am   35  GLN35      -0.0878
    102  N        -45.6110   27.7820   16.9930 N.3    39  HIS39      -0.1241
    103  CA       -45.1050   26.4230   16.8220 C.3    39  HIS39       0.1621
    104  C        -46.0940   25.4650   17.4600 C.2    39  HIS39       0.2264
    105  O        -46.1190   25.3110   18.6850 O.2    39  HIS39      -0.2867
    106  CB       -43.7050   26.2450   17.4250 C.3    39  HIS39       0.0745
    107  CG       -43.0550   24.9410   17.0630 C.ar   39  HIS39       0.0817
    108  ND1      -41.7190   24.6890   17.2910 N.ar   39  HIS39      -0.2268
    109  CD2      -43.5480   23.8390   16.4440 C.ar   39  HIS39       0.1154
    110  CE1      -41.4190   23.4830   16.8460 C.ar   39  HIS39       0.1986
    111  NE2      -42.5110   22.9450   16.3340 N.ar   39  HIS39      -0.2212
    112  N        -48.1130   21.5730   17.2080 N.3    41  LEU41      -0.1245
    113  CA       -48.0820   20.2030   16.7100 C.3    41  LEU41       0.1561
    114  C        -49.5030   19.7510   16.4760 C.2    41  LEU41       0.2260
    115  O        -50.3770   19.9640   17.3110 O.2    41  LEU41      -0.2867
    116  CB       -47.4340   19.2980   17.7480 C.3    41  LEU41       0.0270
    117  CG       -45.9820   19.6470   18.0980 C.3    41  LEU41       0.0019
    118  CD1      -45.3180   18.6180   19.0100 C.3    41  LEU41       0.0001
    119  CD2      -45.1210   19.9460   16.8630 C.3    41  LEU41       0.0001
    120  N        -41.5900   15.0510   10.1030 N.3    88  ASN88      -0.1240
    121  CA       -40.2800   14.3930   10.1360 C.3    88  ASN88       0.1653
    122  C        -40.4410   12.9030   10.3530 C.2    88  ASN88       0.2266
    123  O        -41.1240   12.4590   11.2700 O.2    88  ASN88      -0.2867
    124  CB       -39.4180   14.9530   11.2670 C.3    88  ASN88       0.1155
    125  CG       -39.2030   16.4500   11.1540 C.2    88  ASN88       0.2627
    126  OD1      -38.9700   16.9680   10.0690 O.2    88  ASN88      -0.2716
    127  ND2      -39.2490   17.1500   12.2850 N.am   88  ASN88      -0.0877
    128  N        -35.0700   13.3340   11.1720 N.3    94  GLY94      -0.1210
    129  CA       -34.8890   13.8380   12.5320 C.3    94  GLY94       0.1956
    130  C        -36.0460   13.5790   13.4850 C.2    94  GLY94       0.2612
    131  O        -36.1660   14.2640   14.4940 O.2    94  GLY94      -0.2717
    132  N        -36.8740   12.5800   13.2000 N.am   95  GLN95      -0.1965
    133  CA       -37.9790   12.2340   14.0870 C.3    95  GLN95       0.1733
    134  C        -37.4860   11.7900   15.4650 C.2    95  GLN95       0.2616
    135  O        -36.5500   10.9730   15.5760 O.2    95  GLN95      -0.2715
    136  CB       -38.8700   11.1680   13.4710 C.3    95  GLN95       0.0408
    137  CG       -40.1050   10.8910   14.3040 C.3    95  GLN95       0.0908
    138  CD       -41.1190    9.9840   13.6470 C.2    95  GLN95       0.2608
    139  OE1      -40.8640    9.3810   12.5840 O.2    95  GLN95      -0.2717
    140  NE2      -42.2770    9.8650   14.2700 N.am   95  GLN95      -0.0878
    141  N        -38.1340   12.3360   16.4960 N.am   96  GLU96      -0.1963
    142  CA       -37.7870   12.0730   17.9020 C.3    96  GLU96       0.1733
    143  C        -38.9280   11.4540   18.6680 C.2    96  GLU96       0.2616
    144  O        -38.7060   10.5930   19.5310 O.2    96  GLU96      -0.2715
    145  CB       -37.4310   13.3690   18.6030 C.3    96  GLU96       0.0429
    146  CG       -36.2410   14.0770   18.0300 C.3    96  GLU96       0.1163
    147  CD       -35.9170   15.3390   18.7740 C.2    96  GLU96       0.3649
    148  OE1      -34.7230   15.6850   18.8090 O.co2  96  GLU96      -0.2457
    149  OE2      -36.8450   15.9770   19.3260 O.co2  96  GLU96      -0.2457
    150  N        -40.1490   11.9200   18.4250 N.am   97  VAL97      -0.1977
    151  CA       -41.3350   11.3370   19.0550 C.3    97  VAL97       0.1596
    152  C        -42.0730   10.4780   18.0380 C.2    97  VAL97       0.2287
    153  O        -42.4860   10.9680   16.9730 O.2    97  VAL97      -0.2864
    154  CB       -42.2840   12.4100   19.6450 C.3    97  VAL97       0.0276
    155  CG1      -41.5340   13.2910   20.6300 C.3    97  VAL97       0.0022
    156  CG2      -42.8810   13.2440   18.5600 C.3    97  VAL97       0.0022
    157  N        -46.7520   13.4780   13.5330 N.3   101  HIS101     -0.1241
    158  CA       -47.1960   14.8230   13.8540 C.3   101  HIS101      0.1621
    159  C        -46.7000   15.8230   12.8490 C.2   101  HIS101      0.2264
    160  O        -45.5970   15.7110   12.3030 O.2   101  HIS101     -0.2867
    161  CB       -46.7600   15.2230   15.2700 C.3   101  HIS101      0.0745
    162  CG       -45.2930   15.1250   15.4990 C.ar  101  HIS101      0.0817
    163  ND1      -44.6500   13.9190   15.6810 N.ar  101  HIS101     -0.2268
    164  CD2      -44.3260   16.0710   15.5460 C.ar  101  HIS101      0.1154
    165  CE1      -43.3590   14.1270   15.8470 C.ar  101  HIS101      0.1986
    166  NE2      -43.1350   15.4290   15.7740 N.ar  101  HIS101     -0.2212
    167  N        -45.6800   19.7130   12.3020 N.3   103  HIS103     -0.1241
    168  CA       -45.3300   21.0000   12.8990 C.3   103  HIS103      0.1621
    169  C        -45.9350   22.1290   12.0590 C.2   103  HIS103      0.2264
    170  O        -45.6830   22.1980   10.8580 O.2   103  HIS103     -0.2867
    171  CB       -43.8190   21.2200   12.8950 C.3   103  HIS103      0.0745
    172  CG       -43.0400   20.2040   13.6680 C.ar  103  HIS103      0.0817
    173  ND1      -42.5620   20.4380   14.9420 N.ar  103  HIS103     -0.2268
    174  CD2      -42.6510   18.9450   13.3390 C.ar  103  HIS103      0.1154
    175  CE1      -41.8810   19.3810   15.3520 C.ar  103  HIS103      0.1986
    176  NE2      -41.9370   18.4580   14.4060 N.ar  103  HIS103     -0.2212
@<TRIPOS>BOND
     1   126   125    2
     2   120   121    1
     3   121   122    1
     4   121   124    1
     5   122   123    2
     6   170   169    2
     7   125   124    1
     8   125   127   am
     9   128   129    1
    10   169   168    1
    11   167   168    1
    12   160   159    2
    13   129   130    1
    14   139   138    2
    15   159   158    1
    16   171   168    1
    17   171   172    1
    18   132   130   am
    19   132   133    1
    20   174   172   ar
    21   174   176   ar
    22   136   133    1
    23   136   137    1
    24   130   131    2
    25   157   158    1
    26   138   140   am
    27   138   137    1
    28   172   173   ar
    29   158   161    1
    30   133   134    1
    31   176   175   ar
    32   173   175   ar
    33   161   162    1
    34   100    99    2
    35   134   135    2
    36   134   141   am
    37   162   164   ar
    38   162   163   ar
    39   164   166   ar
    40   163   165   ar
    41    96    95    2
    42   166   165   ar
    43    99   101   am
    44    99    98    1
    45   111   109   ar
    46   111   110   ar
    47    97    98    1
    48    97    94    1
    49   109   107   ar
    50    95    94    1
    51   114   113    1
    52   114   115    2
    53   141   142    1
    54   113   112    1
    55   113   116    1
    56   103   102    1
    57   103   106    1
    58   103   104    1
    59   110   108   ar
    60   119   117    1
    61   153   152    2
    62   107   108   ar
    63   107   106    1
    64    94    93    1
    65   104   105    2
    66   116   117    1
    67   142   145    1
    68   142   143    1
    69   146   145    1
    70   146   147    1
    71   152   151    1
    72   117   118    1
    73   150   143   am
    74   150   151    1
    75   156   154    1
    76   143   144    2
    77   147   148   ar
    78   147   149   ar
    79   151   154    1
    80    78    76   ar
    81    18    16   ar
    82    18    19   ar
    83   154   155    1
    84    49    50    1
    85    16    14   ar
    86    52    51    2
    87    69    68    1
    88    76    75    1
    89    76    77   ar
    90    75    72    1
    91    19    17   ar
    92    90    89    2
    93    70    68    1
    94    57    59   ar
    95    57    55   ar
    96    51    50    1
    97    51    60   am
    98    68    67    2
    99    50    53    1
   100    71    72    1
   101    71    62   am
   102    59    58   ar
   103    55    54   ar
   104    14    13    1
   105    14    15   ar
   106    72    73    1
   107    61    60    1
   108    61    62    1
   109    61    64    1
   110    17    15   ar
   111    89    88    1
   112    13    10    1
   113    58    56   ar
   114    54    56   ar
   115    54    53    1
   116    62    63    2
   117    65    64    1
   118    65    66    1
   119    67    66    1
   120    73    74    2
   121    73    79   am
   122    92    91    1
   123    88    91    1
   124    88    87    1
   125    10    11    1
   126    10     9    1
   127    87    81   am
   128    79    80    1
   129    12    11    2
   130     9     3   am
   131    81    80    1
   132    81    82    2
   133    26    24    1
   134    80    83    1
   135     1     2    1
   136    85    83    1
   137    27    25    1
   138     3     2    1
   139     3     4    2
   140    24    25    1
   141    24    21    1
   142     7     5    1
   143    83    84    1
   144    22    23    2
   145    22    21    1
   146     2     5    1
   147    21    20    1
   148    48    47    1
   149     5     6    1
   150    47    44    1
   151    84    86    1
   152    45    44    1
   153    45    46    2
   154     6     8    1
   155    44    43    1
   156    43    38   am
   157    39    38    2
   158    35    33    1
   159    38    37    1
   160    33    32    1
   161    31    30    2
   162    30    36   am
   163    30    29    1
   164    37    36    1
   165    37    40    1
   166    28    29    1
   167    32    29    1
   168    32    34    1
   169    36    42    1
   170    40    41    1
   171    42    41    1
