@<TRIPOS>MOLECULE
tmp/3n1vA00.pdb
 109 103 0 0 0
SMALL
GASTEIGER

@<TRIPOS>ATOM
      1  N         -6.1960   75.7100   22.4380 N.3     3  TYR3       -0.1241
      2  CA        -4.9200   75.7520   21.7280 C.3     3  TYR3        0.1605
      3  C         -4.9170   74.7930   20.5380 C.2     3  TYR3        0.2264
      4  O         -4.3980   75.1200   19.4690 O.2     3  TYR3       -0.2867
      5  CB        -3.7570   75.3930   22.6720 C.3     3  TYR3        0.0534
      6  CG        -3.4130   76.4550   23.7060 C.ar    3  TYR3       -0.0201
      7  CD1       -4.3330   76.8410   24.6710 C.ar    3  TYR3       -0.0009
      8  CD2       -2.1680   77.0780   23.7060 C.ar    3  TYR3       -0.0009
      9  CE1       -4.0260   77.8180   25.6030 C.ar    3  TYR3        0.0417
     10  CE2       -1.8540   78.0570   24.6350 C.ar    3  TYR3        0.0417
     11  CZ        -2.7850   78.4230   25.5790 C.ar    3  TYR3        0.1957
     12  OH        -2.4900   79.4070   26.4960 O.3     3  TYR3       -0.2866
     13  N          6.2040   73.5780   20.3230 N.3    50  LYS50      -0.1245
     14  CA         4.7920   73.4110   20.6640 C.3    50  LYS50       0.1561
     15  C          3.9840   74.6930   20.4600 C.2    50  LYS50       0.2260
     16  O          2.7600   74.6500   20.4200 O.2    50  LYS50      -0.2867
     17  CB         4.6650   72.9390   22.1160 C.3    50  LYS50       0.0271
     18  CG         5.3070   71.5790   22.3800 C.3    50  LYS50       0.0035
     19  CD         5.2890   71.2070   23.8680 C.3    50  LYS50       0.0206
     20  CE         6.0670   72.2090   24.7340 C.3    50  LYS50       0.1093
     21  NZ         7.5300   72.2890   24.4310 N.3    50  LYS50      -0.1314
     22  N          3.5050   77.1310   22.5070 N.3    52  ASN52      -0.1225
     23  CA         2.7170   77.5300   23.6690 C.3    52  ASN52       0.1785
     24  C          2.7130   79.0450   23.8710 C.2    52  ASN52       0.2597
     25  O          1.6710   79.6360   24.1640 O.2    52  ASN52      -0.2718
     26  CB         3.2200   76.8230   24.9400 C.3    52  ASN52       0.1169
     27  CG         2.8810   75.3390   24.9510 C.2    52  ASN52       0.2627
     28  OD1        1.7730   74.9530   24.5830 O.2    52  ASN52      -0.2716
     29  ND2        3.8330   74.5040   25.3690 N.am   52  ASN52      -0.0877
     30  N          3.8620   79.6830   23.7090 N.am   53  ARG53      -0.1979
     31  CA         3.9240   81.1330   23.8900 C.3    53  ARG53       0.1597
     32  C          3.1640   81.9060   22.8220 C.2    53  ARG53       0.2287
     33  O          2.4080   82.8250   23.1380 O.2    53  ARG53      -0.2864
     34  CB         5.3750   81.6030   23.9280 C.3    53  ARG53       0.0334
     35  CG         6.1430   80.9880   25.0730 C.3    53  ARG53       0.0492
     36  CD         7.6150   81.3060   24.9770 C.3    53  ARG53       0.2205
     37  NE         8.3800   80.6240   26.0090 N.pl3  53  ARG53      -0.0865
     38  CZ         8.6890   79.3320   25.9870 C.cat  53  ARG53       0.5346
     39  NH1        8.3010   78.5580   24.9810 N.pl3  53  ARG53       0.1354
     40  NH2        9.4080   78.8150   26.9720 N.pl3  53  ARG53       0.1354
     41  N         -0.6420   81.4770   23.0550 N.3    56  THR56      -0.1218
     42  CA        -1.1740   82.1730   24.2080 C.3    56  THR56       0.1862
     43  C         -1.5950   83.5830   23.8350 C.2    56  THR56       0.2287
     44  O         -2.5750   84.1060   24.3740 O.2    56  THR56      -0.2866
     45  CB        -0.1560   82.2310   25.3480 C.3    56  THR56       0.1770
     46  OG1        0.0510   80.9140   25.8680 O.3    56  THR56      -0.2211
     47  CG2       -0.6450   83.1320   26.4560 C.3    56  THR56       0.0375
     48  N         11.5930   83.5800   20.9020 N.3    89  GLN89      -0.1245
     49  CA        11.9410   82.2670   21.4280 C.3    89  GLN89       0.1566
     50  C         13.0400   81.6350   20.5590 C.2    89  GLN89       0.2260
     51  O         14.0370   81.1260   21.0760 O.2    89  GLN89      -0.2867
     52  CB        10.6940   81.3640   21.4360 C.3    89  GLN89       0.0367
     53  CG        10.9770   79.8730   21.6140 C.3    89  GLN89       0.0905
     54  CD        11.2730   79.5060   23.0480 C.2    89  GLN89       0.2608
     55  OE1       11.6030   80.3630   23.8640 O.2    89  GLN89      -0.2717
     56  NE2       11.1720   78.2250   23.3610 N.am   89  GLN89      -0.0878
     57  N          8.1690   84.0930   28.8340 N.3   198  SER198     -0.1202
     58  CA         7.3520   82.9140   28.5710 C.3   198  SER198      0.2020
     59  C          5.8900   83.0560   28.9940 C.2   198  SER198      0.2618
     60  O          5.0090   82.4940   28.3540 O.2   198  SER198     -0.2717
     61  CB         7.9460   81.6720   29.2530 C.3   198  SER198      0.2103
     62  OG         9.1430   81.2540   28.6000 O.3   198  SER198     -0.2182
     63  N          5.6290   83.8020   30.0610 N.am  199  PHE199     -0.1975
     64  CA         4.2560   83.9300   30.5250 C.3   199  PHE199      0.1639
     65  C          3.7110   85.3420   30.5370 C.2   199  PHE199      0.2290
     66  O          2.5900   85.5690   30.1020 O.2   199  PHE199     -0.2864
     67  CB         4.1120   83.2970   31.9140 C.3   199  PHE199      0.0560
     68  CG         4.4210   81.8400   31.9280 C.ar  199  PHE199     -0.0200
     69  CD1        5.7020   81.3960   32.1860 C.ar  199  PHE199     -0.0042
     70  CD2        3.4500   80.9160   31.5990 C.ar  199  PHE199     -0.0042
     71  CE1        6.0110   80.0550   32.1120 C.ar  199  PHE199     -0.0003
     72  CE2        3.7530   79.5730   31.5220 C.ar  199  PHE199     -0.0003
     73  CZ         5.0340   79.1450   31.7780 C.ar  199  PHE199     -0.0000
     74  N          6.0860   76.6630   36.7480 N.3   232  PHE232     -0.1241
     75  CA         6.4010   75.9590   35.5060 C.3   232  PHE232      0.1605
     76  C          7.8290   75.3990   35.5000 C.2   232  PHE232      0.2264
     77  O          8.0370   74.2230   35.1990 O.2   232  PHE232     -0.2867
     78  CB         6.2410   76.8820   34.2800 C.3   232  PHE232      0.0534
     79  CG         6.9980   76.3950   33.0690 C.ar  232  PHE232     -0.0203
     80  CD1        6.4940   75.3700   32.2760 C.ar  232  PHE232     -0.0042
     81  CD2        8.2680   76.8890   32.7960 C.ar  232  PHE232     -0.0042
     82  CE1        7.2440   74.8430   31.2370 C.ar  232  PHE232     -0.0003
     83  CE2        9.0310   76.3730   31.7650 C.ar  232  PHE232     -0.0003
     84  CZ         8.5190   75.3430   30.9830 C.ar  232  PHE232     -0.0000
     85  N         -4.3610   79.1070   31.5860 N.3   337  LEU337     -0.1245
     86  CA        -2.9190   78.8770   31.6190 C.3   337  LEU337      0.1561
     87  C         -2.5750   77.8780   32.7170 C.2   337  LEU337      0.2260
     88  O         -1.7940   76.9470   32.5060 O.2   337  LEU337     -0.2867
     89  CB        -2.1640   80.1850   31.8630 C.3   337  LEU337      0.0270
     90  CG        -2.3370   81.2680   30.7850 C.3   337  LEU337      0.0019
     91  CD1       -1.6670   82.5640   31.2290 C.3   337  LEU337      0.0001
     92  CD2       -1.7480   80.7740   29.4780 C.3   337  LEU337      0.0001
     93  N         -3.2450   74.3350   31.8780 N.3   340  LYS340     -0.1231
     94  CA        -2.2660   73.8450   30.9170 C.3   340  LYS340      0.1693
     95  C         -0.9660   73.4770   31.6400 C.2   340  LYS340      0.2591
     96  O         -0.3430   72.4550   31.3490 O.2   340  LYS340     -0.2718
     97  CB        -1.9820   74.9390   29.8870 C.3   340  LYS340      0.0285
     98  CG        -1.0980   74.5270   28.7330 C.3   340  LYS340      0.0035
     99  CD        -1.9380   74.1220   27.5350 C.3   340  LYS340      0.0206
    100  CE        -1.0610   73.7930   26.3360 C.3   340  LYS340      0.1093
    101  NZ        -1.8740   73.3310   25.1740 N.3   340  LYS340     -0.1314
    102  N         -0.5720   74.3110   32.5970 N.am  341  ILE341     -0.1980
    103  CA         0.6640   74.1020   33.3510 C.3   341  ILE341      0.1595
    104  C          0.5830   73.0670   34.4770 C.2   341  ILE341      0.2287
    105  O          1.4630   72.2210   34.6010 O.2   341  ILE341     -0.2864
    106  CB         1.1570   75.4320   33.9690 C.3   341  ILE341      0.0276
    107  CG1        1.4980   76.4350   32.8740 C.3   341  ILE341      0.0022
    108  CG2        2.3810   75.1900   34.8180 C.3   341  ILE341      0.0022
    109  CD1        1.8370   77.8000   33.4320 C.3   341  ILE341      0.0001
@<TRIPOS>BOND
     1     4     3    2
     2    13    14    1
     3    16    15    2
     4    15    14    1
     5     3     2    1
     6    50    51    2
     7    50    49    1
     8    14    17    1
     9    48    49    1
    10    49    52    1
    11    52    53    1
    12    53    54    1
    13     2     1    1
    14     2     5    1
    15    17    18    1
    16    18    19    1
    17    22    23    1
    18     5     6    1
    19    32    33    2
    20    32    31    1
    21    54    56   am
    22    54    55    2
    23    41    42    1
    24    23    24    1
    25    23    26    1
    26     8     6   ar
    27     8    10   ar
    28     6     7   ar
    29    30    24   am
    30    30    31    1
    31    43    42    1
    32    43    44    2
    33    19    20    1
    34    24    25    2
    35    31    34    1
    36    34    35    1
    37    42    45    1
    38    21    20    1
    39    28    27    2
    40    10    11   ar
    41     7     9   ar
    42    26    27    1
    43    27    29   am
    44    36    35    1
    45    36    37    1
    46    39    38    1
    47   101   100    1
    48    45    46    1
    49    45    47    1
    50    11     9   ar
    51    11    12    1
    52    38    37    2
    53    38    40    1
    54   100    99    1
    55    99    98    1
    56    60    59    2
    57    58    57    1
    58    58    59    1
    59    58    61    1
    60    62    61    1
    61    98    97    1
    62    59    63   am
    63    92    90    1
    64    97    94    1
    65    63    64    1
    66    66    65    2
    67    64    65    1
    68    64    67    1
    69    90    91    1
    70    90    89    1
    71    94    95    1
    72    94    93    1
    73    84    82   ar
    74    84    83   ar
    75    82    80   ar
    76    96    95    2
    77    72    70   ar
    78    72    73   ar
    79    85    86    1
    80    70    68   ar
    81    86    89    1
    82    86    87    1
    83    95   102   am
    84    83    81   ar
    85    73    71   ar
    86    67    68    1
    87    68    69   ar
    88    71    69   ar
    89    80    79   ar
    90    88    87    2
    91   102   103    1
    92    81    79   ar
    93   107   109    1
    94   107   106    1
    95    79    78    1
    96   103   106    1
    97   103   104    1
    98   106   108    1
    99    78    75    1
   100   104   105    2
   101    77    76    2
   102    76    75    1
   103    75    74    1
