@<TRIPOS>MOLECULE
tmp/3n1wA00.pdb
 100 95 0 0 0
SMALL
GASTEIGER

@<TRIPOS>ATOM
      1  N         -6.4670   75.6370   23.3790 N.3     3  TYR3       -0.1241
      2  CA        -5.3000   75.8130   22.5200 C.3     3  TYR3        0.1605
      3  C         -5.3860   74.9450   21.2650 C.2     3  TYR3        0.2264
      4  O         -5.2600   75.4470   20.1510 O.2     3  TYR3       -0.2867
      5  CB        -4.0140   75.4730   23.2880 C.3     3  TYR3        0.0534
      6  CG        -3.4630   76.5990   24.1410 C.ar    3  TYR3       -0.0201
      7  CD1       -4.2710   77.2850   25.0300 C.ar    3  TYR3       -0.0009
      8  CD2       -2.1210   76.9480   24.0790 C.ar    3  TYR3       -0.0009
      9  CE1       -3.7600   78.2850   25.8370 C.ar    3  TYR3        0.0417
     10  CE2       -1.6000   77.9460   24.8830 C.ar    3  TYR3        0.0417
     11  CZ        -2.4230   78.6110   25.7620 C.ar    3  TYR3        0.1957
     12  OH        -1.9130   79.5940   26.5810 O.3     3  TYR3       -0.2866
     13  N          6.2240   73.4290   20.5090 N.3    50  LYS50      -0.1245
     14  CA         4.8250   73.2350   20.8850 C.3    50  LYS50       0.1561
     15  C          3.9980   74.5080   20.6600 C.2    50  LYS50       0.2260
     16  O          2.7670   74.4780   20.7400 O.2    50  LYS50      -0.2867
     17  CB         4.7440   72.7960   22.3540 C.3    50  LYS50       0.0271
     18  CG         5.3590   71.4150   22.6350 C.3    50  LYS50       0.0035
     19  CD         5.3000   71.0500   24.1210 C.3    50  LYS50       0.0206
     20  CE         6.2800   71.8780   24.9720 C.3    50  LYS50       0.1093
     21  NZ         7.7110   71.4370   24.8510 N.3    50  LYS50      -0.1314
     22  N          3.4460   77.0010   22.4720 N.3    52  ASN52      -0.1225
     23  CA         2.6510   77.4660   23.5930 C.3    52  ASN52       0.1785
     24  C          2.7560   78.9670   23.8030 C.2    52  ASN52       0.2597
     25  O          1.7380   79.6410   23.9360 O.2    52  ASN52      -0.2718
     26  CB         3.0480   76.7180   24.8640 C.3    52  ASN52       0.1169
     27  CG         2.8060   75.2210   24.7520 C.2    52  ASN52       0.2627
     28  OD1        1.7040   74.7890   24.3950 O.2    52  ASN52      -0.2716
     29  ND2        3.8330   74.4200   25.0520 N.am   52  ASN52      -0.0877
     30  N          3.9670   79.5080   23.8260 N.am   53  ARG53      -0.1979
     31  CA         4.1040   80.9480   24.0260 C.3    53  ARG53       0.1597
     32  C          3.3710   81.6990   22.9220 C.2    53  ARG53       0.2287
     33  O          2.5860   82.6040   23.2010 O.2    53  ARG53      -0.2864
     34  CB         5.5710   81.3470   24.0380 C.3    53  ARG53       0.0334
     35  CG         6.3850   80.5630   25.0390 C.3    53  ARG53       0.0492
     36  CD         7.7890   81.0810   25.0760 C.3    53  ARG53       0.2205
     37  NE         8.5970   80.4670   26.1280 N.pl3  53  ARG53      -0.0865
     38  CZ         8.9500   79.1850   26.1620 C.cat  53  ARG53       0.5346
     39  NH1        8.5610   78.3490   25.1990 N.pl3  53  ARG53       0.1354
     40  NH2        9.7220   78.7470   27.1480 N.pl3  53  ARG53       0.1354
     41  N         -0.4000   81.3370   23.1710 N.3    56  THR56      -0.1218
     42  CA        -0.9470   82.0870   24.2820 C.3    56  THR56       0.1862
     43  C         -1.3110   83.4870   23.8560 C.2    56  THR56       0.2287
     44  O         -2.2470   84.0800   24.3880 O.2    56  THR56      -0.2866
     45  CB         0.0230   82.1950   25.4650 C.3    56  THR56       0.1770
     46  OG1        0.2890   80.8950   26.0120 O.3    56  THR56      -0.2211
     47  CG2       -0.5800   83.0860   26.5390 C.3    56  THR56       0.0375
     48  N          8.4190   84.1010   28.7970 N.3   198  SER198     -0.1202
     49  CA         7.5570   82.9380   28.5850 C.3   198  SER198      0.2020
     50  C          6.1040   83.1350   29.0100 C.2   198  SER198      0.2618
     51  O          5.1920   82.6210   28.3620 O.2   198  SER198     -0.2717
     52  CB         8.1200   81.7090   29.3040 C.3   198  SER198      0.2103
     53  OG         9.3440   81.2790   28.7260 O.3   198  SER198     -0.2182
     54  N          5.8820   83.8800   30.0900 N.am  199  PHE199     -0.1975
     55  CA         4.5240   84.0990   30.5750 C.3   199  PHE199      0.1639
     56  C          4.0240   85.5450   30.5480 C.2   199  PHE199      0.2290
     57  O          2.9300   85.8190   30.0850 O.2   199  PHE199     -0.2864
     58  CB         4.3810   83.4980   31.9820 C.3   199  PHE199      0.0560
     59  CG         4.6880   82.0270   32.0370 C.ar  199  PHE199     -0.0200
     60  CD1        5.9810   81.5840   32.2330 C.ar  199  PHE199     -0.0042
     61  CD2        3.6990   81.0940   31.8010 C.ar  199  PHE199     -0.0042
     62  CE1        6.2770   80.2350   32.1860 C.ar  199  PHE199     -0.0003
     63  CE2        3.9920   79.7450   31.7510 C.ar  199  PHE199     -0.0003
     64  CZ         5.2750   79.3200   31.9390 C.ar  199  PHE199     -0.0000
     65  N          6.2570   76.6590   36.8660 N.3   232  PHE232     -0.1241
     66  CA         6.5740   75.9320   35.6450 C.3   232  PHE232      0.1605
     67  C          8.0270   75.4710   35.6180 C.2   232  PHE232      0.2264
     68  O          8.3170   74.3360   35.2500 O.2   232  PHE232     -0.2867
     69  CB         6.3260   76.8240   34.4430 C.3   232  PHE232      0.0534
     70  CG         6.8620   76.2720   33.1730 C.ar  232  PHE232     -0.0203
     71  CD1        6.1530   75.3170   32.4700 C.ar  232  PHE232     -0.0042
     72  CD2        8.0760   76.7060   32.6770 C.ar  232  PHE232     -0.0042
     73  CE1        6.6420   74.8010   31.2880 C.ar  232  PHE232     -0.0003
     74  CE2        8.5740   76.1960   31.4980 C.ar  232  PHE232     -0.0003
     75  CZ         7.8500   75.2400   30.8020 C.ar  232  PHE232     -0.0000
     76  N         -4.3970   79.0550   31.1210 N.3   337  LEU337     -0.1245
     77  CA        -2.9540   78.9390   31.0560 C.3   337  LEU337      0.1561
     78  C         -2.4250   78.1010   32.2110 C.2   337  LEU337      0.2260
     79  O         -1.5270   77.2720   32.0400 O.2   337  LEU337     -0.2867
     80  CB        -2.3500   80.3330   31.1080 C.3   337  LEU337      0.0270
     81  CG        -0.8440   80.3990   31.1320 C.3   337  LEU337      0.0019
     82  CD1       -0.3070   79.7150   29.9000 C.3   337  LEU337      0.0001
     83  CD2       -0.4280   81.8430   31.1950 C.3   337  LEU337      0.0001
     84  N         -3.0280   74.3670   31.9430 N.3   340  LYS340     -0.1231
     85  CA        -2.2020   73.7170   30.9460 C.3   340  LYS340      0.1693
     86  C         -0.8240   73.4330   31.5550 C.2   340  LYS340      0.2591
     87  O         -0.0680   72.6070   31.0510 O.2   340  LYS340     -0.2718
     88  CB        -2.0830   74.6030   29.7040 C.3   340  LYS340      0.0285
     89  CG        -2.1140   73.8450   28.3820 C.3   340  LYS340      0.0035
     90  CD        -1.7860   74.7770   27.2260 C.3   340  LYS340      0.0206
     91  CE        -1.4750   74.0340   25.9280 C.3   340  LYS340      0.1093
     92  NZ        -2.6680   73.4240   25.2810 N.3   340  LYS340     -0.1314
     93  N         -0.5150   74.0990   32.6600 N.am  341  ILE341     -0.1980
     94  CA         0.7670   73.9110   33.3250 C.3   341  ILE341      0.1595
     95  C          0.7230   72.8890   34.4580 C.2   341  ILE341      0.2287
     96  O          1.5700   72.0060   34.5290 O.2   341  ILE341     -0.2864
     97  CB         1.2810   75.2410   33.9260 C.3   341  ILE341      0.0276
     98  CG1        1.5190   76.2650   32.8340 C.3   341  ILE341      0.0022
     99  CG2        2.5860   75.0210   34.6580 C.3   341  ILE341      0.0022
    100  CD1        1.9740   77.5750   33.3980 C.3   341  ILE341      0.0001
@<TRIPOS>BOND
     1     4     3    2
     2    13    14    1
     3    15    16    2
     4    15    14    1
     5    14    17    1
     6     3     2    1
     7    17    18    1
     8    22    23    1
     9     2     5    1
    10     2     1    1
    11    18    19    1
    12    32    33    2
    13    32    31    1
    14    41    42    1
    15     5     6    1
    16    23    24    1
    17    23    26    1
    18    24    30   am
    19    24    25    2
    20    30    31    1
    21    43    42    1
    22    43    44    2
    23    31    34    1
    24    34    35    1
    25     8     6   ar
    26     8    10   ar
    27    19    20    1
    28     6     7   ar
    29    42    45    1
    30    28    27    2
    31    27    26    1
    32    27    29   am
    33    21    20    1
    34    10    11   ar
    35     7     9   ar
    36    35    36    1
    37    36    37    1
    38    39    38    1
    39    92    91    1
    40    45    46    1
    41    45    47    1
    42    11     9   ar
    43    11    12    1
    44    91    90    1
    45    37    38    2
    46    38    40    1
    47    90    89    1
    48    51    50    2
    49    89    88    1
    50    49    48    1
    51    49    50    1
    52    49    52    1
    53    53    52    1
    54    50    54   am
    55    88    85    1
    56    82    81    1
    57    57    56    2
    58    54    55    1
    59    56    55    1
    60    55    58    1
    61    75    73   ar
    62    75    74   ar
    63    85    86    1
    64    85    84    1
    65    87    86    2
    66    77    80    1
    67    77    76    1
    68    77    78    1
    69    80    81    1
    70    81    83    1
    71    73    71   ar
    72    74    72   ar
    73    86    93   am
    74    63    61   ar
    75    63    64   ar
    76    61    59   ar
    77    64    62   ar
    78    58    59    1
    79    59    60   ar
    80    79    78    2
    81    62    60   ar
    82    71    70   ar
    83    93    94    1
    84    72    70   ar
    85    98   100    1
    86    98    97    1
    87    70    69    1
    88    94    97    1
    89    94    95    1
    90    97    99    1
    91    69    66    1
    92    95    96    2
    93    68    67    2
    94    67    66    1
    95    66    65    1
