@<TRIPOS>MOLECULE
tmp/3n1zA01.pdb
 151 145 0 0 0
SMALL
GASTEIGER

@<TRIPOS>ATOM
      1  N         55.8860   34.4820   -6.1720 N.3   166  TRP166     -0.1241
      2  CA        55.9270   34.5550   -4.7180 C.3   166  TRP166      0.1605
      3  C         56.5380   33.3650   -3.9940 C.2   166  TRP166      0.2264
      4  O         57.2430   33.5530   -3.0010 O.2   166  TRP166     -0.2867
      5  CB        54.5380   34.8470   -4.1410 C.3   166  TRP166      0.0550
      6  CG        53.5960   33.6820   -4.1610 C.ar  166  TRP166      0.0003
      7  CD1       52.7410   33.3200   -5.1720 C.ar  166  TRP166      0.0946
      8  CD2       53.4220   32.7130   -3.1250 C.ar  166  TRP166      0.0152
      9  NE1       52.0420   32.1840   -4.8200 N.ar  166  TRP166     -0.2442
     10  CE2       52.4400   31.7950   -3.5680 C.ar  166  TRP166      0.0810
     11  CE3       53.9910   32.5380   -1.8580 C.ar  166  TRP166      0.0012
     12  CZ2       52.0330   30.7080   -2.7910 C.ar  166  TRP166      0.0191
     13  CZ3       53.5860   31.4630   -1.0900 C.ar  166  TRP166      0.0001
     14  CH2       52.6090   30.5630   -1.5570 C.ar  166  TRP166      0.0015
     15  N         45.4660   29.2690    1.3980 N.3   333  GLY333     -0.1225
     16  CA        46.0060   30.4130    0.6930 C.3   333  GLY333      0.1811
     17  C         46.4390   30.0370   -0.7180 C.2   333  GLY333      0.2280
     18  O         45.9760   30.6330   -1.6990 O.2   333  GLY333     -0.2866
     19  N         44.7290   31.1590   -4.1550 N.3   337  TRP337     -0.1241
     20  CA        45.5480   31.9490   -5.0710 C.3   337  TRP337      0.1605
     21  C         46.1860   31.0760   -6.1360 C.2   337  TRP337      0.2264
     22  O         47.2410   31.3690   -6.7000 O.2   337  TRP337     -0.2867
     23  CB        46.5880   32.7290   -4.2880 C.3   337  TRP337      0.0550
     24  CG        46.0760   34.0800   -3.9270 C.ar  337  TRP337      0.0003
     25  CD1       46.1770   35.2160   -4.6740 C.ar  337  TRP337      0.0946
     26  CD2       45.3320   34.4340   -2.7570 C.ar  337  TRP337      0.0152
     27  NE1       45.5420   36.2610   -4.0470 N.ar  337  TRP337     -0.2442
     28  CE2       45.0130   35.8130   -2.8680 C.ar  337  TRP337      0.0810
     29  CE3       44.8980   33.7230   -1.6280 C.ar  337  TRP337      0.0012
     30  CZ2       44.2840   36.5020   -1.8880 C.ar  337  TRP337      0.0191
     31  CZ3       44.1680   34.4120   -0.6460 C.ar  337  TRP337      0.0001
     32  CH2       43.8700   35.7930   -0.7910 C.ar  337  TRP337      0.0015
     33  N         46.1090   30.3390   -9.3980 N.3   339  PRO339     -0.2102
     34  CA        46.8610   30.7790  -10.5760 C.3   339  PRO339      0.1504
     35  C         48.2070   31.4620  -10.3710 C.2   339  PRO339      0.2576
     36  O         48.8890   31.7820  -11.3460 O.2   339  PRO339     -0.2718
     37  CB        45.8630   31.6790  -11.2960 C.3   339  PRO339      0.0282
     38  CG        45.1060   32.2600  -10.1930 C.3   339  PRO339      0.0208
     39  CD        44.8510   31.0930   -9.2880 C.3   339  PRO339      0.0893
     40  N         48.6030   31.6850   -9.1250 N.am  340  THR340     -0.1953
     41  CA        49.8800   32.3410   -8.8740 C.3   340  THR340      0.1897
     42  C         51.0490   31.3760   -8.6770 C.2   340  THR340      0.2313
     43  O         52.1930   31.8080   -8.5670 O.2   340  THR340     -0.2863
     44  CB        49.7940   33.2670   -7.6540 C.3   340  THR340      0.1794
     45  OG1       49.5220   32.4900   -6.4810 O.3   340  THR340     -0.2208
     46  CG2       48.6910   34.2850   -7.8470 C.3   340  THR340      0.0378
     47  N         34.2380   32.3350  -10.3070 N.3   385  GLU385     -0.1245
     48  CA        34.9510   33.5990  -10.1440 C.3   385  GLU385      0.1567
     49  C         35.1020   34.0580   -8.6950 C.2   385  GLU385      0.2260
     50  O         36.0370   34.7820   -8.3730 O.2   385  GLU385     -0.2867
     51  CB        34.2730   34.7060  -10.9530 C.3   385  GLU385      0.0388
     52  CG        32.8590   35.0460  -10.5040 C.3   385  GLU385      0.1160
     53  CD        31.7980   34.1320  -11.1180 C.2   385  GLU385      0.3649
     54  OE1       32.1680   33.1960  -11.8700 O.co2 385  GLU385     -0.2457
     55  OE2       30.5930   34.3550  -10.8470 O.co2 385  GLU385     -0.2457
     56  N         38.5730   32.6500   -6.9220 N.3   388  VAL388     -0.1231
     57  CA        39.9100   33.1380   -7.2650 C.3   388  VAL388      0.1678
     58  C         39.9100   34.5540   -6.6870 C.2   388  VAL388      0.2434
     59  O         38.8540   35.1320   -6.4570 O.2   388  VAL388     -0.2733
     60  CB        40.1600   33.1680   -8.7940 C.3   388  VAL388      0.0265
     61  CG1       40.5020   31.7710   -9.2840 C.3   388  VAL388      0.0020
     62  CG2       38.9310   33.6930   -9.5230 C.3   388  VAL388      0.0020
     63  N         41.0880   35.1360   -6.4560 N.am  389  PRO389     -0.2729
     64  CA        41.1850   36.4830   -5.8830 C.3   389  PRO389      0.1401
     65  C         41.2460   37.6800   -6.8270 C.2   389  PRO389      0.2269
     66  O         41.5210   37.5580   -8.0250 O.2   389  PRO389     -0.2865
     67  CB        42.4490   36.3840   -5.0540 C.3   389  PRO389      0.0296
     68  CG        43.3460   35.6450   -6.0340 C.3   389  PRO389      0.0237
     69  CD        42.4260   34.5390   -6.6070 C.3   389  PRO389      0.0939
     70  N         42.7820   40.5530   -5.3390 N.3   391  THR391     -0.1203
     71  CA        43.7610   41.3530   -4.6160 C.3   391  THR391      0.1994
     72  C         44.8800   40.4720   -4.0540 C.2   391  THR391      0.2618
     73  O         44.7700   39.2520   -4.0810 O.2   391  THR391     -0.2717
     74  CB        43.1050   42.1010   -3.4570 C.3   391  THR391      0.1784
     75  OG1       44.0270   43.0740   -2.9510 O.3   391  THR391     -0.2211
     76  CG2       42.7310   41.1370   -2.3370 C.3   391  THR391      0.0376
     77  N         45.9560   41.0720   -3.5530 N.am  392  LEU392     -0.1966
     78  CA        47.0460   40.2660   -3.0040 C.3   392  LEU392      0.1713
     79  C         46.8530   40.0530   -1.5130 C.2   392  LEU392      0.2458
     80  O         46.2080   40.8520   -0.8400 O.2   392  LEU392     -0.2730
     81  CB        48.4250   40.9290   -3.1820 C.3   392  LEU392      0.0310
     82  CG        48.8330   41.9420   -4.2540 C.3   392  LEU392      0.0022
     83  CD1       50.3390   41.8070   -4.4850 C.3   392  LEU392      0.0001
     84  CD2       48.0790   41.7170   -5.5550 C.3   392  LEU392      0.0001
     85  N         47.4100   38.9610   -0.9760 N.am  393  PRO393     -0.2727
     86  CA        47.2570   38.7360    0.4590 C.3   393  PRO393      0.1402
     87  C         48.3670   39.5500    1.1190 C.2   393  PRO393      0.2269
     88  O         49.2430   40.0890    0.4390 O.2   393  PRO393     -0.2865
     89  CB        47.4890   37.2340    0.5900 C.3   393  PRO393      0.0296
     90  CG        48.5760   37.0090   -0.4030 C.3   393  PRO393      0.0237
     91  CD        48.1110   37.8290   -1.6120 C.3   393  PRO393      0.0939
     92  N         51.7000   39.7350    2.6620 N.3   395  ILE395     -0.1245
     93  CA        52.8890   38.8850    2.8040 C.3   395  ILE395      0.1561
     94  C         53.6840   39.2380    4.0560 C.2   395  ILE395      0.2260
     95  O         53.9050   40.4100    4.3410 O.2   395  ILE395     -0.2867
     96  CB        53.8830   39.0380    1.6180 C.3   395  ILE395      0.0252
     97  CG1       53.1710   38.8620    0.2730 C.3   395  ILE395      0.0019
     98  CG2       55.0480   38.0860    1.8050 C.3   395  ILE395      0.0019
     99  CD1       52.0340   37.8860    0.2980 C.3   395  ILE395      0.0001
    100  N         52.0080   34.4250    2.8850 N.3   402  PRO402     -0.2116
    101  CA        50.8020   35.1020    3.3730 C.3   402  PRO402      0.1372
    102  C         50.6160   34.9360    4.8820 C.2   402  PRO402      0.2244
    103  O         51.0100   33.9200    5.4610 O.2   402  PRO402     -0.2868
    104  CB        49.6840   34.4360    2.5700 C.3   402  PRO402      0.0268
    105  CG        50.2190   33.0580    2.3490 C.3   402  PRO402      0.0207
    106  CD        51.6480   33.3560    1.9410 C.3   402  PRO402      0.0892
    107  N         56.7680   41.0510   -2.0080 N.3   449  LEU449     -0.1245
    108  CA        55.9480   41.3200   -3.1820 C.3   449  LEU449      0.1561
    109  C         54.9050   42.4300   -3.0350 C.2   449  LEU449      0.2260
    110  O         54.7320   43.2390   -3.9480 O.2   449  LEU449     -0.2867
    111  CB        55.2820   40.0230   -3.6470 C.3   449  LEU449      0.0270
    112  CG        55.1100   39.9600   -5.1620 C.3   449  LEU449      0.0019
    113  CD1       56.3270   40.6040   -5.8310 C.3   449  LEU449      0.0001
    114  CD2       54.9330   38.5140   -5.5990 C.3   449  LEU449      0.0001
    115  N         46.5000   42.7810  -11.2370 N.3   463  LEU463     -0.1245
    116  CA        46.7520   41.3490  -11.1860 C.3   463  LEU463      0.1561
    117  C         47.4530   40.8110  -12.4210 C.2   463  LEU463      0.2260
    118  O         48.2950   39.9330  -12.3090 O.2   463  LEU463     -0.2867
    119  CB        45.4450   40.5800  -10.9760 C.3   463  LEU463      0.0270
    120  CG        44.6110   40.9410   -9.7400 C.3   463  LEU463      0.0019
    121  CD1       43.5020   39.9090   -9.5830 C.3   463  LEU463      0.0001
    122  CD2       45.4660   40.9970   -8.4830 C.3   463  LEU463      0.0001
    123  N         51.0060   41.7100  -12.1140 N.3   466  ALA466     -0.1231
    124  CA        51.6950   40.9420  -11.0880 C.3   466  ALA466      0.1694
    125  C         52.0440   39.5580  -11.6270 C.2   466  ALA466      0.2591
    126  O         53.1210   39.0380  -11.3480 O.2   466  ALA466     -0.2718
    127  CB        50.8310   40.8270   -9.8310 C.3   466  ALA466      0.0304
    128  N         51.1370   38.9690  -12.4050 N.am  467  LEU467     -0.1980
    129  CA        51.3610   37.6480  -13.0010 C.3   467  LEU467      0.1596
    130  C         52.5340   37.6880  -13.9700 C.2   467  LEU467      0.2287
    131  O         53.3590   36.7750  -14.0120 O.2   467  LEU467     -0.2864
    132  CB        50.1070   37.1750  -13.7540 C.3   467  LEU467      0.0297
    133  CG        48.8870   36.8070  -12.8970 C.3   467  LEU467      0.0022
    134  CD1       47.6230   36.6850  -13.7490 C.3   467  LEU467      0.0001
    135  CD2       49.1810   35.5130  -12.1510 C.3   467  LEU467      0.0001
    136  N         55.7340   37.9390  -12.3060 N.3   470  MET470     -0.1245
    137  CA        56.1510   36.6700  -11.7090 C.3   470  MET470      0.1570
    138  C         56.3940   35.5930  -12.7630 C.2   470  MET470      0.2261
    139  O         56.5290   34.4150  -12.4380 O.2   470  MET470     -0.2867
    140  CB        55.0980   36.1870  -10.7010 C.3   470  MET470      0.0387
    141  CG        54.8660   37.1420   -9.5280 C.3   470  MET470      0.0595
    142  SD        53.7310   36.4830   -8.2580 S.3   470  MET470     -0.1393
    143  CE        52.2700   36.1820   -9.2780 C.3   470  MET470      0.0692
    144  N         50.2400   28.5800  -15.0790 N.3   477  MET477     -0.1245
    145  CA        49.4810   29.1500  -13.9630 C.3   477  MET477      0.1570
    146  C         48.6420   28.0020  -13.4350 C.2   477  MET477      0.2261
    147  O         48.0110   27.2880  -14.2100 O.2   477  MET477     -0.2867
    148  CB        48.5530   30.2720  -14.4280 C.3   477  MET477      0.0387
    149  CG        49.2510   31.5670  -14.7750 C.3   477  MET477      0.0595
    150  SD        48.1830   32.6590  -15.7230 S.3   477  MET477     -0.1393
    151  CE        46.8910   33.0010  -14.4930 C.3   477  MET477      0.0692
@<TRIPOS>BOND
     1   150   149    1
     2   150   151    1
     3   144   145    1
     4   149   148    1
     5   148   145    1
     6   147   146    2
     7   131   130    2
     8   130   129    1
     9   145   146    1
    10   132   129    1
    11   132   133    1
    12   134   133    1
    13   129   128    1
    14   133   135    1
    15   138   139    2
    16   138   137    1
    17   117   118    2
    18   117   116    1
    19   128   125   am
    20   136   137    1
    21   123   124    1
    22    54    53   ar
    23   137   140    1
    24   125   126    2
    25   125   124    1
    26    36    35    2
    27    37    34    1
    28    37    38    1
    29   115   116    1
    30   116   119    1
    31    53    55   ar
    32    53    52    1
    33   124   127    1
    34   119   120    1
    35    51    52    1
    36    51    48    1
    37   140   141    1
    38    34    35    1
    39    34    33    1
    40    35    40   am
    41    47    48    1
    42    38    39    1
    43    48    49    1
    44   120   121    1
    45   120   122    1
    46   141   142    1
    47    62    60    1
    48    33    39    1
    49    61    60    1
    50   143   142    1
    51    40    41    1
    52    41    42    1
    53    41    44    1
    54    60    57    1
    55    49    50    2
    56    42    43    2
    57    66    65    2
    58    46    44    1
    59    44    45    1
    60    57    56    1
    61    57    58    1
    62    65    64    1
    63    22    21    2
    64    58    59    2
    65    58    63   am
    66    69    63    1
    67    69    68    1
    68    63    64    1
    69     1     2    1
    70    21    20    1
    71    68    67    1
    72    64    67    1
    73   113   112    1
    74   114   112    1
    75    84    82    1
    76    70    71    1
    77     7     9   ar
    78     7     6   ar
    79   112   111    1
    80    20    23    1
    81    20    19    1
    82     9    10   ar
    83     2     5    1
    84     2     3    1
    85    25    27   ar
    86    25    24   ar
    87    71    72    1
    88    71    74    1
    89    83    82    1
    90    23    24    1
    91    82    81    1
    92     6     5    1
    93     6     8   ar
    94    73    72    2
    95    72    77   am
    96    27    28   ar
    97     3     4    2
    98   110   109    2
    99    24    26   ar
   100   111   108    1
   101    10     8   ar
   102    10    12   ar
   103    77    78    1
   104    74    75    1
   105    74    76    1
   106    81    78    1
   107   108   109    1
   108   108   107    1
   109     8    11   ar
   110    78    79    1
   111    28    26   ar
   112    28    30   ar
   113    12    14   ar
   114    26    29   ar
   115    30    32   ar
   116    11    13   ar
   117    18    17    2
   118    29    31   ar
   119    91    85    1
   120    91    90    1
   121    14    13   ar
   122    79    85   am
   123    79    80    2
   124    85    86    1
   125    32    31   ar
   126    17    16    1
   127    90    89    1
   128    97    99    1
   129    97    96    1
   130    88    87    2
   131    86    89    1
   132    86    87    1
   133    16    15    1
   134    96    98    1
   135    96    93    1
   136   106   105    1
   137   106   100    1
   138   105   104    1
   139   104   101    1
   140    92    93    1
   141    93    94    1
   142   100   101    1
   143   101   102    1
   144    94    95    2
   145   102   103    2
