@<TRIPOS>MOLECULE
tmp/3n20A02.pdb
 87 79 0 0 0
SMALL
GASTEIGER

@<TRIPOS>ATOM
      1  N        104.8460   -3.8130   26.7170 N.3    63  GLU63      -0.1231
      2  CA       105.8820   -2.7910   26.7380 C.3    63  GLU63       0.1699
      3  C        107.2450   -3.4120   26.9940 C.2    63  GLU63       0.2592
      4  O        108.2550   -2.9260   26.4900 O.2    63  GLU63      -0.2718
      5  CB       105.5790   -1.7320   27.8000 C.3    63  GLU63       0.0402
      6  CG       104.4260   -0.7970   27.4310 C.3    63  GLU63       0.1161
      7  CD       104.5410   -0.2330   26.0140 C.2    63  GLU63       0.3649
      8  OE1      105.6430    0.2050   25.6210 O.co2  63  GLU63      -0.2457
      9  OE2      103.5210   -0.2180   25.2950 O.co2  63  GLU63      -0.2457
     10  N        107.2730   -4.4920   27.7690 N.am   64  LYS64      -0.1980
     11  CA       108.5360   -5.1600   28.0510 C.3    64  LYS64       0.1596
     12  C        109.2150   -5.6510   26.7730 C.2    64  LYS64       0.2287
     13  O        110.3940   -5.3710   26.5430 O.2    64  LYS64      -0.2864
     14  CB       108.3470   -6.3230   29.0360 C.3    64  LYS64       0.0298
     15  CG       107.9910   -5.8600   30.4450 C.3    64  LYS64       0.0038
     16  CD       108.3340   -6.9060   31.4960 C.3    64  LYS64       0.0206
     17  CE       107.9970   -6.3980   32.8940 C.3    64  LYS64       0.1093
     18  NZ       108.1630   -7.4500   33.9340 N.3    64  LYS64      -0.1314
     19  N        110.3990   -2.8510   24.2810 N.3    67  GLY67      -0.1210
     20  CA       111.7050   -2.3140   24.5990 C.3    67  GLY67       0.1956
     21  C        112.8590   -3.2520   24.2890 C.2    67  GLY67       0.2611
     22  O        113.8110   -2.8560   23.6170 O.2    67  GLY67      -0.2717
     23  N        112.7820   -4.4910   24.7710 N.am   68  ALA68      -0.1979
     24  CA       113.8430   -5.4720   24.5460 C.3    68  ALA68       0.1597
     25  C        114.0880   -5.7260   23.0580 C.2    68  ALA68       0.2287
     26  O        115.2290   -5.7140   22.5980 O.2    68  ALA68      -0.2864
     27  CB       113.5020   -6.7840   25.2490 C.3    68  ALA68       0.0319
     28  N        115.6830   -2.6520   21.3470 N.3    71  ILE71      -0.1245
     29  CA       117.0960   -2.4970   21.6410 C.3    71  ILE71       0.1561
     30  C        117.9020   -3.4910   20.8160 C.2    71  ILE71       0.2260
     31  O        118.9640   -3.1520   20.2930 O.2    71  ILE71      -0.2867
     32  CB       117.3710   -2.7050   23.1450 C.3    71  ILE71       0.0252
     33  CG1      116.7060   -1.5770   23.9350 C.3    71  ILE71       0.0019
     34  CG2      118.8660   -2.7310   23.4130 C.3    71  ILE71       0.0019
     35  CD1      116.6940   -1.7960   25.4230 C.3    71  ILE71       0.0001
     36  N        120.2660  -10.7740   37.9620 N.3   205  LEU205     -0.1245
     37  CA       120.5650   -9.3890   38.3020 C.3   205  LEU205      0.1561
     38  C        122.0720   -9.1940   38.1120 C.2   205  LEU205      0.2260
     39  O        122.5180   -8.1990   37.5420 O.2   205  LEU205     -0.2867
     40  CB       120.1710   -9.1290   39.7590 C.3   205  LEU205      0.0270
     41  CG       119.2380   -7.9660   40.1060 C.3   205  LEU205      0.0019
     42  CD1      118.2470   -7.6880   38.9890 C.3   205  LEU205      0.0001
     43  CD2      118.5110   -8.3150   41.4000 C.3   205  LEU205      0.0001
     44  N        123.0160   -9.5970   34.2420 N.3   208  ALA208     -0.1231
     45  CA       122.6830   -8.4030   33.4660 C.3   208  ALA208      0.1694
     46  C        123.7390   -7.3180   33.6970 C.2   208  ALA208      0.2591
     47  O        124.1030   -6.5830   32.7810 O.2   208  ALA208     -0.2718
     48  CB       121.3030   -7.8830   33.8680 C.3   208  ALA208      0.0304
     49  N        124.2210   -7.2130   34.9310 N.am  209  ALA209     -0.1980
     50  CA       125.2450   -6.2300   35.2510 C.3   209  ALA209      0.1597
     51  C        126.5370   -6.6280   34.5340 C.2   209  ALA209      0.2287
     52  O        127.2050   -5.7860   33.9340 O.2   209  ALA209     -0.2864
     53  CB       125.4670   -6.1680   36.7680 C.3   209  ALA209      0.0319
     54  N        120.0580   -6.0620   28.2450 N.3   221  SER221     -0.1217
     55  CA       118.6540   -5.6750   28.1960 C.3   221  SER221      0.1889
     56  C        117.7600   -6.9030   28.2370 C.2   221  SER221      0.2288
     57  O        116.6750   -6.8680   28.8160 O.2   221  SER221     -0.2866
     58  CB       118.3640   -4.8770   26.9230 C.3   221  SER221      0.2089
     59  OG       119.0840   -3.6570   26.9190 O.3   221  SER221     -0.2183
     60  N        118.0350   -8.5620   31.8640 N.3   224  SER224     -0.1202
     61  CA       117.4590   -7.5570   32.7240 C.3   224  SER224      0.2020
     62  C        115.9300   -7.5880   32.5890 C.2   224  SER224      0.2619
     63  O        115.2050   -7.6350   33.5860 O.2   224  SER224     -0.2717
     64  CB       118.0280   -6.2060   32.3070 C.3   224  SER224      0.2103
     65  OG       117.4430   -5.1620   33.0280 O.3   224  SER224     -0.2182
     66  N        115.4380   -7.5880   31.3540 N.am  225  SER225     -0.1951
     67  CA       113.9960   -7.6180   31.1200 C.3   225  SER225      0.1924
     68  C        113.3780   -8.9020   31.6570 C.2   225  SER225      0.2314
     69  O        112.2950   -8.8830   32.2520 O.2   225  SER225     -0.2863
     70  CB       113.6910   -7.5050   29.6250 C.3   225  SER225      0.2116
     71  OG       112.2890   -7.5150   29.4010 O.3   225  SER225     -0.2180
     72  N        114.4540  -10.9270   34.1410 N.3   227  GLN227     -0.1231
     73  CA       114.3570  -11.0400   35.5840 C.3   227  GLN227      0.1698
     74  C        113.2740  -10.2020   36.2520 C.2   227  GLN227      0.2592
     75  O        112.9010  -10.5010   37.3830 O.2   227  GLN227     -0.2718
     76  CB       115.7410  -10.8460   36.2410 C.3   227  GLN227      0.0381
     77  CG       116.1240   -9.4690   36.7110 C.3   227  GLN227      0.0905
     78  CD       115.4540   -9.0710   38.0120 C.2   227  GLN227      0.2608
     79  OE1      115.5000   -9.7940   39.0110 O.2   227  GLN227     -0.2717
     80  NE2      114.8340   -7.9050   38.0060 N.am  227  GLN227     -0.0878
     81  N        112.7410   -9.1830   35.5750 N.am  228  THR228     -0.1953
     82  CA       111.6590   -8.4080   36.1880 C.3   228  THR228      0.1897
     83  C        110.3730   -9.2290   36.1780 C.2   228  THR228      0.2313
     84  O        109.3860   -8.8470   36.8050 O.2   228  THR228     -0.2863
     85  CB       111.3440   -7.0810   35.4580 C.3   228  THR228      0.1794
     86  OG1      111.0140   -7.3370   34.0870 O.3   228  THR228     -0.2208
     87  CG2      112.5080   -6.1420   35.5480 C.3   228  THR228      0.0378
@<TRIPOS>BOND
     1    31    30    2
     2    30    29    1
     3    28    29    1
     4    29    32    1
     5    26    25    2
     6    25    24    1
     7    32    34    1
     8    32    33    1
     9    22    21    2
    10    33    35    1
    11    19    20    1
    12    21    20    1
    13    21    23   am
    14    24    23    1
    15    24    27    1
    16     9     7   ar
    17     8     7   ar
    18     7     6    1
    19     4     3    2
    20    13    12    2
    21     1     2    1
    22     2     3    1
    23     2     5    1
    24    12    11    1
    25    59    58    1
    26    58    55    1
    27     3    10   am
    28     6     5    1
    29    10    11    1
    30    11    14    1
    31    55    56    1
    32    55    54    1
    33    56    57    2
    34    14    15    1
    35    71    70    1
    36    70    67    1
    37    15    16    1
    38    67    66    1
    39    67    68    1
    40    66    62   am
    41    16    17    1
    42    68    69    2
    43    60    61    1
    44    64    61    1
    45    64    65    1
    46    62    61    1
    47    62    63    2
    48    47    46    2
    49    17    18    1
    50    45    46    1
    51    45    48    1
    52    45    44    1
    53    46    49   am
    54    52    51    2
    55    86    85    1
    56    72    73    1
    57    51    50    1
    58    49    50    1
    59    50    53    1
    60    85    87    1
    61    85    82    1
    62    81    82    1
    63    81    74   am
    64    73    76    1
    65    73    74    1
    66    83    82    1
    67    83    84    2
    68    76    77    1
    69    74    75    2
    70    77    78    1
    71    39    38    2
    72    36    37    1
    73    80    78   am
    74    78    79    2
    75    38    37    1
    76    37    40    1
    77    42    41    1
    78    40    41    1
    79    41    43    1
