@<TRIPOS>MOLECULE
tmp/3n25H00.pdb
 94 91 0 0 0
SMALL
GASTEIGER

@<TRIPOS>ATOM
      1  N        -42.6980  -12.8320   71.8620 N.3    32  ARG32      -0.1231
      2  CA       -43.8810  -12.3690   71.1490 C.3    32  ARG32       0.1694
      3  C        -44.7690  -11.6970   72.1730 C.2    32  ARG32       0.2592
      4  O        -45.1680  -12.3180   73.1670 O.2    32  ARG32      -0.2718
      5  CB       -44.6060  -13.5430   70.4890 C.3    32  ARG32       0.0321
      6  CG       -45.8000  -13.1330   69.5960 C.3    32  ARG32       0.0489
      7  CD       -47.1050  -13.3840   70.3000 C.3    32  ARG32       0.2205
      8  NE       -47.1480  -14.7730   70.7500 N.pl3  32  ARG32      -0.0865
      9  CZ       -48.0370  -15.2910   71.5810 C.cat  32  ARG32       0.5346
     10  NH1      -49.0140  -14.5500   72.0850 N.pl3  32  ARG32       0.1354
     11  NH2      -47.9480  -16.5740   71.8910 N.pl3  32  ARG32       0.1354
     12  N        -45.0740  -10.4300   71.9370 N.am   33  ASN33      -0.1974
     13  CA       -45.6930   -9.5960   72.9550 C.3    33  ASN33       0.1688
     14  C        -47.2060   -9.4620   72.8730 C.2    33  ASN33       0.2292
     15  O        -47.8510   -9.1300   73.8570 O.2    33  ASN33      -0.2864
     16  CB       -45.0360   -8.2160   72.9640 C.3    33  ASN33       0.1181
     17  CG       -43.5910   -8.2540   73.4540 C.2    33  ASN33       0.2629
     18  OD1      -43.1980   -9.1220   74.2540 O.2    33  ASN33      -0.2716
     19  ND2      -42.7970   -7.2990   72.9910 N.am   33  ASN33      -0.0877
     20  N        -50.7790  -10.7400   73.0870 N.3    35  GLY35      -0.1225
     21  CA       -51.5770  -11.8440   73.6110 C.3    35  GLY35       0.1811
     22  C        -52.5470  -12.4450   72.5940 C.2    35  GLY35       0.2280
     23  O        -53.2020  -11.7230   71.8310 O.2    35  GLY35      -0.2866
     24  N        -52.8220  -17.8950   74.7250 N.3    59  ASN59      -0.1240
     25  CA       -52.6850  -17.3000   76.0390 C.3    59  ASN59       0.1653
     26  C        -53.9990  -17.3770   76.8030 C.2    59  ASN59       0.2266
     27  O        -54.0020  -17.5770   78.0230 O.2    59  ASN59      -0.2867
     28  CB       -52.2650  -15.8410   75.9180 C.3    59  ASN59       0.1155
     29  CG       -50.9040  -15.6680   75.2690 C.2    59  ASN59       0.2627
     30  OD1      -50.7260  -14.7960   74.4260 O.2    59  ASN59      -0.2716
     31  ND2      -49.9390  -16.4860   75.6650 N.am   59  ASN59      -0.0877
     32  N        -46.5860  -22.4680   81.1670 N.3    95  ARG95      -0.1245
     33  CA       -47.3110  -21.2540   80.7720 C.3    95  ARG95       0.1563
     34  C        -48.6810  -21.1900   81.4560 C.2    95  ARG95       0.2260
     35  O        -49.4730  -22.1260   81.3380 O.2    95  ARG95      -0.2867
     36  CB       -47.4960  -21.1510   79.2460 C.3    95  ARG95       0.0307
     37  CG       -46.2280  -21.1520   78.3690 C.3    95  ARG95       0.0489
     38  CD       -45.1210  -20.2090   78.8540 C.3    95  ARG95       0.2205
     39  NE       -45.5220  -18.7990   78.9570 N.pl3  95  ARG95      -0.0865
     40  CZ       -45.4810  -18.0680   80.0750 C.cat  95  ARG95       0.5346
     41  NH1      -45.0500  -18.5890   81.2230 N.pl3  95  ARG95       0.1354
     42  NH2      -45.8590  -16.7980   80.0410 N.pl3  95  ARG95       0.1354
     43  N        -52.0680  -11.7270   80.7350 N.3   452  HIS452     -0.1241
     44  CA       -52.1320  -11.9970   79.2930 C.3   452  HIS452      0.1621
     45  C        -52.8860  -10.9220   78.5070 C.2   452  HIS452      0.2264
     46  O        -52.6990  -10.7710   77.2910 O.2   452  HIS452     -0.2867
     47  CB       -52.7550  -13.3630   79.0530 C.3   452  HIS452      0.0745
     48  CG       -51.8240  -14.5080   79.3060 C.ar  452  HIS452      0.0817
     49  ND1      -50.5550  -14.5700   78.7690 N.ar  452  HIS452     -0.2268
     50  CD2      -51.9920  -15.6530   80.0100 C.ar  452  HIS452      0.1154
     51  CE1      -49.9790  -15.6990   79.1420 C.ar  452  HIS452      0.1986
     52  NE2      -50.8300  -16.3750   79.8940 N.ar  452  HIS452     -0.2212
     53  N        -52.3500   -7.8520   78.6570 N.3   454  TYR454     -0.1241
     54  CA       -51.4730   -6.7030   78.4460 C.3   454  TYR454      0.1605
     55  C        -50.3390   -6.9880   77.4710 C.2   454  TYR454      0.2264
     56  O        -49.7360   -8.0600   77.5310 O.2   454  TYR454     -0.2867
     57  CB       -50.8730   -6.2800   79.7760 C.3   454  TYR454      0.0534
     58  CG       -51.8730   -5.7430   80.7530 C.ar  454  TYR454     -0.0201
     59  CD1      -52.0390   -4.3710   80.9080 C.ar  454  TYR454     -0.0009
     60  CD2      -52.6500   -6.5990   81.5370 C.ar  454  TYR454     -0.0009
     61  CE1      -52.9470   -3.8590   81.8160 C.ar  454  TYR454      0.0417
     62  CE2      -53.5630   -6.0970   82.4400 C.ar  454  TYR454      0.0417
     63  CZ       -53.7030   -4.7240   82.5780 C.ar  454  TYR454      0.1957
     64  OH       -54.6050   -4.1960   83.4770 O.3   454  TYR454     -0.2866
     65  N        -46.8250   -7.4070   75.9410 N.3   456  GLY456     -0.1210
     66  CA       -45.4540   -7.6410   76.4230 C.3   456  GLY456      0.1956
     67  C        -45.2550   -8.3560   77.7560 C.2   456  GLY456      0.2612
     68  O        -44.1330   -8.7560   78.0910 O.2   456  GLY456     -0.2717
     69  N        -46.3320   -8.5280   78.5180 N.am  457  ILE457     -0.1965
     70  CA       -46.2100   -9.1560   79.8220 C.3   457  ILE457      0.1727
     71  C        -46.1440  -10.6710   79.6850 C.2   457  ILE457      0.2616
     72  O        -47.1120  -11.3280   79.2720 O.2   457  ILE457     -0.2715
     73  CB       -47.2950   -8.6930   80.8280 C.3   457  ILE457      0.0290
     74  CG1      -47.3450   -7.1550   80.8840 C.3   457  ILE457      0.0022
     75  CG2      -46.9860   -9.2570   82.2250 C.3   457  ILE457      0.0023
     76  CD1      -48.0780   -6.5650   82.1100 C.3   457  ILE457      0.0001
     77  N        -44.9750  -11.2140   80.0160 N.am  458  PHE458     -0.1960
     78  CA       -44.7500  -12.6470   79.9880 C.3   458  PHE458      0.1756
     79  C        -44.7590  -13.1630   81.4300 C.2   458  PHE458      0.2461
     80  O        -43.7100  -13.2040   82.0830 O.2   458  PHE458     -0.2730
     81  CB       -43.4260  -12.9550   79.2810 C.3   458  PHE458      0.0574
     82  CG       -43.2940  -14.3790   78.8230 C.ar  458  PHE458     -0.0200
     83  CD1      -42.6030  -15.3120   79.6010 C.ar  458  PHE458     -0.0042
     84  CD2      -43.8600  -14.7900   77.6150 C.ar  458  PHE458     -0.0042
     85  CE1      -42.4740  -16.6360   79.1900 C.ar  458  PHE458     -0.0003
     86  CE2      -43.7410  -16.1150   77.1830 C.ar  458  PHE458     -0.0003
     87  CZ       -43.0480  -17.0420   77.9690 C.ar  458  PHE458     -0.0000
     88  N        -45.9450  -13.5540   81.9400 N.am  459  PRO459     -0.2727
     89  CA       -46.0890  -13.9020   83.3580 C.3   459  PRO459      0.1402
     90  C        -45.4650  -15.2540   83.7160 C.2   459  PRO459      0.2269
     91  O        -45.5440  -16.2080   82.9380 O.2   459  PRO459     -0.2865
     92  CB       -47.6090  -13.9490   83.5470 C.3   459  PRO459      0.0296
     93  CG       -48.1210  -14.3940   82.2160 C.3   459  PRO459      0.0237
     94  CD       -47.1710  -13.8560   81.1760 C.3   459  PRO459      0.0939
@<TRIPOS>BOND
     1     6     7    1
     2     6     5    1
     3     7     8    1
     4     5     2    1
     5     8     9    2
     6     2     1    1
     7     2     3    1
     8     9    11    1
     9     9    10    1
    10    23    22    2
    11    12     3   am
    12    12    13    1
    13     3     4    2
    14    22    21    1
    15    14    13    1
    16    14    15    2
    17    13    16    1
    18    16    17    1
    19    19    17   am
    20    20    21    1
    21    17    18    2
    22    30    29    2
    23    24    25    1
    24    29    31   am
    25    29    28    1
    26    28    25    1
    27    65    66    1
    28    25    26    1
    29    66    67    1
    30    26    27    2
    31    86    84   ar
    32    86    87   ar
    33    46    45    2
    34    55    56    2
    35    55    54    1
    36    84    82   ar
    37    67    68    2
    38    67    69   am
    39    87    85   ar
    40    37    38    1
    41    37    36    1
    42    54    53    1
    43    54    57    1
    44    45    44    1
    45    69    70    1
    46    49    51   ar
    47    49    48   ar
    48    82    81    1
    49    82    83   ar
    50    38    39    1
    51    39    40    2
    52    47    44    1
    53    47    48    1
    54    51    52   ar
    55    85    83   ar
    56    36    33    1
    57    72    71    2
    58    81    78    1
    59    44    43    1
    60    48    50   ar
    61    71    70    1
    62    71    77   am
    63    57    58    1
    64    70    73    1
    65    52    50   ar
    66    78    77    1
    67    78    79    1
    68    42    40    1
    69    40    41    1
    70    58    59   ar
    71    58    60   ar
    72    33    32    1
    73    33    34    1
    74    73    74    1
    75    73    75    1
    76    74    76    1
    77    59    61   ar
    78    94    88    1
    79    94    93    1
    80    35    34    2
    81    79    88   am
    82    79    80    2
    83    60    62   ar
    84    61    63   ar
    85    88    89    1
    86    93    92    1
    87    62    63   ar
    88    63    64    1
    89    91    90    2
    90    89    92    1
    91    89    90    1
