@<TRIPOS>MOLECULE
tmp/3n29A00.pdb
 155 150 0 0 0
SMALL
GASTEIGER

@<TRIPOS>ATOM
      1  N         64.3780   34.6940   25.4040 N.3    38  ALA38      -0.1245
      2  CA        63.6930   34.0770   24.2300 C.3    38  ALA38       0.1562
      3  C         64.6850   33.9750   23.0320 C.2    38  ALA38       0.2260
      4  O         65.0520   34.9710   22.4630 O.2    38  ALA38      -0.2867
      5  CB        62.4610   34.9640   23.8030 C.3    38  ALA38       0.0290
      6  N         64.5090   33.0430   19.9900 N.3    40  LYS40      -0.1231
      7  CA        64.0010   33.4910   18.6950 C.3    40  LYS40       0.1693
      8  C         64.7420   34.7010   18.1850 C.2    40  LYS40       0.2592
      9  O         65.1570   34.7590   17.0940 O.2    40  LYS40      -0.2718
     10  CB        62.4890   33.8450   18.7540 C.3    40  LYS40       0.0285
     11  CG        61.9160   33.9910   17.2390 C.3    40  LYS40       0.0035
     12  CD        60.4080   34.3090   17.1590 C.3    40  LYS40       0.0206
     13  CE        60.0610   34.7880   18.5320 C.3    40  LYS40       0.1093
     14  NZ        58.5500   35.3310   18.7380 N.3    40  LYS40      -0.1314
     15  N         64.8940   35.7050   19.0130 N.am   41  GLY41      -0.1957
     16  CA        65.5060   36.9370   18.5490 C.3    41  GLY41       0.1869
     17  C         67.0080   37.0820   18.8250 C.2    41  GLY41       0.2309
     18  O         67.6890   37.8430   18.1380 O.2    41  GLY41      -0.2863
     19  N         63.7700   30.4580   26.7450 N.3    59  THR59      -0.1218
     20  CA        62.5540   30.0210   26.1170 C.3    59  THR59       0.1862
     21  C         62.8520   29.6280   24.6770 C.2    59  THR59       0.2287
     22  O         63.5430   30.3540   23.9150 O.2    59  THR59      -0.2866
     23  CB        61.5020   31.1180   26.1060 C.3    59  THR59       0.1770
     24  OG1       61.0360   31.2480   27.4300 O.3    59  THR59      -0.2211
     25  CG2       60.2860   30.6650   25.2430 C.3    59  THR59       0.0375
     26  N         57.8600   25.9100   23.8730 N.3    80  TYR80      -0.1241
     27  CA        56.5260   26.1720   23.4220 C.3    80  TYR80       0.1605
     28  C         56.6150   26.0080   21.9210 C.2    80  TYR80       0.2264
     29  O         57.5400   26.5510   21.2880 O.2    80  TYR80      -0.2867
     30  CB        56.0840   27.6380   23.6960 C.3    80  TYR80       0.0534
     31  CG        54.9750   27.9930   22.7520 C.ar   80  TYR80      -0.0201
     32  CD1       53.6930   27.4230   22.8970 C.ar   80  TYR80      -0.0009
     33  CD2       55.2210   28.8210   21.6430 C.ar   80  TYR80      -0.0009
     34  CE1       52.6670   27.7120   21.9910 C.ar   80  TYR80       0.0417
     35  CE2       54.2150   29.0850   20.6920 C.ar   80  TYR80       0.0417
     36  CZ        52.9480   28.5180   20.8550 C.ar   80  TYR80       0.1957
     37  OH        52.0010   28.8190   19.9070 O.3    80  TYR80      -0.2866
     38  N         49.0150   27.7970   26.2210 N.3   122  ARG122     -0.1245
     39  CA        49.0620   29.1500   25.7300 C.3   122  ARG122      0.1563
     40  C         47.6420   29.6540   25.5160 C.2   122  ARG122      0.2260
     41  O         46.8030   28.9530   24.9590 O.2   122  ARG122     -0.2867
     42  CB        49.8780   29.2630   24.4580 C.3   122  ARG122      0.0307
     43  CG        49.8150   30.6770   23.9300 C.3   122  ARG122      0.0489
     44  CD        50.8550   30.9460   22.8820 C.3   122  ARG122      0.2205
     45  NE        50.9060   32.3260   22.4010 N.pl3 122  ARG122     -0.0865
     46  CZ        51.7550   32.7670   21.4720 C.cat 122  ARG122      0.5346
     47  NH1       52.5950   31.9300   20.8810 N.pl3 122  ARG122      0.1354
     48  NH2       51.7610   34.0440   21.1090 N.pl3 122  ARG122      0.1354
     49  N         50.2370   30.5560   29.7460 N.3   153  HIS153     -0.1241
     50  CA        51.2000   31.3330   29.0080 C.3   153  HIS153      0.1621
     51  C         50.4740   32.2680   28.0460 C.2   153  HIS153      0.2264
     52  O         49.5110   31.8600   27.4220 O.2   153  HIS153     -0.2867
     53  CB        52.0930   30.3620   28.2250 C.3   153  HIS153      0.0745
     54  CG        53.0910   31.0260   27.3410 C.ar  153  HIS153      0.0817
     55  ND1       52.7660   31.4730   26.0780 N.ar  153  HIS153     -0.2268
     56  CD2       54.4210   31.2340   27.4860 C.ar  153  HIS153      0.1154
     57  CE1       53.8430   32.0030   25.5130 C.ar  153  HIS153      0.1986
     58  NE2       54.8740   31.8470   26.3300 N.ar  153  HIS153     -0.2212
     59  N         51.6480   35.4100   24.9330 N.3   155  HIS155     -0.1241
     60  CA        52.5730   36.3050   24.2750 C.3   155  HIS155      0.1621
     61  C         51.7940   37.1620   23.3100 C.2   155  HIS155      0.2264
     62  O         51.2280   36.6840   22.3180 O.2   155  HIS155     -0.2867
     63  CB        53.7830   35.5550   23.6420 C.3   155  HIS155      0.0745
     64  CG        54.6650   36.4240   22.7970 C.ar  155  HIS155      0.0817
     65  ND1       55.6570   37.2220   23.3210 N.ar  155  HIS155     -0.2268
     66  CD2       54.7040   36.6120   21.4460 C.ar  155  HIS155      0.1154
     67  CE1       56.2590   37.8750   22.3400 C.ar  155  HIS155      0.1986
     68  NE2       55.7010   37.5190   21.1860 N.ar  155  HIS155     -0.2212
     69  N         52.7120   40.8720   22.7840 N.3   157  LEU157     -0.1231
     70  CA        53.3400   42.1690   22.5940 C.3   157  LEU157      0.1693
     71  C         54.5430   42.1250   21.6520 C.2   157  LEU157      0.2592
     72  O         55.2660   41.1030   21.5820 O.2   157  LEU157     -0.2718
     73  CB        53.8050   42.7680   23.9420 C.3   157  LEU157      0.0284
     74  CG        52.7070   43.0000   25.0070 C.3   157  LEU157      0.0019
     75  CD1       53.3320   43.4450   26.3220 C.3   157  LEU157      0.0001
     76  CD2       51.6820   44.0240   24.5180 C.3   157  LEU157      0.0001
     77  N         54.8230   43.2960   21.0830 N.am  158  CYS158     -0.1956
     78  CA        56.0020   43.4790   20.2770 C.3   158  CYS158      0.1843
     79  C         56.5540   44.9020   20.4260 C.2   158  CYS158      0.2625
     80  O         55.8740   45.8940   20.1090 O.2   158  CYS158     -0.2714
     81  CB        55.7310   43.0730   18.8180 C.3   158  CYS158      0.0997
     82  SG        57.3300   43.3110   17.9250 S.3   158  CYS158     -0.0797
     83  N         57.7630   45.0130   20.9870 N.am  159  GLU159     -0.1977
     84  CA        58.4440   46.3060   21.2520 C.3   159  GLU159      0.1602
     85  C         57.5340   47.2610   22.0210 C.2   159  GLU159      0.2287
     86  O         57.4020   48.4290   21.6700 O.2   159  GLU159     -0.2864
     87  CB        58.9600   46.9910   19.9730 C.3   159  GLU159      0.0415
     88  CG        59.9730   46.1210   19.1930 C.3   159  GLU159      0.1163
     89  CD        60.5690   46.8540   18.0400 C.2   159  GLU159      0.3649
     90  OE1       61.8150   46.9480   17.9940 O.co2 159  GLU159     -0.2457
     91  OE2       59.7770   47.4070   17.2150 O.co2 159  GLU159     -0.2457
     92  N         56.9800   37.6190   25.7740 N.3   190  GLY190     -0.1210
     93  CA        57.9960   38.5860   25.4810 C.3   190  GLY190      0.1956
     94  C         57.3690   39.8460   24.9430 C.2   190  GLY190      0.2612
     95  O         56.1790   40.0930   25.1360 O.2   190  GLY190     -0.2717
     96  N         58.1620   40.6270   24.2060 N.am  191  GLY191     -0.1942
     97  CA        57.7110   41.8880   23.6820 C.3   191  GLY191      0.2014
     98  C         57.7990   43.1060   24.5650 C.2   191  GLY191      0.2638
     99  O         57.3390   44.1690   24.1790 O.2   191  GLY191     -0.2714
    100  N         58.3560   42.9270   25.7550 N.am  192  HIS192     -0.1973
    101  CA        58.5050   43.9860   26.7730 C.3   192  HIS192      0.1656
    102  C         59.8400   44.6400   26.4320 C.2   192  HIS192      0.2291
    103  O         60.8880   44.0040   26.5140 O.2   192  HIS192     -0.2864
    104  CB        58.5480   43.3670   28.1780 C.3   192  HIS192      0.0771
    105  CG        57.5200   42.2850   28.3690 C.ar  192  HIS192      0.0820
    106  ND1       56.1820   42.5410   28.3010 N.ar  192  HIS192     -0.2267
    107  CD2       57.6340   40.9350   28.4570 C.ar  192  HIS192      0.1154
    108  CE1       55.4970   41.4090   28.3910 C.ar  192  HIS192      0.1986
    109  NE2       56.3580   40.4160   28.5020 N.ar  192  HIS192     -0.2212
    110  N         59.7860   36.5530   29.2360 N.3   222  GLU222     -0.1231
    111  CA        60.6550   35.9150   28.2940 C.3   222  GLU222      0.1684
    112  C         60.9580   36.8750   27.1560 C.2   222  GLU222      0.2434
    113  O         60.6290   36.6060   25.9590 O.2   222  GLU222     -0.2733
    114  CB        60.1530   34.5220   27.8950 C.3   222  GLU222      0.0402
    115  CG        58.7550   34.4610   27.5240 C.3   222  GLU222      0.1161
    116  CD        58.2330   33.0640   27.0470 C.2   222  GLU222      0.3649
    117  OE1       57.4630   33.1150   26.0950 O.co2 222  GLU222     -0.2457
    118  OE2       58.6290   31.9730   27.5630 O.co2 222  GLU222     -0.2457
    119  N         61.6810   37.9450   27.4920 N.am  223  PRO223     -0.2718
    120  CA        62.1720   38.8390   26.4880 C.3   223  PRO223      0.1535
    121  C         63.2370   38.2140   25.5720 C.2   223  PRO223      0.2599
    122  O         64.0730   37.4060   26.0190 O.2   223  PRO223     -0.2715
    123  CB        62.8100   39.9060   27.3140 C.3   223  PRO223      0.0310
    124  CG        63.3190   39.2430   28.4780 C.3   223  PRO223      0.0237
    125  CD        62.2000   38.3310   28.8190 C.3   223  PRO223      0.0939
    126  N         63.1770   38.5900   24.3060 N.am  224  GLY224     -0.1941
    127  CA        64.2800   38.3230   23.3830 C.3   224  GLY224      0.2014
    128  C         64.9960   39.6310   22.9720 C.2   224  GLY224      0.2639
    129  O         66.1660   39.8930   23.3290 O.2   224  GLY224     -0.2714
    130  N         64.2760   40.4530   22.2670 N.am  225  GLU225     -0.1963
    131  CA        64.8180   41.7130   21.7720 C.3   225  GLU225      0.1733
    132  C         65.4170   42.5850   22.8640 C.2   225  GLU225      0.2616
    133  O         66.4900   43.1180   22.6780 O.2   225  GLU225     -0.2715
    134  CB        63.7620   42.4680   21.0040 C.3   225  GLU225      0.0429
    135  CG        64.1900   43.8100   20.5290 C.3   225  GLU225      0.1163
    136  CD        63.2020   44.4200   19.5580 C.2   225  GLU225      0.3649
    137  OE1       62.2130   43.7900   19.1380 O.co2 225  GLU225     -0.2457
    138  OE2       63.3820   45.5740   19.2930 O.co2 225  GLU225     -0.2457
    139  N         64.8060   42.5720   24.0280 N.am  226  ALA226     -0.1977
    140  CA        65.2810   43.3450   25.1500 C.3   226  ALA226      0.1597
    141  C         66.6890   42.9630   25.5970 C.2   226  ALA226      0.2287
    142  O         67.4260   43.7860   26.0440 O.2   226  ALA226     -0.2864
    143  CB        64.3360   43.2210   26.2820 C.3   226  ALA226      0.0319
    144  N         67.3530   39.6870   15.9530 N.3   331  TYR331     -0.1241
    145  CA        66.5180   39.4600   14.7320 C.3   331  TYR331      0.1605
    146  C         67.3220   39.7480   13.4780 C.2   331  TYR331      0.2264
    147  O         66.8140   40.3180   12.4930 O.2   331  TYR331     -0.2867
    148  CB        65.2020   40.2950   14.8010 C.3   331  TYR331      0.0534
    149  CG        64.2890   39.7730   15.8960 C.ar  331  TYR331     -0.0201
    150  CD1       63.4600   38.6620   15.6640 C.ar  331  TYR331     -0.0009
    151  CD2       64.2580   40.3410   17.1490 C.ar  331  TYR331     -0.0009
    152  CE1       62.6490   38.1740   16.5780 C.ar  331  TYR331      0.0417
    153  CE2       63.4510   39.8200   18.1530 C.ar  331  TYR331      0.0417
    154  CZ        62.6460   38.7220   17.8550 C.ar  331  TYR331      0.1957
    155  OH        61.8270   38.2310   18.7900 O.3   331  TYR331     -0.2866
@<TRIPOS>BOND
     1   147   146    2
     2   146   145    1
     3   145   148    1
     4   145   144    1
     5   148   149    1
     6   150   149   ar
     7   150   152   ar
     8   149   151   ar
     9   152   154   ar
    10     9     8    2
    11   151   153   ar
    12    12    11    1
    13    12    13    1
    14    91    89   ar
    15    11    10    1
    16   154   153   ar
    17   154   155    1
    18    82    81    1
    19    90    89   ar
    20    89    88    1
    21    18    17    2
    22     8     7    1
    23     8    15   am
    24    13    14    1
    25    16    17    1
    26    16    15    1
    27     7    10    1
    28     7     6    1
    29    81    78    1
    30   137   136   ar
    31    88    87    1
    32   138   136   ar
    33   136   135    1
    34    37    36    1
    35    87    84    1
    36    80    79    2
    37    78    79    1
    38    78    77    1
    39    79    83   am
    40   135   134    1
    41    35    36   ar
    42    35    33   ar
    43    36    34   ar
    44    47    46    1
    45    83    84    1
    46   134   131    1
    47    77    71   am
    48    48    46    1
    49    68    66   ar
    50    68    67   ar
    51    84    85    1
    52    29    28    2
    53    66    64   ar
    54    46    45    2
    55    72    71    2
    56    33    31   ar
    57    71    70    1
    58    86    85    2
    59   131   130    1
    60   131   132    1
    61    28    27    1
    62    34    32   ar
    63   130   128   am
    64    62    61    2
    65    67    65   ar
    66    45    44    1
    67     4     3    2
    68    70    69    1
    69    70    73    1
    70   133   132    2
    71    31    32   ar
    72    31    30    1
    73    64    65   ar
    74    64    63    1
    75   132   139   am
    76    44    43    1
    77   128   129    2
    78   128   127    1
    79     3     2    1
    80    61    60    1
    81   127   126    1
    82    27    30    1
    83    27    26    1
    84    63    60    1
    85    97    96    1
    86    97    98    1
    87     5     2    1
    88    22    21    2
    89    43    42    1
    90    73    74    1
    91   139   140    1
    92    99    98    2
    93    96    94   am
    94     2     1    1
    95    60    59    1
    96   126   121   am
    97    42    39    1
    98    76    74    1
    99    98   100   am
   100    21    20    1
   101    94    95    2
   102    94    93    1
   103    41    40    2
   104    74    75    1
   105   140   141    1
   106   140   143    1
   107    25    23    1
   108    93    92    1
   109    57    55   ar
   110    57    58   ar
   111    40    39    1
   112   121   122    2
   113   121   120    1
   114   141   142    2
   115    39    38    1
   116   100   101    1
   117   113   112    2
   118    55    54   ar
   119   117   116   ar
   120    23    20    1
   121    23    24    1
   122    20    19    1
   123    58    56   ar
   124   102   103    2
   125   102   101    1
   126   120   123    1
   127   120   119    1
   128   101   104    1
   129   116   115    1
   130   116   118   ar
   131   112   119   am
   132   112   111    1
   133   123   124    1
   134    54    56   ar
   135    54    53    1
   136    52    51    2
   137   119   125    1
   138   115   114    1
   139   114   111    1
   140    51    50    1
   141   104   105    1
   142    53    50    1
   143   111   110    1
   144   106   105   ar
   145   106   108   ar
   146   105   107   ar
   147   108   109   ar
   148   107   109   ar
   149   124   125    1
   150    50    49    1
