@<TRIPOS>MOLECULE
tmp/3n29A01.pdb
 100 93 0 0 0
SMALL
GASTEIGER

@<TRIPOS>ATOM
      1  N         64.5090   33.0430   19.9900 N.3    40  LYS40      -0.1245
      2  CA        64.0010   33.4910   18.6950 C.3    40  LYS40       0.1561
      3  C         64.7420   34.7010   18.1850 C.2    40  LYS40       0.2260
      4  O         65.1570   34.7590   17.0940 O.2    40  LYS40      -0.2867
      5  CB        62.4890   33.8450   18.7540 C.3    40  LYS40       0.0271
      6  CG        61.9160   33.9910   17.2390 C.3    40  LYS40       0.0035
      7  CD        60.4080   34.3090   17.1590 C.3    40  LYS40       0.0206
      8  CE        60.0610   34.7880   18.5320 C.3    40  LYS40       0.1093
      9  NZ        58.5500   35.3310   18.7380 N.3    40  LYS40      -0.1314
     10  N         51.6480   35.4100   24.9330 N.3   155  HIS155     -0.1241
     11  CA        52.5730   36.3050   24.2750 C.3   155  HIS155      0.1621
     12  C         51.7940   37.1620   23.3100 C.2   155  HIS155      0.2264
     13  O         51.2280   36.6840   22.3180 O.2   155  HIS155     -0.2867
     14  CB        53.7830   35.5550   23.6420 C.3   155  HIS155      0.0745
     15  CG        54.6650   36.4240   22.7970 C.ar  155  HIS155      0.0817
     16  ND1       55.6570   37.2220   23.3210 N.ar  155  HIS155     -0.2268
     17  CD2       54.7040   36.6120   21.4460 C.ar  155  HIS155      0.1154
     18  CE1       56.2590   37.8750   22.3400 C.ar  155  HIS155      0.1986
     19  NE2       55.7010   37.5190   21.1860 N.ar  155  HIS155     -0.2212
     20  N         52.7120   40.8720   22.7840 N.3   157  LEU157     -0.1231
     21  CA        53.3400   42.1690   22.5940 C.3   157  LEU157      0.1693
     22  C         54.5430   42.1250   21.6520 C.2   157  LEU157      0.2592
     23  O         55.2660   41.1030   21.5820 O.2   157  LEU157     -0.2718
     24  CB        53.8050   42.7680   23.9420 C.3   157  LEU157      0.0284
     25  CG        52.7070   43.0000   25.0070 C.3   157  LEU157      0.0019
     26  CD1       53.3320   43.4450   26.3220 C.3   157  LEU157      0.0001
     27  CD2       51.6820   44.0240   24.5180 C.3   157  LEU157      0.0001
     28  N         54.8230   43.2960   21.0830 N.am  158  CYS158     -0.1956
     29  CA        56.0020   43.4790   20.2770 C.3   158  CYS158      0.1843
     30  C         56.5540   44.9020   20.4260 C.2   158  CYS158      0.2625
     31  O         55.8740   45.8940   20.1090 O.2   158  CYS158     -0.2714
     32  CB        55.7310   43.0730   18.8180 C.3   158  CYS158      0.0997
     33  SG        57.3300   43.3110   17.9250 S.3   158  CYS158     -0.0797
     34  N         57.7630   45.0130   20.9870 N.am  159  GLU159     -0.1977
     35  CA        58.4440   46.3060   21.2520 C.3   159  GLU159      0.1602
     36  C         57.5340   47.2610   22.0210 C.2   159  GLU159      0.2287
     37  O         57.4020   48.4290   21.6700 O.2   159  GLU159     -0.2864
     38  CB        58.9600   46.9910   19.9730 C.3   159  GLU159      0.0415
     39  CG        59.9730   46.1210   19.1930 C.3   159  GLU159      0.1163
     40  CD        60.5690   46.8540   18.0400 C.2   159  GLU159      0.3649
     41  OE1       61.8150   46.9480   17.9940 O.co2 159  GLU159     -0.2457
     42  OE2       59.7770   47.4070   17.2150 O.co2 159  GLU159     -0.2457
     43  N         58.1620   40.6270   24.2060 N.3   191  GLY191     -0.1225
     44  CA        57.7110   41.8880   23.6820 C.3   191  GLY191      0.1811
     45  C         57.7990   43.1060   24.5650 C.2   191  GLY191      0.2280
     46  O         57.3390   44.1690   24.1790 O.2   191  GLY191     -0.2866
     47  N         64.2760   40.4530   22.2670 N.3   225  GLU225     -0.1245
     48  CA        64.8180   41.7130   21.7720 C.3   225  GLU225      0.1567
     49  C         65.4170   42.5850   22.8640 C.2   225  GLU225      0.2260
     50  O         66.4900   43.1180   22.6780 O.2   225  GLU225     -0.2867
     51  CB        63.7620   42.4680   21.0040 C.3   225  GLU225      0.0388
     52  CG        64.1900   43.8100   20.5290 C.3   225  GLU225      0.1160
     53  CD        63.2020   44.4200   19.5580 C.2   225  GLU225      0.3649
     54  OE1       62.2130   43.7900   19.1380 O.co2 225  GLU225     -0.2457
     55  OE2       63.3820   45.5740   19.2930 O.co2 225  GLU225     -0.2457
     56  N         65.2890   41.8470    8.1260 N.3   261  ASP261     -0.1239
     57  CA        64.1570   42.5920    8.6080 C.3   261  ASP261      0.1674
     58  C         64.0480   44.0030    8.0280 C.2   261  ASP261      0.2266
     59  O         62.9850   44.5110    7.9510 O.2   261  ASP261     -0.2867
     60  CB        64.0450   42.6010   10.1210 C.3   261  ASP261      0.1410
     61  CG        63.6330   41.2480   10.6980 C.2   261  ASP261      0.3668
     62  OD1       63.1630   40.3600    9.9850 O.co2 261  ASP261     -0.2456
     63  OD2       63.8010   41.0760   11.8690 O.co2 261  ASP261     -0.2456
     64  N         61.9880   43.0280    5.0570 N.3   264  ILE264     -0.1231
     65  CA        60.7050   42.3940    5.3980 C.3   264  ILE264      0.1692
     66  C         59.7050   43.3420    6.0340 C.2   264  ILE264      0.2591
     67  O         58.5300   43.3700    5.6330 O.2   264  ILE264     -0.2718
     68  CB        60.9300   41.1150    6.2580 C.3   264  ILE264      0.0266
     69  CG1       61.6410   40.0460    5.3820 C.3   264  ILE264      0.0019
     70  CG2       59.6030   40.5020    6.8720 C.3   264  ILE264      0.0020
     71  CD1       62.2520   38.8870    6.2040 C.3   264  ILE264      0.0001
     72  N         60.1530   44.1660    6.9760 N.am  265  MET265     -0.1979
     73  CA        59.2260   44.9740    7.7960 C.3   265  MET265      0.1605
     74  C         58.4770   46.0180    6.9500 C.2   265  MET265      0.2287
     75  O         57.2640   46.0400    6.9830 O.2   265  MET265     -0.2864
     76  CB        59.9150   45.6340    9.0040 C.3   265  MET265      0.0413
     77  CG        60.2250   44.6800   10.1420 C.3   265  MET265      0.0598
     78  SD        61.0310   45.4560   11.5820 S.3   265  MET265     -0.1393
     79  CE        60.0620   46.9680   11.7630 C.3   265  MET265      0.0692
     80  N         67.3530   39.6870   15.9530 N.3   331  TYR331     -0.1241
     81  CA        66.5180   39.4600   14.7320 C.3   331  TYR331      0.1605
     82  C         67.3220   39.7480   13.4780 C.2   331  TYR331      0.2264
     83  O         66.8140   40.3180   12.4930 O.2   331  TYR331     -0.2867
     84  CB        65.2020   40.2950   14.8010 C.3   331  TYR331      0.0534
     85  CG        64.2890   39.7730   15.8960 C.ar  331  TYR331     -0.0201
     86  CD1       63.4600   38.6620   15.6640 C.ar  331  TYR331     -0.0009
     87  CD2       64.2580   40.3410   17.1490 C.ar  331  TYR331     -0.0009
     88  CE1       62.6490   38.1740   16.5780 C.ar  331  TYR331      0.0417
     89  CE2       63.4510   39.8200   18.1530 C.ar  331  TYR331      0.0417
     90  CZ        62.6460   38.7220   17.8550 C.ar  331  TYR331      0.1957
     91  OH        61.8270   38.2310   18.7900 O.3   331  TYR331     -0.2866
     92  N         68.3670   34.9650   11.5150 N.3   335  LYS335     -0.1245
     93  CA        67.5520   34.7820   10.3480 C.3   335  LYS335      0.1561
     94  C         68.2500   35.2050    9.0850 C.2   335  LYS335      0.2260
     95  O         67.5930   35.5460    8.0660 O.2   335  LYS335     -0.2867
     96  CB        66.2040   35.4780   10.4880 C.3   335  LYS335      0.0271
     97  CG        66.2560   36.9800   10.5760 C.3   335  LYS335      0.0035
     98  CD        64.8900   37.4700   11.2620 C.3   335  LYS335      0.0206
     99  CE        63.5480   36.9440   10.7010 C.3   335  LYS335      0.1093
    100  NZ        63.1010   37.5730    9.4090 N.3   335  LYS335     -0.1314
@<TRIPOS>BOND
     1    64    65    1
     2    69    71    1
     3    69    68    1
     4    65    66    1
     5    65    68    1
     6    67    66    2
     7    66    72   am
     8    68    70    1
     9    74    75    2
    10    74    73    1
    11    72    73    1
    12    73    76    1
    13    59    58    2
    14    58    57    1
    15    95    94    2
    16    56    57    1
    17    57    60    1
    18    76    77    1
    19    94    93    1
    20   100    99    1
    21    62    61   ar
    22    60    61    1
    23    77    78    1
    24    93    96    1
    25    93    92    1
    26    96    97    1
    27    97    98    1
    28    61    63   ar
    29    99    98    1
    30    78    79    1
    31    83    82    2
    32    82    81    1
    33    81    84    1
    34    81    80    1
    35    84    85    1
    36    86    85   ar
    37    86    88   ar
    38    85    87   ar
    39    88    90   ar
    40     4     3    2
    41    87    89   ar
    42     7     6    1
    43     7     8    1
    44    42    40   ar
    45     6     5    1
    46    90    89   ar
    47    90    91    1
    48    33    32    1
    49    41    40   ar
    50    40    39    1
    51     3     2    1
    52     8     9    1
    53     2     5    1
    54     2     1    1
    55    32    29    1
    56    54    53   ar
    57    39    38    1
    58    55    53   ar
    59    53    52    1
    60    38    35    1
    61    31    30    2
    62    29    30    1
    63    29    28    1
    64    30    34   am
    65    52    51    1
    66    34    35    1
    67    51    48    1
    68    28    22   am
    69    19    17   ar
    70    19    18   ar
    71    35    36    1
    72    17    15   ar
    73    23    22    2
    74    22    21    1
    75    37    36    2
    76    48    47    1
    77    48    49    1
    78    13    12    2
    79    18    16   ar
    80    21    20    1
    81    21    24    1
    82    50    49    2
    83    15    16   ar
    84    15    14    1
    85    12    11    1
    86    14    11    1
    87    44    43    1
    88    44    45    1
    89    24    25    1
    90    46    45    2
    91    11    10    1
    92    27    25    1
    93    25    26    1
