@<TRIPOS>MOLECULE
tmp/3n2aA00.pdb
 155 149 0 0 0
SMALL
GASTEIGER

@<TRIPOS>ATOM
      1  N         56.1260   55.3640   27.7950 N.3    52  THR52      -0.1203
      2  CA        55.0110   54.5320   27.3430 C.3    52  THR52       0.1994
      3  C         54.2660   55.2440   26.1890 C.2    52  THR52       0.2618
      4  O         54.0800   54.6850   25.0900 O.2    52  THR52      -0.2717
      5  CB        54.0300   54.2840   28.4440 C.3    52  THR52       0.1784
      6  OG1       54.6850   53.5880   29.5140 O.3    52  THR52      -0.2211
      7  CG2       52.7980   53.4740   27.9070 C.3    52  THR52       0.0376
      8  N         53.8300   56.4670   26.4890 N.am   53  ASN53      -0.1960
      9  CA        53.2020   57.3440   25.5360 C.3    53  ASN53       0.1819
     10  C         53.9730   58.6550   25.4640 C.2    53  ASN53       0.2622
     11  O         54.4850   59.1340   26.4650 O.2    53  ASN53      -0.2715
     12  CB        51.7660   57.6690   25.9320 C.3    53  ASN53       0.1195
     13  CG        50.8460   56.4340   25.9090 C.2    53  ASN53       0.2630
     14  OD1       50.9680   55.5470   25.0610 O.2    53  ASN53      -0.2716
     15  ND2       49.9230   56.3920   26.8420 N.am   53  ASN53      -0.0877
     16  N         54.0160   59.2120   24.2640 N.am   54  GLY54      -0.1940
     17  CA        54.5940   60.4920   23.9900 C.3    54  GLY54       0.2014
     18  C         55.9880   60.5620   23.4740 C.2    54  GLY54       0.2639
     19  O         56.5020   61.6460   23.3480 O.2    54  GLY54      -0.2714
     20  N         56.6280   59.4370   23.1630 N.am   55  LYS55      -0.1963
     21  CA        57.9960   59.5060   22.6770 C.3    55  LYS55       0.1728
     22  C         58.0660   60.2980   21.3360 C.2    55  LYS55       0.2617
     23  O         58.8800   61.2470   21.1950 O.2    55  LYS55      -0.2715
     24  CB        58.5750   58.1030   22.4700 C.3    55  LYS55       0.0311
     25  CG        58.6540   57.2400   23.7470 C.3    55  LYS55       0.0038
     26  CD        59.1440   55.8040   23.4210 C.3    55  LYS55       0.0206
     27  CE        58.1450   54.9670   22.6440 C.3    55  LYS55       0.1093
     28  NZ        56.7880   54.7380   23.2550 N.3    55  LYS55      -0.1314
     29  N         57.2800   59.8530   20.3580 N.am   56  GLY56      -0.1940
     30  CA        57.2740   60.4400   18.9980 C.3    56  GLY56       0.2014
     31  C         57.0410   61.9490   19.0070 C.2    56  GLY56       0.2639
     32  O         57.8020   62.7080   18.4090 O.2    56  GLY56      -0.2714
     33  N         56.0320   62.4170   19.7270 N.am   57  THR57      -0.1950
     34  CA        55.7270   63.8630   19.7180 C.3    57  THR57       0.1897
     35  C         56.7440   64.6850   20.5630 C.2    57  THR57       0.2313
     36  O         57.0180   65.8260   20.2450 O.2    57  THR57      -0.2863
     37  CB        54.2750   64.1390   20.1150 C.3    57  THR57       0.1794
     38  OG1       53.9600   63.4540   21.3200 O.3    57  THR57      -0.2208
     39  CG2       53.3440   63.6480   19.0120 C.3    57  THR57       0.0378
     40  N         59.8200   54.9130   15.4840 N.3    78  SER78      -0.1217
     41  CA        59.2220   53.6260   15.2540 C.3    78  SER78       0.1889
     42  C         57.8710   53.6100   16.0100 C.2    78  SER78       0.2288
     43  O         57.6210   54.4060   16.9400 O.2    78  SER78      -0.2866
     44  CB        60.2010   52.5140   15.7310 C.3    78  SER78       0.2089
     45  OG        60.4590   52.7420   17.0980 O.3    78  SER78      -0.2183
     46  N         64.3070   57.7560   19.3010 N.3   141  GLU141     -0.1245
     47  CA        63.1190   57.1920   19.9710 C.3   141  GLU141      0.1567
     48  C         63.3500   55.7200   20.3190 C.2   141  GLU141      0.2260
     49  O         63.6750   54.9070   19.4620 O.2   141  GLU141     -0.2867
     50  CB        61.8820   57.3320   19.1050 C.3   141  GLU141      0.0388
     51  CG        60.6880   56.6190   19.7440 C.3   141  GLU141      0.1160
     52  CD        59.4220   56.7850   18.9390 C.2   141  GLU141      0.3649
     53  OE1       59.4590   57.3100   17.8340 O.co2 141  GLU141     -0.2457
     54  OE2       58.3710   56.4690   19.4370 O.co2 141  GLU141     -0.2457
     55  N         59.0710   59.9830   28.9910 N.3   162  THR162     -0.1203
     56  CA        57.9270   60.8540   28.7270 C.3   162  THR162      0.1994
     57  C         56.7080   60.5790   29.5820 C.2   162  THR162      0.2618
     58  O         55.9560   61.5160   29.9100 O.2   162  THR162     -0.2717
     59  CB        57.5260   60.8510   27.2010 C.3   162  THR162      0.1784
     60  OG1       57.1070   59.5400   26.7960 O.3   162  THR162     -0.2211
     61  CG2       58.6820   61.3140   26.2790 C.3   162  THR162      0.0376
     62  N         56.4810   59.3060   29.9170 N.am  163  SER163     -0.1951
     63  CA        55.3330   58.8590   30.7000 C.3   163  SER163      0.1924
     64  C         55.5450   57.4000   31.0530 C.2   163  SER163      0.2314
     65  O         56.3260   56.7000   30.4060 O.2   163  SER163     -0.2863
     66  CB        53.9990   58.9740   29.9330 C.3   163  SER163      0.2116
     67  OG        53.9690   58.1780   28.7470 O.3   163  SER163     -0.2180
     68  N         50.6930   66.8920   22.4310 N.3   247  PRO247     -0.2116
     69  CA        50.3070   67.0040   23.8340 C.3   247  PRO247      0.1372
     70  C         51.2790   67.8900   24.5950 C.2   247  PRO247      0.2244
     71  O         52.5110   67.7280   24.4950 O.2   247  PRO247     -0.2868
     72  CB        50.3650   65.5510   24.3400 C.3   247  PRO247      0.0268
     73  CG        50.2040   64.7360   23.1450 C.3   247  PRO247      0.0207
     74  CD        50.8800   65.4900   22.0200 C.3   247  PRO247      0.0892
     75  N         52.1810   68.1710   27.7230 N.3   249  ALA249     -0.1231
     76  CA        53.1470   67.4740   28.5960 C.3   249  ALA249      0.1694
     77  C         54.4440   67.1580   27.8640 C.2   249  ALA249      0.2592
     78  O         55.5020   67.2630   28.4330 O.2   249  ALA249     -0.2718
     79  CB        52.5610   66.1550   29.1340 C.3   249  ALA249      0.0304
     80  N         54.3270   66.6900   26.6070 N.am  250  ASN250     -0.1974
     81  CA        55.4750   66.2470   25.8360 C.3   250  ASN250      0.1688
     82  C         56.3050   67.4430   25.3430 C.2   250  ASN250      0.2292
     83  O         57.5570   67.3810   25.2920 O.2   250  ASN250     -0.2864
     84  CB        55.0530   65.4050   24.6370 C.3   250  ASN250      0.1181
     85  CG        54.2610   64.1880   25.0200 C.2   250  ASN250      0.2629
     86  OD1       54.3330   63.7330   26.1620 O.2   250  ASN250     -0.2716
     87  ND2       53.4710   63.6640   24.0790 N.am  250  ASN250     -0.0877
     88  N         48.6810   61.8500   15.2650 N.3   282  ARG282     -0.1245
     89  CA        48.6020   62.2750   16.6780 C.3   282  ARG282      0.1563
     90  C         47.7000   63.5140   16.7180 C.2   282  ARG282      0.2260
     91  O         48.0980   64.6280   16.3540 O.2   282  ARG282     -0.2867
     92  CB        49.9810   62.5760   17.2630 C.3   282  ARG282      0.0307
     93  CG        50.7910   61.3240   17.5330 C.3   282  ARG282      0.0489
     94  CD        51.1170   60.4800   16.2900 C.3   282  ARG282      0.2205
     95  NE        52.3070   59.6770   16.5400 N.pl3 282  ARG282     -0.0865
     96  CZ        53.1560   59.2280   15.6130 C.cat 282  ARG282      0.5346
     97  NH1       54.2630   58.5720   15.9760 N.pl3 282  ARG282      0.1354
     98  NH2       52.9050   59.3760   14.3100 N.pl3 282  ARG282      0.1354
     99  N         43.8760   59.5390   15.5880 N.3   295  ASP295     -0.1225
    100  CA        44.7390   59.4280   16.7770 C.3   295  ASP295      0.1805
    101  C         45.0320   57.9960   17.1040 C.2   295  ASP295      0.2598
    102  O         44.1090   57.2050   17.2400 O.2   295  ASP295     -0.2718
    103  CB        44.1310   60.1120   17.9980 C.3   295  ASP295      0.1424
    104  CG        45.1720   60.2860   19.1130 C.2   295  ASP295      0.3668
    105  OD1       46.0400   61.1840   19.0080 O.co2 295  ASP295     -0.2456
    106  OD2       45.1820   59.4440   20.0240 O.co2 295  ASP295     -0.2456
    107  N         46.3140   57.6640   17.2360 N.am  296  VAL296     -0.1966
    108  CA        46.7630   56.2830   17.4100 C.3   296  VAL296      0.1727
    109  C         46.6130   55.6930   18.8410 C.2   296  VAL296      0.2616
    110  O         47.1060   54.5790   19.1210 O.2   296  VAL296     -0.2715
    111  CB        48.2150   56.1390   16.9220 C.3   296  VAL296      0.0290
    112  CG1       48.2860   56.4910   15.3980 C.3   296  VAL296      0.0023
    113  CG2       49.2040   57.0150   17.7770 C.3   296  VAL296      0.0023
    114  N         45.9470   56.4200   19.7370 N.am  297  ALA297     -0.1963
    115  CA        45.7890   56.0010   21.1200 C.3   297  ALA297      0.1728
    116  C         45.4280   54.4900   21.2190 C.2   297  ALA297      0.2616
    117  O         44.5350   54.0420   20.5330 O.2   297  ALA297     -0.2715
    118  CB        44.7080   56.8750   21.8150 C.3   297  ALA297      0.0334
    119  N         46.1440   53.7290   22.0710 N.am  298  HIS298     -0.1973
    120  CA        45.9690   52.2770   22.1860 C.3   298  HIS298      0.1656
    121  C         46.1090   51.7330   23.6060 C.2   298  HIS298      0.2291
    122  O         46.3480   50.5540   23.8040 O.2   298  HIS298     -0.2864
    123  CB        46.9100   51.5340   21.2650 C.3   298  HIS298      0.0771
    124  CG        48.3650   51.8020   21.5330 C.ar  298  HIS298      0.0820
    125  ND1       49.1270   52.6240   20.7320 N.ar  298  HIS298     -0.2267
    126  CD2       49.1890   51.3520   22.5090 C.ar  298  HIS298      0.1154
    127  CE1       50.3740   52.6400   21.1830 C.ar  298  HIS298      0.1986
    128  NE2       50.4250   51.9200   22.2920 N.ar  298  HIS298     -0.2212
    129  N         45.7670   55.2390   29.2020 N.3   301  HIS301     -0.1226
    130  CA        46.4340   56.5120   29.4870 C.3   301  HIS301      0.1752
    131  C         46.3180   57.4590   28.2890 C.2   301  HIS301      0.2595
    132  O         46.0390   58.6550   28.4550 O.2   301  HIS301     -0.2718
    133  CB        47.8750   56.1940   29.8480 C.3   301  HIS301      0.0759
    134  CG        48.7380   57.3820   30.1220 C.ar  301  HIS301      0.0818
    135  ND1       48.7860   58.0060   31.3590 N.ar  301  HIS301     -0.2268
    136  CD2       49.6660   57.9860   29.3620 C.ar  301  HIS301      0.1154
    137  CE1       49.6770   58.9850   31.3170 C.ar  301  HIS301      0.1986
    138  NE2       50.2340   58.9840   30.1260 N.ar  301  HIS301     -0.2212
    139  N         46.5320   56.9120   27.0910 N.am  302  ALA302     -0.1980
    140  CA        46.3470   57.6290   25.8320 C.3   302  ALA302      0.1597
    141  C         44.8740   58.0100   25.5910 C.2   302  ALA302      0.2287
    142  O         44.6020   59.1150   25.1280 O.2   302  ALA302     -0.2864
    143  CB        46.8990   56.8080   24.6670 C.3   302  ALA302      0.0319
    144  N         43.8980   60.9980   27.7180 N.3   305  TYR305     -0.1241
    145  CA        44.3340   62.1960   27.0390 C.3   305  TYR305      0.1605
    146  C         43.4020   62.5620   25.8580 C.2   305  TYR305      0.2264
    147  O         43.0560   63.7370   25.6810 O.2   305  TYR305     -0.2867
    148  CB        45.7970   62.0600   26.5900 C.3   305  TYR305      0.0534
    149  CG        46.0810   62.8940   25.4050 C.ar  305  TYR305     -0.0201
    150  CD1       46.4880   64.2050   25.5200 C.ar  305  TYR305     -0.0009
    151  CD2       45.8880   62.3700   24.1480 C.ar  305  TYR305     -0.0009
    152  CE1       46.7040   64.9760   24.3680 C.ar  305  TYR305      0.0417
    153  CE2       46.0870   63.0990   23.0440 C.ar  305  TYR305      0.0417
    154  CZ        46.4980   64.3890   23.1450 C.ar  305  TYR305      0.1957
    155  OH        46.6840   65.0440   21.9610 O.3   305  TYR305     -0.2866
@<TRIPOS>BOND
     1    98    96    1
     2    41    40    1
     3    41    44    1
     4    41    42    1
     5    88    89    1
     6   112   111    1
     7    99   100    1
     8    96    97    1
     9    96    95    2
    10    44    45    1
    11    42    43    2
    12    94    95    1
    13    94    93    1
    14    91    90    2
    15    89    90    1
    16    89    92    1
    17   100   101    1
    18   100   103    1
    19   111   108    1
    20   111   113    1
    21   101   107   am
    22   101   102    2
    23   107   108    1
    24    92    93    1
    25   108   109    1
    26    53    52   ar
    27   103   104    1
    28    32    31    2
    29   109   110    2
    30   109   114   am
    31    52    54   ar
    32    52    51    1
    33    30    31    1
    34    30    29    1
    35    31    33   am
    36   105   104   ar
    37    39    37    1
    38    50    51    1
    39    50    47    1
    40   104   106   ar
    41    46    47    1
    42    49    48    2
    43    34    33    1
    44    34    37    1
    45    34    35    1
    46   114   115    1
    47    47    48    1
    48    37    38    1
    49    36    35    2
    50    29    22   am
    51   117   116    2
    52   125   127   ar
    53   125   124   ar
    54   115   116    1
    55   115   118    1
    56   127   128   ar
    57    23    22    2
    58   116   119   am
    59   123   124    1
    60   123   120    1
    61    22    21    1
    62   124   126   ar
    63   155   154    1
    64    74    68    1
    65    74    73    1
    66   119   120    1
    67   120   121    1
    68   128   126   ar
    69    68    69    1
    70    24    21    1
    71    24    25    1
    72    27    28    1
    73    27    26    1
    74    21    20    1
    75   153   154   ar
    76   153   151   ar
    77    73    72    1
    78   154   152   ar
    79    20    18   am
    80    19    18    2
    81    26    25    1
    82    18    17    1
    83   121   122    2
    84    69    72    1
    85    69    70    1
    86    17    16    1
    87    87    85   am
    88   151   149   ar
    89    16    10   am
    90   152   150   ar
    91    71    70    2
    92    84    85    1
    93    84    81    1
    94   143   140    1
    95    85    86    2
    96    14    13    2
    97     4     3    2
    98   142   141    2
    99    83    82    2
   100    82    81    1
   101   149   150   ar
   102   149   148    1
   103    10     9    1
   104    10    11    2
   105     9    12    1
   106     9     8    1
   107   141   140    1
   108   147   146    2
   109   140   139    1
   110    81    80    1
   111   146   145    1
   112    13    12    1
   113    13    15   am
   114     3     8   am
   115     3     2    1
   116    61    59    1
   117   148   145    1
   118    80    77   am
   119    60    59    1
   120   145   144    1
   121   139   131   am
   122    59    56    1
   123     2     1    1
   124     2     5    1
   125    75    76    1
   126    77    78    2
   127    77    76    1
   128     7     5    1
   129   131   132    2
   130   131   130    1
   131     5     6    1
   132    76    79    1
   133    56    55    1
   134    56    57    1
   135    67    66    1
   136   129   130    1
   137   136   134   ar
   138   136   138   ar
   139   130   133    1
   140    57    58    2
   141    57    62   am
   142   133   134    1
   143    62    63    1
   144    66    63    1
   145   134   135   ar
   146   138   137   ar
   147    65    64    2
   148    63    64    1
   149   137   135   ar
