@<TRIPOS>MOLECULE
tmp/3n2cN00.pdb
 145 138 0 0 0
SMALL
GASTEIGER

@<TRIPOS>ATOM
      1  N        -11.6640  -50.0850  -47.8600 N.3    62  HIS62      -0.1241
      2  CA       -13.0410  -49.6080  -47.8910 C.3    62  HIS62       0.1621
      3  C        -13.7320  -49.7190  -46.5330 C.2    62  HIS62       0.2264
      4  O        -14.2900  -50.7630  -46.2000 O.2    62  HIS62      -0.2867
      5  CB       -13.8350  -50.3860  -48.9440 C.3    62  HIS62       0.0745
      6  CG       -15.0710  -49.6850  -49.4110 C.ar   62  HIS62       0.0817
      7  ND1      -15.2510  -49.2890  -50.7180 N.ar   62  HIS62      -0.2268
      8  CD2      -16.1890  -49.3110  -48.7460 C.ar   62  HIS62       0.1154
      9  CE1      -16.4290  -48.7050  -50.8390 C.ar   62  HIS62       0.1986
     10  NE2      -17.0190  -48.7050  -49.6580 N.ar   62  HIS62      -0.2212
     11  N        -16.1840  -47.3090  -43.3870 N.3    64  HIS64      -0.1241
     12  CA       -16.9450  -46.1250  -43.0340 C.3    64  HIS64       0.1621
     13  C        -16.9190  -45.9920  -41.5320 C.2    64  HIS64       0.2264
     14  O        -17.9180  -46.2370  -40.8590 O.2    64  HIS64      -0.2867
     15  CB       -18.3840  -46.2250  -43.5350 C.3    64  HIS64       0.0745
     16  CG       -18.4990  -46.2110  -45.0200 C.ar   64  HIS64       0.0817
     17  ND1      -18.2020  -45.1000  -45.7770 N.ar   64  HIS64      -0.2268
     18  CD2      -18.8610  -47.1770  -45.8930 C.ar   64  HIS64       0.1154
     19  CE1      -18.3890  -45.3790  -47.0540 C.ar   64  HIS64       0.1986
     20  NE2      -18.7830  -46.6350  -47.1520 N.ar   64  HIS64      -0.2212
     21  N        -28.0840  -45.3810  -42.9160 N.3    72  LEU72      -0.1245
     22  CA       -27.2190  -44.2400  -43.2120 C.3    72  LEU72       0.1561
     23  C        -27.9930  -42.9280  -43.3340 C.2    72  LEU72       0.2260
     24  O        -27.4100  -41.8420  -43.2490 O.2    72  LEU72      -0.2867
     25  CB       -26.3860  -44.5100  -44.4690 C.3    72  LEU72       0.0270
     26  CG       -25.4320  -45.7080  -44.3920 C.3    72  LEU72       0.0019
     27  CD1      -24.9760  -46.1260  -45.7830 C.3    72  LEU72       0.0001
     28  CD2      -24.2370  -45.4200  -43.4850 C.3    72  LEU72       0.0001
     29  N        -26.7570  -42.4410  -55.0520 N.3   139  HIS139     -0.1241
     30  CA       -26.4990  -43.4270  -54.0090 C.3   139  HIS139      0.1621
     31  C        -26.1140  -42.8010  -52.6690 C.2   139  HIS139      0.2264
     32  O        -26.3640  -43.3740  -51.6120 O.2   139  HIS139     -0.2867
     33  CB       -25.4370  -44.4280  -54.4780 C.3   139  HIS139      0.0745
     34  CG       -25.2510  -45.5900  -53.5550 C.ar  139  HIS139      0.0817
     35  ND1      -26.2910  -46.4080  -53.1670 N.ar  139  HIS139     -0.2268
     36  CD2      -24.1450  -46.0720  -52.9410 C.ar  139  HIS139      0.1154
     37  CE1      -25.8350  -47.3360  -52.3450 C.ar  139  HIS139      0.1986
     38  NE2      -24.5350  -47.1620  -52.2000 N.ar  139  HIS139     -0.2212
     39  N        -22.0720  -39.6250  -44.7920 N.3   161  ILE161     -0.1245
     40  CA       -21.0930  -40.3460  -45.5930 C.3   161  ILE161      0.1561
     41  C        -20.7840  -39.5320  -46.8540 C.2   161  ILE161      0.2260
     42  O        -19.6280  -39.4400  -47.2820 O.2   161  ILE161     -0.2867
     43  CB       -21.6150  -41.7780  -45.9540 C.3   161  ILE161      0.0252
     44  CG1      -21.9090  -42.5940  -44.6840 C.3   161  ILE161      0.0019
     45  CG2      -20.6530  -42.5310  -46.8830 C.3   161  ILE161      0.0019
     46  CD1      -20.7140  -42.7980  -43.7450 C.3   161  ILE161      0.0001
     47  N        -20.0060  -41.7840  -56.5730 N.3   188  MET188     -0.1245
     48  CA       -21.0560  -42.7930  -56.6870 C.3   188  MET188      0.1570
     49  C        -21.4340  -42.9550  -58.1590 C.2   188  MET188      0.2261
     50  O        -22.1580  -42.1250  -58.7120 O.2   188  MET188     -0.2867
     51  CB       -22.2830  -42.3740  -55.8720 C.3   188  MET188      0.0387
     52  CG       -22.0240  -42.1150  -54.3940 C.3   188  MET188      0.0595
     53  SD       -21.5960  -43.6100  -53.4840 S.3   188  MET188     -0.1393
     54  CE       -21.8910  -43.0820  -51.7980 C.3   188  MET188      0.0692
     55  N        -27.1170  -48.7300  -55.7180 N.3   192  GLY192     -0.1210
     56  CA       -26.5970  -49.6600  -54.7270 C.3   192  GLY192      0.1956
     57  C        -27.6200  -50.4180  -53.9140 C.2   192  GLY192      0.2612
     58  O        -28.4850  -51.1000  -54.4660 O.2   192  GLY192     -0.2717
     59  N        -27.4970  -50.3030  -52.5930 N.am  193  VAL193     -0.1965
     60  CA       -28.3310  -51.0410  -51.6430 C.3   193  VAL193      0.1727
     61  C        -28.9600  -50.0970  -50.6060 C.2   193  VAL193      0.2616
     62  O        -30.1840  -50.0450  -50.4820 O.2   193  VAL193     -0.2715
     63  CB       -27.5250  -52.2140  -50.9660 C.3   193  VAL193      0.0290
     64  CG1      -28.1610  -52.6790  -49.6560 C.3   193  VAL193      0.0023
     65  CG2      -27.3640  -53.3910  -51.9230 C.3   193  VAL193      0.0023
     66  N        -28.1260  -49.3290  -49.9030 N.am  194  ALA194     -0.1977
     67  CA       -28.5610  -48.5450  -48.7380 C.3   194  ALA194      0.1597
     68  C        -29.1770  -47.1710  -49.0500 C.2   194  ALA194      0.2287
     69  O        -29.5290  -46.4230  -48.1320 O.2   194  ALA194     -0.2864
     70  CB       -27.4110  -48.4050  -47.7350 C.3   194  ALA194      0.0319
     71  N        -18.0190  -46.1760  -57.0170 N.3   227  HIS227     -0.1241
     72  CA       -18.9970  -47.1880  -56.6350 C.3   227  HIS227      0.1621
     73  C        -19.7910  -47.6250  -57.8700 C.2   227  HIS227      0.2264
     74  O        -20.5830  -46.8530  -58.4110 O.2   227  HIS227     -0.2867
     75  CB       -19.9100  -46.6200  -55.5330 C.3   227  HIS227      0.0745
     76  CG       -21.2120  -47.3450  -55.3690 C.ar  227  HIS227      0.0817
     77  ND1      -21.3300  -48.5100  -54.6440 N.ar  227  HIS227     -0.2268
     78  CD2      -22.4550  -47.0570  -55.8220 C.ar  227  HIS227      0.1154
     79  CE1      -22.5870  -48.9160  -54.6670 C.ar  227  HIS227      0.1986
     80  NE2      -23.2890  -48.0540  -55.3790 N.ar  227  HIS227     -0.2212
     81  N        -21.6550  -51.3840  -59.7850 N.3   229  TYR229     -0.1241
     82  CA       -21.9780  -52.8110  -59.7060 C.3   229  TYR229      0.1605
     83  C        -21.9040  -53.5180  -61.0560 C.2   229  TYR229      0.2264
     84  O        -21.0980  -54.4390  -61.2310 O.2   229  TYR229     -0.2867
     85  CB       -23.3470  -53.0370  -59.0590 C.3   229  TYR229      0.0534
     86  CG       -23.3170  -52.9920  -57.5510 C.ar  229  TYR229     -0.0201
     87  CD1      -22.5590  -53.9060  -56.8230 C.ar  229  TYR229     -0.0009
     88  CD2      -24.0500  -52.0410  -56.8490 C.ar  229  TYR229     -0.0009
     89  CE1      -22.5310  -53.8680  -55.4380 C.ar  229  TYR229      0.0417
     90  CE2      -24.0250  -51.9960  -55.4610 C.ar  229  TYR229      0.0417
     91  CZ       -23.2640  -52.9090  -54.7630 C.ar  229  TYR229      0.1957
     92  OH       -23.2420  -52.8650  -53.3890 O.3   229  TYR229     -0.2866
     93  N        -16.7390  -52.4270  -54.8410 N.3   247  HIS247     -0.1241
     94  CA       -17.7020  -53.5290  -55.0040 C.3   247  HIS247      0.1621
     95  C        -17.4910  -54.3010  -56.3140 C.2   247  HIS247      0.2264
     96  O        -16.7130  -55.2550  -56.3380 O.2   247  HIS247     -0.2867
     97  CB       -19.1530  -53.0620  -54.8190 C.3   247  HIS247      0.0745
     98  CG       -19.3480  -52.1350  -53.6580 C.ar  247  HIS247      0.0817
     99  ND1      -19.6580  -52.5800  -52.3920 N.ar  247  HIS247     -0.2268
    100  CD2      -19.2690  -50.7860  -53.5720 C.ar  247  HIS247      0.1154
    101  CE1      -19.7650  -51.5460  -51.5760 C.ar  247  HIS247      0.1986
    102  NE2      -19.5310  -50.4450  -52.2670 N.ar  247  HIS247     -0.2212
    103  N        -19.9330  -57.7190  -46.3230 N.3   272  THR272     -0.1203
    104  CA       -21.0630  -56.8690  -45.9680 C.3   272  THR272      0.1994
    105  C        -22.3960  -57.3770  -46.5120 C.2   272  THR272      0.2617
    106  O        -23.4310  -57.1400  -45.9080 O.2   272  THR272     -0.2717
    107  CB       -20.8230  -55.3640  -46.3160 C.3   272  THR272      0.1784
    108  OG1      -21.7240  -54.5450  -45.5580 O.3   272  THR272     -0.2211
    109  CG2      -21.0000  -55.0680  -47.8060 C.3   272  THR272      0.0376
    110  N        -22.3610  -58.1010  -47.6260 N.am  273  TYR273     -0.1975
    111  CA       -23.5800  -58.6440  -48.2130 C.3   273  TYR273      0.1639
    112  C        -24.0510  -59.8700  -47.4430 C.2   273  TYR273      0.2290
    113  O        -25.2550  -60.1150  -47.3370 O.2   273  TYR273     -0.2864
    114  CB       -23.3760  -58.9580  -49.6990 C.3   273  TYR273      0.0560
    115  CG       -22.8300  -57.7810  -50.4780 C.ar  273  TYR273     -0.0198
    116  CD1      -23.5490  -56.5860  -50.5690 C.ar  273  TYR273     -0.0009
    117  CD2      -21.5910  -57.8530  -51.1110 C.ar  273  TYR273     -0.0009
    118  CE1      -23.0500  -55.4960  -51.2720 C.ar  273  TYR273      0.0417
    119  CE2      -21.0850  -56.7670  -51.8190 C.ar  273  TYR273      0.0417
    120  CZ       -21.8190  -55.5950  -51.8930 C.ar  273  TYR273      0.1957
    121  OH       -21.3190  -54.5230  -52.5870 O.3   273  TYR273     -0.2866
    122  N        -25.4770  -58.4190  -44.1880 N.3   276  LEU276     -0.1245
    123  CA       -26.7850  -57.8000  -44.4230 C.3   276  LEU276      0.1561
    124  C        -27.8360  -58.8010  -44.8970 C.2   276  LEU276      0.2260
    125  O        -28.9200  -58.4110  -45.3370 O.2   276  LEU276     -0.2867
    126  CB       -26.6860  -56.6170  -45.3980 C.3   276  LEU276      0.0270
    127  CG       -25.9980  -55.3330  -44.9110 C.3   276  LEU276      0.0019
    128  CD1      -25.9000  -54.3050  -46.0330 C.3   276  LEU276      0.0001
    129  CD2      -26.6920  -54.7390  -43.6980 C.3   276  LEU276      0.0001
    130  N        -16.4310  -52.8260  -45.7110 N.3   319  ASP319     -0.1239
    131  CA       -17.6110  -51.9670  -45.9150 C.3   319  ASP319      0.1674
    132  C        -18.7590  -52.2830  -44.9480 C.2   319  ASP319      0.2266
    133  O        -19.9380  -52.2770  -45.3170 O.2   319  ASP319     -0.2867
    134  CB       -18.0670  -52.0160  -47.3820 C.3   319  ASP319      0.1410
    135  CG       -19.1420  -51.0050  -47.7050 C.2   319  ASP319      0.3668
    136  OD1      -19.0110  -49.8360  -47.2980 O.co2 319  ASP319     -0.2456
    137  OD2      -20.1260  -51.3970  -48.3620 O.co2 319  ASP319     -0.2456
    138  N        -21.2590  -51.6430  -41.7500 N.3   321  LEU321     -0.1245
    139  CA       -21.9320  -50.5070  -41.1360 C.3   321  LEU321      0.1561
    140  C        -22.3960  -50.8730  -39.7400 C.2   321  LEU321      0.2260
    141  O        -22.9120  -51.9720  -39.5210 O.2   321  LEU321     -0.2867
    142  CB       -23.1360  -50.0690  -41.9820 C.3   321  LEU321      0.0270
    143  CG       -22.9570  -49.9040  -43.4980 C.3   321  LEU321      0.0019
    144  CD1      -24.2890  -49.6190  -44.1770 C.3   321  LEU321      0.0001
    145  CD2      -21.9440  -48.8220  -43.8410 C.3   321  LEU321      0.0001
@<TRIPOS>BOND
     1    84    83    2
     2    83    82    1
     3    81    82    1
     4    82    85    1
     5    85    86    1
     6    50    49    2
     7    74    73    2
     8    49    48    1
     9    73    72    1
    10    86    88   ar
    11    86    87   ar
    12    71    72    1
    13    88    90   ar
    14    87    89   ar
    15    48    47    1
    16    48    51    1
    17    72    75    1
    18    96    95    2
    19    95    94    1
    20    51    52    1
    21    78    80   ar
    22    78    76   ar
    23    55    56    1
    24    75    76    1
    25    90    91   ar
    26    89    91   ar
    27    80    79   ar
    28    76    77   ar
    29    29    30    1
    30    94    93    1
    31    94    97    1
    32    97    98    1
    33    91    92    1
    34    56    57    1
    35    79    77   ar
    36    33    30    1
    37    33    34    1
    38    58    57    2
    39    52    53    1
    40    30    31    1
    41    57    59   am
    42    98   100   ar
    43    98    99   ar
    44   100   102   ar
    45    34    35   ar
    46    34    36   ar
    47    53    54    1
    48    35    37   ar
    49    36    38   ar
    50    31    32    2
    51    59    60    1
    52   121   120    1
    53    99   101   ar
    54    37    38   ar
    55   102   101   ar
    56    65    63    1
    57   120   119   ar
    58   120   118   ar
    59   119   117   ar
    60    60    63    1
    61    60    61    1
    62   118   116   ar
    63   117   115   ar
    64    63    64    1
    65     9     7   ar
    66     9    10   ar
    67     7     6   ar
    68    61    62    2
    69    61    66   am
    70   116   115   ar
    71   115   114    1
    72    66    67    1
    73   114   111    1
    74    10     8   ar
    75     6     5    1
    76     6     8   ar
    77    68    67    1
    78    68    69    2
    79     5     2    1
    80    67    70    1
    81   137   135   ar
    82   111   110    1
    83   111   112    1
    84     2     1    1
    85     2     3    1
    86   109   107    1
    87   135   134    1
    88   135   136   ar
    89   110   105   am
    90   112   113    2
    91   134   131    1
    92    42    41    2
    93    20    19   ar
    94    20    18   ar
    95    19    17   ar
    96    45    43    1
    97    41    40    1
    98     3     4    2
    99   105   104    1
   100   105   106    2
   101   103   104    1
   102   107   104    1
   103   107   108    1
   104   128   127    1
   105    43    40    1
   106    43    44    1
   107   131   130    1
   108   131   132    1
   109    18    16   ar
   110    27    26    1
   111    17    16   ar
   112    40    39    1
   113   126   127    1
   114   126   123    1
   115   125   124    2
   116   133   132    2
   117    16    15    1
   118   127   129    1
   119   124   123    1
   120    44    46    1
   121    25    26    1
   122    25    22    1
   123   123   122    1
   124    26    28    1
   125   144   143    1
   126   145   143    1
   127    15    12    1
   128   143   142    1
   129    11    12    1
   130    23    24    2
   131    23    22    1
   132    22    21    1
   133    12    13    1
   134   142   139    1
   135   138   139    1
   136    13    14    2
   137   139   140    1
   138   140   141    2
