@<TRIPOS>MOLECULE
tmp/3n2eA00.pdb
 169 161 0 0 0
SMALL
GASTEIGER

@<TRIPOS>ATOM
      1  N         46.8220   19.5420   15.8530 N.3     9  PHE9       -0.1227
      2  CA        45.6750   18.9750   16.4500 C.3     9  PHE9        0.1736
      3  C         45.0400   19.8420   17.4860 C.2     9  PHE9        0.2595
      4  O         45.6300   20.7160   18.0530 O.2     9  PHE9       -0.2718
      5  CB        46.0400   17.6530   17.1020 C.3     9  PHE9        0.0547
      6  CG        46.3330   16.5700   16.1620 C.ar    9  PHE9       -0.0202
      7  CD1       45.3370   15.8630   15.6030 C.ar    9  PHE9       -0.0042
      8  CD2       47.6080   16.2350   15.8650 C.ar    9  PHE9       -0.0042
      9  CE1       45.5960   14.8870   14.7700 C.ar    9  PHE9       -0.0003
     10  CE2       47.8610   15.2590   15.0240 C.ar    9  PHE9       -0.0003
     11  CZ        46.8530   14.5830   14.4710 C.ar    9  PHE9       -0.0000
     12  N         43.8150   19.4870   17.7780 N.am   10  MET10      -0.1979
     13  CA        43.0930   20.0730   18.8400 C.3    10  MET10       0.1605
     14  C         43.9650   19.7970   19.9990 C.2    10  MET10       0.2287
     15  O         44.5230   18.7440   20.1130 O.2    10  MET10      -0.2864
     16  CB        41.9210   19.1920   19.1380 C.3    10  MET10       0.0413
     17  CG        40.6810   19.4630   18.4910 C.3    10  MET10       0.0598
     18  SD        39.5130   18.2940   19.1270 S.3    10  MET10      -0.1393
     19  CE        39.5660   18.6800   20.8410 C.3    10  MET10       0.0692
     20  N         31.6310   25.7660   17.8350 N.3    44  VAL44      -0.1231
     21  CA        32.0070   24.8650   16.7340 C.3    44  VAL44       0.1692
     22  C         31.2500   23.4940   16.8100 C.2    44  VAL44       0.2591
     23  O         30.7180   22.9890   15.7710 O.2    44  VAL44      -0.2718
     24  CB        33.5750   24.7720   16.5290 C.3    44  VAL44       0.0266
     25  CG1       33.9750   23.7470   15.4360 C.3    44  VAL44       0.0020
     26  CG2       34.1400   26.1560   16.1940 C.3    44  VAL44       0.0020
     27  N         31.1710   22.9210   18.0280 N.am   45  ARG45      -0.1980
     28  CA        30.3470   21.7320   18.2860 C.3    45  ARG45       0.1597
     29  C         28.9640   21.9530   17.6910 C.2    45  ARG45       0.2287
     30  O         28.4700   21.1150   16.9290 O.2    45  ARG45      -0.2864
     31  CB        30.2380   21.4220   19.8010 C.3    45  ARG45       0.0334
     32  CG        31.5570   20.9140   20.4260 C.3    45  ARG45       0.0492
     33  CD        31.4420   20.3790   21.8750 C.3    45  ARG45       0.2205
     34  NE        32.7810   20.0570   22.4050 N.pl3  45  ARG45      -0.0865
     35  CZ        33.6570   20.9480   22.8960 C.cat  45  ARG45       0.5346
     36  NH1       33.3640   22.2410   22.9690 N.pl3  45  ARG45       0.1354
     37  NH2       34.8440   20.5490   23.3290 N.pl3  45  ARG45       0.1354
     38  N         28.7380   21.8240   13.7990 N.3    48  PHE48      -0.1241
     39  CA        28.7680   20.5110   13.2540 C.3    48  PHE48       0.1605
     40  C         27.4230   19.8760   13.5140 C.2    48  PHE48       0.2264
     41  O         26.8480   19.3450   12.5960 O.2    48  PHE48      -0.2867
     42  CB        29.8550   19.6960   13.9510 C.3    48  PHE48       0.0534
     43  CG        31.1960   19.8260   13.3460 C.ar   48  PHE48      -0.0203
     44  CD1       31.7140   18.8250   12.5940 C.ar   48  PHE48      -0.0042
     45  CD2       31.9380   20.9590   13.5210 C.ar   48  PHE48      -0.0042
     46  CE1       32.9220   18.9530   12.0340 C.ar   48  PHE48      -0.0003
     47  CE2       33.1480   21.0760   12.9550 C.ar   48  PHE48      -0.0003
     48  CZ        33.6360   20.0740   12.2130 C.ar   48  PHE48      -0.0000
     49  N         29.2870   18.8380    9.0080 N.3    53  GLU53      -0.1245
     50  CA        30.6720   19.0570    8.8640 C.3    53  GLU53       0.1567
     51  C         30.8880   19.6890    7.5110 C.2    53  GLU53       0.2260
     52  O         31.6990   20.5740    7.3860 O.2    53  GLU53      -0.2867
     53  CB        31.4460   17.7550    9.0280 C.3    53  GLU53       0.0388
     54  CG        32.8460   17.8360    8.4770 C.3    53  GLU53       0.1160
     55  CD        33.7560   16.8050    9.0590 C.2    53  GLU53       0.3649
     56  OE1       34.9400   17.1390    9.2940 O.co2  53  GLU53      -0.2457
     57  OE2       33.2730   15.6630    9.2680 O.co2  53  GLU53      -0.2457
     58  N         33.1080   23.0770    6.6530 N.3    57  ARG57      -0.1245
     59  CA        34.3270   22.9810    5.8730 C.3    57  ARG57       0.1563
     60  C         34.2490   24.0340    4.7600 C.2    57  ARG57       0.2260
     61  O         35.2690   24.5930    4.3260 O.2    57  ARG57      -0.2867
     62  CB        34.5420   21.5500    5.3240 C.3    57  ARG57       0.0307
     63  CG        34.9240   20.4830    6.3400 C.3    57  ARG57       0.0489
     64  CD        36.0610   20.8450    7.3780 C.3    57  ARG57       0.2205
     65  NE        36.2230   19.8330    8.4430 N.pl3  57  ARG57      -0.0865
     66  CZ        36.9750   19.9940    9.5310 C.cat  57  ARG57       0.5346
     67  NH1       37.6350   21.1140    9.6890 N.pl3  57  ARG57       0.1354
     68  NH2       37.0680   19.0500   10.4670 N.pl3  57  ARG57       0.1354
     69  N         41.8320   22.0880   13.7090 N.3    80  GLY80      -0.1210
     70  CA        42.5060   20.8480   13.3710 C.3    80  GLY80       0.1956
     71  C         42.4640   20.4650   11.8930 C.2    80  GLY80       0.2612
     72  O         43.5000   20.1040   11.3470 O.2    80  GLY80      -0.2717
     73  N         41.3020   20.5930   11.2440 N.am   81  GLY81      -0.1956
     74  CA        41.0700   20.0220    9.9130 C.3    81  GLY81       0.1869
     75  C         41.4080   20.9330    8.7450 C.2    81  GLY81       0.2309
     76  O         41.3510   20.5410    7.5730 O.2    81  GLY81      -0.2863
     77  N         43.8040   21.8050    7.3340 N.3    83  VAL83      -0.1231
     78  CA        44.8320   21.3560    6.4170 C.3    83  VAL83       0.1693
     79  C         44.2780   20.4610    5.3200 C.2    83  VAL83       0.2594
     80  O         45.0090   20.0610    4.4240 O.2    83  VAL83      -0.2718
     81  CB        45.9410   20.6730    7.1930 C.3    83  VAL83       0.0266
     82  CG1       45.5460   19.2860    7.5890 C.3    83  VAL83       0.0020
     83  CG2       47.1140   20.6440    6.3900 C.3    83  VAL83       0.0020
     84  N         42.9780   20.1590    5.3770 N.am   84  MET84      -0.1934
     85  CA        42.3460   19.4020    4.2990 C.3    84  MET84       0.1821
     86  C         41.9630   20.2430    3.0730 C.2    84  MET84       0.2332
     87  O         41.5150   19.6820    2.0910 O.2    84  MET84      -0.2860
     88  CB        41.1550   18.5600    4.8090 C.2    84  MET84       0.0096
     89  CG        39.8660   19.2900    4.9850 C.2    84  MET84       0.0285
     90  SD        38.5600   18.3860    5.9200 S.3    84  MET84      -0.1125
     91  CE        39.3610   17.0890    6.8890 C.3    84  MET84       0.0742
     92  N         32.9510   15.2750   26.2750 N.3   111  LYS111     -0.1231
     93  CA        32.2060   15.8630   25.1350 C.3   111  LYS111      0.1693
     94  C         32.9120   15.7040   23.7990 C.2   111  LYS111      0.2591
     95  O         32.2550   15.6160   22.7340 O.2   111  LYS111     -0.2718
     96  CB        31.8940   17.3560   25.3510 C.3   111  LYS111      0.0285
     97  CG        30.4050   17.6570   25.4300 C.3   111  LYS111      0.0035
     98  CD        30.1150   18.8590   26.3100 C.3   111  LYS111      0.0206
     99  CE        30.1150   18.5070   27.8230 C.3   111  LYS111      0.1093
    100  NZ        30.4120   19.7390   28.6690 N.3   111  LYS111     -0.1314
    101  N         34.2460   15.6760   23.8410 N.am  112  GLU112     -0.1979
    102  CA        35.0050   15.6510   22.6020 C.3   112  GLU112      0.1602
    103  C         34.9370   14.2500   22.0180 C.2   112  GLU112      0.2287
    104  O         34.5460   14.0790   20.8630 O.2   112  GLU112     -0.2864
    105  CB        36.4260   16.1870   22.8190 C.3   112  GLU112      0.0415
    106  CG        36.5010   17.7760   22.7840 C.3   112  GLU112      0.1163
    107  CD        37.4300   18.4430   23.8680 C.2   112  GLU112      0.3649
    108  OE1       37.7320   17.7960   24.9000 O.co2 112  GLU112     -0.2457
    109  OE2       37.8430   19.6330   23.6950 O.co2 112  GLU112     -0.2457
    110  N         31.3150   12.2060   20.5370 N.3   115  LYS115     -0.1231
    111  CA        30.7350   12.2270   19.2220 C.3   115  LYS115      0.1693
    112  C         31.6770   11.7120   18.1630 C.2   115  LYS115      0.2591
    113  O         31.2670   11.5930   17.0150 O.2   115  LYS115     -0.2718
    114  CB        30.1000   13.6100   18.9030 C.3   115  LYS115      0.0285
    115  CG        28.8340   13.8100   19.7480 C.3   115  LYS115      0.0035
    116  CD        28.1000   15.1290   19.5390 C.3   115  LYS115      0.0206
    117  CE        27.5130   15.3050   18.1100 C.3   115  LYS115      0.1093
    118  NZ        28.5470   15.7080   17.0520 N.3   115  LYS115     -0.1314
    119  N         32.9170   11.3910   18.5230 N.am  116  ARG116     -0.1980
    120  CA        33.8070   10.8500   17.5140 C.3   116  ARG116      0.1597
    121  C         34.3690    9.4710   17.8630 C.2   116  ARG116      0.2287
    122  O         35.3680    9.3430   18.5480 O.2   116  ARG116     -0.2864
    123  CB        34.9190   11.8380   17.2480 C.3   116  ARG116      0.0334
    124  CG        34.4220   13.2740   17.0710 C.3   116  ARG116      0.0492
    125  CD        35.5450   14.2300   17.3290 C.3   116  ARG116      0.2205
    126  NE        36.6210   13.9490   16.3920 N.pl3 116  ARG116     -0.0865
    127  CZ        37.7680   14.6090   16.3620 C.cat 116  ARG116      0.5346
    128  NH1       38.0120   15.6150   17.2260 N.pl3 116  ARG116      0.1354
    129  NH2       38.6600   14.2500   15.4540 N.pl3 116  ARG116      0.1354
    130  N         47.9810    9.3980   10.0920 N.3   131  LYS131     -0.1231
    131  CA        47.6650    9.8170    8.7440 C.3   131  LYS131      0.1693
    132  C         47.5160   11.3330    8.7290 C.2   131  LYS131      0.2591
    133  O         48.0290   11.9930    7.8210 O.2   131  LYS131     -0.2718
    134  CB        46.4220    9.0890    8.2520 C.3   131  LYS131      0.0285
    135  CG        45.8340    9.5500    6.9160 C.3   131  LYS131      0.0035
    136  CD        44.3780    8.9690    6.7090 C.3   131  LYS131      0.0206
    137  CE        43.2660    9.9230    7.2500 C.3   131  LYS131      0.1093
    138  NZ        41.7930    9.5280    6.9850 N.3   131  LYS131     -0.1314
    139  N         46.8950   11.8980    9.7650 N.am  132  ARG132     -0.1980
    140  CA        46.7870   13.3550    9.8850 C.3   132  ARG132      0.1597
    141  C         48.1180   14.0700   10.2680 C.2   132  ARG132      0.2287
    142  O         48.3990   15.2240    9.8280 O.2   132  ARG132     -0.2864
    143  CB        45.6830   13.7140   10.8570 C.3   132  ARG132      0.0334
    144  CG        44.2950   13.3740   10.3700 C.3   132  ARG132      0.0492
    145  CD        43.2650   13.6070   11.4320 C.3   132  ARG132      0.2205
    146  NE        41.9400   13.2280   10.9370 N.pl3 132  ARG132     -0.0865
    147  CZ        40.8030   13.2610   11.6530 C.cat 132  ARG132      0.5346
    148  NH1       40.7950   13.6680   12.9500 N.pl3 132  ARG132      0.1354
    149  NH2       39.6610   12.8890   11.0540 N.pl3 132  ARG132      0.1354
    150  N         49.8100   14.4660    7.1910 N.3   135  LEU135     -0.1231
    151  CA        49.2250   15.5870    6.4540 C.3   135  LEU135      0.1693
    152  C         49.6790   16.9520    7.0110 C.2   135  LEU135      0.2592
    153  O         49.8030   17.8900    6.2410 O.2   135  LEU135     -0.2718
    154  CB        47.6880   15.4280    6.3310 C.3   135  LEU135      0.0284
    155  CG        46.6930   16.4320    5.6440 C.3   135  LEU135      0.0019
    156  CD1       47.0090   16.9170    4.2130 C.3   135  LEU135      0.0001
    157  CD2       45.2800   15.8540    5.6390 C.3   135  LEU135      0.0001
    158  N         49.9620   17.0690    8.3110 N.am  136  TYR136     -0.1976
    159  CA        50.4300   18.3290    8.8550 C.3   136  TYR136      0.1639
    160  C         51.8900   18.5280    8.4690 C.2   136  TYR136      0.2290
    161  O         52.3440   19.6620    8.2170 O.2   136  TYR136     -0.2864
    162  CB        50.3740   18.3300   10.3720 C.3   136  TYR136      0.0560
    163  CG        49.0050   18.4480   10.9610 C.ar  136  TYR136     -0.0198
    164  CD1       48.1500   19.4420   10.5550 C.ar  136  TYR136     -0.0009
    165  CD2       48.5730   17.5700   11.9660 C.ar  136  TYR136     -0.0009
    166  CE1       46.9400   19.5590   11.0720 C.ar  136  TYR136      0.0417
    167  CE2       47.3390   17.6960   12.5260 C.ar  136  TYR136      0.0417
    168  CZ        46.5200   18.6990   12.0600 C.ar  136  TYR136      0.1957
    169  OH        45.2460   18.8650   12.5710 O.3   136  TYR136     -0.2866
@<TRIPOS>BOND
     1    87    86    2
     2    86    85    1
     3   156   155    1
     4    85    88    1
     5    85    84    1
     6    61    60    2
     7    80    79    2
     8    60    59    1
     9    88    89    2
    10    89    90    1
    11    79    84   am
    12    79    78    1
    13    62    59    1
    14    62    63    1
    15   157   155    1
    16   155   154    1
    17    59    58    1
    18    90    91    1
    19   153   152    2
    20   154   151    1
    21    63    64    1
    22    83    81    1
    23    78    81    1
    24    78    77    1
    25   151   152    1
    26   151   150    1
    27   136   135    1
    28   136   137    1
    29   135   134    1
    30   138   137    1
    31   152   158   am
    32    81    82    1
    33    64    65    1
    34    52    51    2
    35    51    50    1
    36    76    75    2
    37   133   132    2
    38   161   160    2
    39   134   131    1
    40   158   159    1
    41    65    66    2
    42   160   159    1
    43    54    53    1
    44    54    55    1
    45   132   131    1
    46   132   139   am
    47   131   130    1
    48    75    74    1
    49   159   162    1
    50    50    49    1
    51    50    53    1
    52    55    57   ar
    53    55    56   ar
    54    66    67    1
    55    66    68    1
    56   139   140    1
    57   142   141    2
    58   140   141    1
    59   140   143    1
    60    74    73    1
    61   144   143    1
    62   144   145    1
    63   162   163    1
    64   164   163   ar
    65   164   166   ar
    66   146   145    1
    67   146   147    2
    68   163   165   ar
    69   149   147    1
    70   166   168   ar
    71    73    71   am
    72    72    71    2
    73   147   148    1
    74    71    70    1
    75   165   167   ar
    76    46    48   ar
    77    46    44   ar
    78   168   167   ar
    79   168   169    1
    80    48    47   ar
    81    44    43   ar
    82    41    40    2
    83    47    45   ar
    84    39    40    1
    85    39    38    1
    86    39    42    1
    87    43    45   ar
    88    43    42    1
    89    70    69    1
    90    11     9   ar
    91    11    10   ar
    92     9     7   ar
    93    10     8   ar
    94    25    24    1
    95   129   127    1
    96     7     6   ar
    97    23    22    2
    98     1     2    1
    99     8     6   ar
   100     6     5    1
   101    26    24    1
   102   127   126    2
   103   127   128    1
   104   126   125    1
   105     2     5    1
   106     2     3    1
   107    24    21    1
   108    21    22    1
   109    21    20    1
   110    22    27   am
   111    30    29    2
   112   113   112    2
   113   118   117    1
   114   124   123    1
   115   124   125    1
   116   123   120    1
   117     3    12   am
   118     3     4    2
   119   120   121    1
   120   120   119    1
   121    29    28    1
   122    12    13    1
   123   121   122    2
   124    27    28    1
   125   117   116    1
   126   112   119   am
   127   112   111    1
   128    28    31    1
   129    17    18    1
   130    17    16    1
   131    13    16    1
   132    13    14    1
   133   114   111    1
   134   114   115    1
   135    18    19    1
   136   111   110    1
   137   116   115    1
   138    31    32    1
   139    14    15    2
   140    32    33    1
   141   104   103    2
   142    33    34    1
   143   103   102    1
   144    34    35    2
   145   102   105    1
   146   102   101    1
   147    95    94    2
   148   106   105    1
   149   106   107    1
   150    35    36    1
   151    35    37    1
   152   109   107   ar
   153    94   101   am
   154    94    93    1
   155   107   108   ar
   156    93    96    1
   157    93    92    1
   158    96    97    1
   159    97    98    1
   160    98    99    1
   161    99   100    1
