@<TRIPOS>MOLECULE
tmp/3n2eB02.pdb
 66 62 0 0 0
SMALL
GASTEIGER

@<TRIPOS>ATOM
      1  N         75.2850   13.7080    8.1500 N.3    10  MET10      -0.1230
      2  CA        75.0940   14.7470    7.1930 C.3    10  MET10       0.1702
      3  C         76.1530   15.8290    7.4210 C.2    10  MET10       0.2593
      4  O         76.2970   16.3200    8.5520 O.2    10  MET10      -0.2718
      5  CB        73.7450   15.3140    7.5190 C.3    10  MET10       0.0401
      6  CG        72.9520   15.9700    6.4160 C.3    10  MET10       0.0596
      7  SD        71.2840   16.3430    7.1360 S.3    10  MET10      -0.1393
      8  CE        71.6870   16.3020    8.8850 C.3    10  MET10       0.0692
      9  N         76.9020   16.1690    6.3600 N.am   11  GLY11      -0.1942
     10  CA        77.9290   17.1780    6.3950 C.3    11  GLY11       0.2014
     11  C         79.3400   16.6570    6.5770 C.2    11  GLY11       0.2640
     12  O         80.3380   17.4500    6.5680 O.2    11  GLY11      -0.2714
     13  N         79.4950   15.3520    6.7450 N.am   12  SER12      -0.1935
     14  CA        80.8640   14.8940    6.9230 C.3    12  SER12       0.2055
     15  C         81.6310   14.7120    5.6110 C.2    12  SER12       0.2644
     16  O         82.8120   14.3830    5.6280 O.2    12  SER12      -0.2714
     17  CB        80.9290   13.6720    7.8150 C.3    12  SER12       0.2130
     18  OG        79.9180   12.7630    7.4430 O.3    12  SER12      -0.2179
     19  N         80.9850   14.9490    4.4720 N.am   13  GLY13      -0.1939
     20  CA        81.6550   14.8700    3.1650 C.3    13  GLY13       0.2014
     21  C         81.7100   13.4730    2.5180 C.2    13  GLY13       0.2639
     22  O         82.6720   13.1550    1.8290 O.2    13  GLY13      -0.2714
     23  N         80.6880   12.6410    2.7050 N.am   14  LYS14      -0.1963
     24  CA        80.7290   11.2900    2.1380 C.3    14  LYS14       0.1728
     25  C         80.7470   11.2830    0.6420 C.2    14  LYS14       0.2617
     26  O         81.6650   10.7700    0.0770 O.2    14  LYS14      -0.2715
     27  CB        79.6280   10.3980    2.6830 C.3    14  LYS14       0.0311
     28  CG        79.7850   10.1920    4.2040 C.3    14  LYS14       0.0038
     29  CD        78.4870    9.8720    4.9220 C.3    14  LYS14       0.0206
     30  CE        77.5410   11.0250    4.9410 C.3    14  LYS14       0.1093
     31  NZ        76.2600   10.4740    5.4930 N.3    14  LYS14      -0.1314
     32  N         79.7660   11.8660   -0.0120 N.am   15  SER15      -0.1936
     33  CA        79.7650   11.8890   -1.4620 C.3    15  SER15       0.2055
     34  C         81.0990   12.2670   -2.0320 C.2    15  SER15       0.2643
     35  O         81.6570   11.5250   -2.8350 O.2    15  SER15      -0.2714
     36  CB        78.7400   12.8570   -2.0200 C.3    15  SER15       0.2130
     37  OG        77.4800   12.2260   -2.0880 O.3    15  SER15      -0.2179
     38  N         81.5970   13.4330   -1.6560 N.am   16  SER16      -0.1949
     39  CA        82.8340   13.9410   -2.1940 C.3    16  SER16       0.1924
     40  C         83.9370   12.9310   -1.9430 C.2    16  SER16       0.2314
     41  O         84.5650   12.4220   -2.9100 O.2    16  SER16      -0.2863
     42  CB        83.1790   15.2500   -1.5270 C.3    16  SER16       0.2116
     43  OG        82.3420   16.2870   -2.0250 O.3    16  SER16      -0.2180
     44  N         75.9110    6.2220   -4.3100 N.3    31  ASP31      -0.1239
     45  CA        75.4070    6.9320   -3.1680 C.3    31  ASP31       0.1674
     46  C         73.9510    6.5100   -2.9930 C.2    31  ASP31       0.2266
     47  O         73.1200    6.6710   -3.9150 O.2    31  ASP31      -0.2867
     48  CB        75.4690    8.4360   -3.4220 C.3    31  ASP31       0.1410
     49  CG        75.0150    9.2520   -2.2000 C.2    31  ASP31       0.3668
     50  OD1       73.7860    9.4850   -2.0310 O.co2  31  ASP31      -0.2456
     51  OD2       75.8870    9.6580   -1.3860 O.co2  31  ASP31      -0.2456
     52  N         71.4730    7.7410   -0.9990 N.3    33  ASP33      -0.1239
     53  CA        70.4480    8.7930   -1.1570 C.3    33  ASP33       0.1674
     54  C         70.1920    9.1170   -2.6080 C.2    33  ASP33       0.2266
     55  O         69.0800    9.4140   -2.9600 O.2    33  ASP33      -0.2867
     56  CB        70.7720   10.0740   -0.4100 C.3    33  ASP33       0.1410
     57  CG        70.8120    9.8960    1.0930 C.2    33  ASP33       0.3668
     58  OD1       70.4710    8.8100    1.6580 O.co2  33  ASP33      -0.2456
     59  OD2       71.2370   10.8840    1.7240 O.co2  33  ASP33      -0.2456
     60  N         76.6370    6.8890    1.8470 N.3    78  THR78      -0.1218
     61  CA        75.3400    6.6190    2.3980 C.3    78  THR78       0.1862
     62  C         74.8270    7.7640    3.2860 C.2    78  THR78       0.2287
     63  O         75.6090    8.5170    3.9020 O.2    78  THR78      -0.2866
     64  CB        75.4270    5.3530    3.2600 C.3    78  THR78       0.1770
     65  OG1       76.1700    5.6310    4.4260 O.3    78  THR78      -0.2211
     66  CG2       76.1770    4.2490    2.5500 C.3    78  THR78       0.0375
@<TRIPOS>BOND
     1    44    45    1
     2    47    46    2
     3    48    45    1
     4    48    49    1
     5    45    46    1
     6    55    54    2
     7    41    40    2
     8    35    34    2
     9    54    53    1
    10    49    50   ar
    11    49    51   ar
    12    39    40    1
    13    39    38    1
    14    39    42    1
    15    37    36    1
    16    34    38   am
    17    34    33    1
    18    43    42    1
    19    36    33    1
    20    33    32    1
    21    53    52    1
    22    53    56    1
    23    56    57    1
    24    32    25   am
    25    26    25    2
    26    25    24    1
    27    57    58   ar
    28    57    59   ar
    29    22    21    2
    30    60    61    1
    31    24    27    1
    32    24    23    1
    33    61    64    1
    34    61    62    1
    35    21    23   am
    36    21    20    1
    37    66    64    1
    38    27    28    1
    39    20    19    1
    40    64    65    1
    41    62    63    2
    42    28    29    1
    43    19    15   am
    44    29    30    1
    45    30    31    1
    46    15    16    2
    47    15    14    1
    48     9    10    1
    49     9     3   am
    50    10    11    1
    51     6     7    1
    52     6     5    1
    53    12    11    2
    54    11    13   am
    55    13    14    1
    56    14    17    1
    57     7     8    1
    58     2     3    1
    59     2     5    1
    60     2     1    1
    61     3     4    2
    62    18    17    1
