@<TRIPOS>MOLECULE
tmp/3n2eA02.pdb
 108 102 0 0 0
SMALL
GASTEIGER

@<TRIPOS>ATOM
      1  N         46.8220   19.5420   15.8530 N.3     9  PHE9       -0.1227
      2  CA        45.6750   18.9750   16.4500 C.3     9  PHE9        0.1736
      3  C         45.0400   19.8420   17.4860 C.2     9  PHE9        0.2595
      4  O         45.6300   20.7160   18.0530 O.2     9  PHE9       -0.2718
      5  CB        46.0400   17.6530   17.1020 C.3     9  PHE9        0.0547
      6  CG        46.3330   16.5700   16.1620 C.ar    9  PHE9       -0.0202
      7  CD1       45.3370   15.8630   15.6030 C.ar    9  PHE9       -0.0042
      8  CD2       47.6080   16.2350   15.8650 C.ar    9  PHE9       -0.0042
      9  CE1       45.5960   14.8870   14.7700 C.ar    9  PHE9       -0.0003
     10  CE2       47.8610   15.2590   15.0240 C.ar    9  PHE9       -0.0003
     11  CZ        46.8530   14.5830   14.4710 C.ar    9  PHE9       -0.0000
     12  N         43.8150   19.4870   17.7780 N.am   10  MET10      -0.1979
     13  CA        43.0930   20.0730   18.8400 C.3    10  MET10       0.1605
     14  C         43.9650   19.7970   19.9990 C.2    10  MET10       0.2287
     15  O         44.5230   18.7440   20.1130 O.2    10  MET10      -0.2864
     16  CB        41.9210   19.1920   19.1380 C.3    10  MET10       0.0413
     17  CG        40.6810   19.4630   18.4910 C.3    10  MET10       0.0598
     18  SD        39.5130   18.2940   19.1270 S.3    10  MET10      -0.1393
     19  CE        39.5660   18.6800   20.8410 C.3    10  MET10       0.0692
     20  N         51.0600   11.6490   20.5140 N.3   101  PHE101     -0.1241
     21  CA        49.7460   10.9730   20.6160 C.3   101  PHE101      0.1605
     22  C         49.2660   10.9010   22.0860 C.2   101  PHE101      0.2264
     23  O         48.1730   11.4120   22.4190 O.2   101  PHE101     -0.2867
     24  CB        49.8380    9.5950   20.0070 C.3   101  PHE101      0.0534
     25  CG        48.5880    8.7740   20.1300 C.ar  101  PHE101     -0.0203
     26  CD1       48.5080    7.7330   21.0730 C.ar  101  PHE101     -0.0042
     27  CD2       47.4970    9.0140   19.3040 C.ar  101  PHE101     -0.0042
     28  CE1       47.3440    6.9550   21.1680 C.ar  101  PHE101     -0.0003
     29  CE2       46.3540    8.2490   19.3780 C.ar  101  PHE101     -0.0003
     30  CZ        46.2740    7.2090   20.3090 C.ar  101  PHE101     -0.0000
     31  N         47.9950   14.2750   23.6010 N.3   104  LEU104     -0.1231
     32  CA        46.8120   14.7500   22.8930 C.3   104  LEU104      0.1693
     33  C         45.5740   13.9610   23.2680 C.2   104  LEU104      0.2591
     34  O         44.5480   14.5330   23.4230 O.2   104  LEU104     -0.2718
     35  CB        46.9970   14.6790   21.3850 C.3   104  LEU104      0.0284
     36  CG        47.8770   15.6960   20.6650 C.3   104  LEU104      0.0019
     37  CD1       47.8140   15.3960   19.1610 C.3   104  LEU104      0.0001
     38  CD2       47.5170   17.1590   20.9180 C.3   104  LEU104      0.0001
     39  N         45.6830   12.6520   23.4050 N.am  105  ILE105     -0.1980
     40  CA        44.5850   11.8080   23.8990 C.3   105  ILE105      0.1595
     41  C         44.1760   12.1880   25.3360 C.2   105  ILE105      0.2287
     42  O         42.9960   12.4350   25.6020 O.2   105  ILE105     -0.2864
     43  CB        44.9460   10.2650   23.8000 C.3   105  ILE105      0.0276
     44  CG1       44.9140    9.7730   22.3400 C.3   105  ILE105      0.0022
     45  CG2       44.0770    9.4420   24.7000 C.3   105  ILE105      0.0022
     46  CD1       43.5190    9.8270   21.6330 C.3   105  ILE105      0.0001
     47  N         42.0510   15.3930   25.5770 N.3   108  LEU108     -0.1245
     48  CA        40.6430   15.4040   25.1910 C.3   108  LEU108      0.1561
     49  C         39.7350   15.1890   26.4310 C.2   108  LEU108      0.2260
     50  O         40.1590   14.6010   27.4490 O.2   108  LEU108     -0.2867
     51  CB        40.3840   14.2970   24.1930 C.3   108  LEU108      0.0270
     52  CG        41.1010   14.2100   22.8520 C.3   108  LEU108      0.0019
     53  CD1       41.0490   12.7750   22.3510 C.3   108  LEU108      0.0001
     54  CD2       40.4730   15.1420   21.8370 C.3   108  LEU108      0.0001
     55  N         32.9170   11.3910   18.5230 N.3   116  ARG116     -0.1245
     56  CA        33.8070   10.8500   17.5140 C.3   116  ARG116      0.1563
     57  C         34.3690    9.4710   17.8630 C.2   116  ARG116      0.2260
     58  O         35.3680    9.3430   18.5480 O.2   116  ARG116     -0.2867
     59  CB        34.9190   11.8380   17.2480 C.3   116  ARG116      0.0307
     60  CG        34.4220   13.2740   17.0710 C.3   116  ARG116      0.0489
     61  CD        35.5450   14.2300   17.3290 C.3   116  ARG116      0.2205
     62  NE        36.6210   13.9490   16.3920 N.pl3 116  ARG116     -0.0865
     63  CZ        37.7680   14.6090   16.3620 C.cat 116  ARG116      0.5346
     64  NH1       38.0120   15.6150   17.2260 N.pl3 116  ARG116      0.1354
     65  NH2       38.6600   14.2500   15.4540 N.pl3 116  ARG116      0.1354
     66  N         38.1690    8.0340   18.2490 N.3   119  LEU119     -0.1245
     67  CA        39.0270    8.4060   19.3540 C.3   119  LEU119      0.1561
     68  C         38.9310    7.4400   20.5270 C.2   119  LEU119      0.2260
     69  O         39.7060    7.5220   21.4770 O.2   119  LEU119     -0.2867
     70  CB        38.7010    9.8210   19.8340 C.3   119  LEU119      0.0270
     71  CG        39.0720   11.1050   19.0610 C.3   119  LEU119      0.0019
     72  CD1       39.9960   10.8620   17.8770 C.3   119  LEU119      0.0001
     73  CD2       37.8400   11.8220   18.6210 C.3   119  LEU119      0.0001
     74  N         42.4390    5.2790   16.8050 N.3   125  ALA125     -0.1245
     75  CA        42.9980    6.5220   17.2620 C.3   125  ALA125      0.1562
     76  C         44.4480    6.7310   16.7400 C.2   125  ALA125      0.2260
     77  O         44.7480    7.8060   16.2450 O.2   125  ALA125     -0.2867
     78  CB        42.8980    6.6230   18.7510 C.3   125  ALA125      0.0290
     79  N         44.4860    7.1450   12.8330 N.3   128  LEU128     -0.1231
     80  CA        44.0330    8.4840   12.5690 C.3   128  LEU128      0.1693
     81  C         45.1770    9.4930   12.8060 C.2   128  LEU128      0.2592
     82  O         45.5230   10.3050   11.9350 O.2   128  LEU128     -0.2718
     83  CB        42.9080    8.7230   13.5430 C.3   128  LEU128      0.0284
     84  CG        41.6550    9.4440   13.1380 C.3   128  LEU128      0.0019
     85  CD1       41.5920   10.8120   13.8440 C.3   128  LEU128      0.0001
     86  CD2       41.5230    9.5100   11.5960 C.3   128  LEU128      0.0001
     87  N         45.7810    9.4000   13.9790 N.am  129  PHE129     -0.1976
     88  CA        46.8560   10.2860   14.3610 C.3   129  PHE129      0.1639
     89  C         47.9540   10.2590   13.3230 C.2   129  PHE129      0.2290
     90  O         48.3860   11.3260   12.8790 O.2   129  PHE129     -0.2864
     91  CB        47.4220    9.9250   15.7480 C.3   129  PHE129      0.0560
     92  CG        48.7130   10.6100   16.0830 C.ar  129  PHE129     -0.0200
     93  CD1       48.7290   11.8850   16.6120 C.ar  129  PHE129     -0.0042
     94  CD2       49.9200    9.9700   15.8870 C.ar  129  PHE129     -0.0042
     95  CE1       49.9630   12.5430   16.9110 C.ar  129  PHE129     -0.0003
     96  CE2       51.1510   10.6150   16.1910 C.ar  129  PHE129     -0.0003
     97  CZ        51.1580   11.9080   16.7180 C.ar  129  PHE129     -0.0000
     98  N         46.8950   11.8980    9.7650 N.3   132  ARG132     -0.1245
     99  CA        46.7870   13.3550    9.8850 C.3   132  ARG132      0.1563
    100  C         48.1180   14.0700   10.2680 C.2   132  ARG132      0.2260
    101  O         48.3990   15.2240    9.8280 O.2   132  ARG132     -0.2867
    102  CB        45.6830   13.7140   10.8570 C.3   132  ARG132      0.0307
    103  CG        44.2950   13.3740   10.3700 C.3   132  ARG132      0.0489
    104  CD        43.2650   13.6070   11.4320 C.3   132  ARG132      0.2205
    105  NE        41.9400   13.2280   10.9370 N.pl3 132  ARG132     -0.0865
    106  CZ        40.8030   13.2610   11.6530 C.cat 132  ARG132      0.5346
    107  NH1       40.7950   13.6680   12.9500 N.pl3 132  ARG132      0.1354
    108  NH2       39.6610   12.8890   11.0540 N.pl3 132  ARG132      0.1354
@<TRIPOS>BOND
     1    98    99    1
     2   101   100    2
     3    99   100    1
     4    99   102    1
     5   103   102    1
     6   103   104    1
     7   105   104    1
     8   105   106    2
     9   108   106    1
    10    86    84    1
    11   106   107    1
    12    82    81    2
    13    80    81    1
    14    80    79    1
    15    80    83    1
    16    81    87   am
    17    90    89    2
    18    84    83    1
    19    84    85    1
    20    89    88    1
    21    87    88    1
    22    88    91    1
    23    11     9   ar
    24    11    10   ar
    25     9     7   ar
    26    10     8   ar
    27    65    63    1
    28     7     6   ar
    29    91    92    1
    30     1     2    1
    31     8     6   ar
    32    94    92   ar
    33    94    96   ar
    34    92    93   ar
    35     6     5    1
    36    96    97   ar
    37    77    76    2
    38    63    62    2
    39    63    64    1
    40    62    61    1
    41     2     5    1
    42     2     3    1
    43    93    95   ar
    44    97    95   ar
    45    76    75    1
    46    74    75    1
    47    60    59    1
    48    60    61    1
    49    59    56    1
    50    75    78    1
    51     3    12   am
    52     3     4    2
    53    56    57    1
    54    56    55    1
    55    12    13    1
    56    57    58    2
    57    72    71    1
    58    66    67    1
    59    17    18    1
    60    17    16    1
    61    73    71    1
    62    13    16    1
    63    13    14    1
    64    71    70    1
    65    18    19    1
    66    37    36    1
    67    27    29   ar
    68    27    25   ar
    69    67    70    1
    70    67    68    1
    71    29    30   ar
    72    14    15    2
    73    24    25    1
    74    24    21    1
    75    25    26   ar
    76    30    28   ar
    77    20    21    1
    78    68    69    2
    79    21    22    1
    80    36    38    1
    81    36    35    1
    82    26    28   ar
    83    35    32    1
    84    46    44    1
    85    54    52    1
    86    22    23    2
    87    44    43    1
    88    53    52    1
    89    52    51    1
    90    32    33    1
    91    32    31    1
    92    33    39   am
    93    33    34    2
    94    39    40    1
    95    43    40    1
    96    43    45    1
    97    40    41    1
    98    51    48    1
    99    48    47    1
   100    48    49    1
   101    41    42    2
   102    49    50    2
