@<TRIPOS>MOLECULE
tmp/3n2gB01.pdb
 183 170 0 0 0
SMALL
GASTEIGER

@<TRIPOS>ATOM
      1  N        112.2880   77.8470   17.3620 N.3     3  ILE3       -0.1245
      2  CA       110.9530   78.0820   16.7700 C.3     3  ILE3        0.1561
      3  C        110.0460   76.8420   16.6760 C.2     3  ILE3        0.2260
      4  O        110.5220   75.7820   16.3070 O.2     3  ILE3       -0.2867
      5  CB       111.0680   78.7640   15.3800 C.3     3  ILE3        0.0252
      6  CG1      110.6500   77.8420   14.2540 C.3     3  ILE3        0.0019
      7  CG2      112.4700   79.1530   15.0800 C.3     3  ILE3        0.0019
      8  CD1      110.3590   78.5970   12.9950 C.3     3  ILE3        0.0001
      9  N        114.7750   74.0040   14.7130 N.3    49  TYR49      -0.1241
     10  CA       113.5640   73.3550   14.2320 C.3    49  TYR49       0.1605
     11  C        113.3180   71.9650   14.7990 C.2    49  TYR49       0.2264
     12  O        112.3780   71.2870   14.3810 O.2    49  TYR49      -0.2867
     13  CB       113.6120   73.2430   12.7350 C.3    49  TYR49       0.0534
     14  CG       112.9650   74.3650   12.0750 C.ar   49  TYR49      -0.0201
     15  CD1      113.6600   75.5250   11.8510 C.ar   49  TYR49      -0.0009
     16  CD2      111.6680   74.2770   11.6570 C.ar   49  TYR49      -0.0009
     17  CE1      113.0900   76.5940   11.2240 C.ar   49  TYR49       0.0417
     18  CE2      111.0690   75.3380   11.0230 C.ar   49  TYR49       0.0417
     19  CZ       111.7930   76.5100   10.8090 C.ar   49  TYR49       0.1957
     20  OH       111.2340   77.6120   10.1850 O.3    49  TYR49      -0.2866
     21  N        105.6630   79.4830   13.4950 N.3   133  GLN133     -0.1245
     22  CA       105.2310   79.5910   12.1120 C.3   133  GLN133      0.1566
     23  C        104.0890   78.6220   11.9050 C.2   133  GLN133      0.2260
     24  O        104.0500   77.5930   12.5610 O.2   133  GLN133     -0.2867
     25  CB       106.3570   79.2190   11.1660 C.3   133  GLN133      0.0367
     26  CG       106.8240   77.7930   11.3090 C.3   133  GLN133      0.0905
     27  CD       107.4820   77.2830   10.0660 C.2   133  GLN133      0.2608
     28  OE1      107.0060   76.3350    9.4580 O.2   133  GLN133     -0.2717
     29  NE2      108.5840   77.9070    9.6790 N.am  133  GLN133     -0.0878
     30  N        103.7290   84.1320   12.1110 N.3   164  ASN164     -0.1240
     31  CA       104.3000   83.9160   10.7940 C.3   164  ASN164      0.1653
     32  C        103.6190   82.8240   10.0320 C.2   164  ASN164      0.2266
     33  O        103.5510   81.7090   10.4910 O.2   164  ASN164     -0.2867
     34  CB       105.7610   83.4900   10.9810 C.3   164  ASN164      0.1155
     35  CG       106.7450   84.5630   10.5800 C.2   164  ASN164      0.2627
     36  OD1      106.4750   85.3280    9.6600 O.2   164  ASN164     -0.2716
     37  ND2      107.8960   84.6250   11.2600 N.am  164  ASN164     -0.0877
     38  N        102.6460   80.6300    6.2580 N.3   166  PHE166     -0.1241
     39  CA       102.4820   80.2960    4.8630 C.3   166  PHE166      0.1605
     40  C        101.0410   79.9180    4.7030 C.2   166  PHE166      0.2264
     41  O        100.6050   78.8850    5.1830 O.2   166  PHE166     -0.2867
     42  CB       103.3930   79.1390    4.4700 C.3   166  PHE166      0.0534
     43  CG       104.8100   79.3370    4.9000 C.ar  166  PHE166     -0.0203
     44  CD1      105.2230   78.9160    6.1610 C.ar  166  PHE166     -0.0042
     45  CD2      105.7240   79.9840    4.0790 C.ar  166  PHE166     -0.0042
     46  CE1      106.5220   79.1190    6.6050 C.ar  166  PHE166     -0.0003
     47  CE2      107.0250   80.1930    4.5140 C.ar  166  PHE166     -0.0003
     48  CZ       107.4200   79.7540    5.7870 C.ar  166  PHE166     -0.0000
     49  N        104.5230   88.3740    9.5490 N.3   197  GLU197     -0.1245
     50  CA       104.7820   88.1180    8.1190 C.3   197  GLU197      0.1567
     51  C        103.8520   86.9990    7.6140 C.2   197  GLU197      0.2260
     52  O        103.5590   86.0560    8.3510 O.2   197  GLU197     -0.2867
     53  CB       106.2350   87.7000    7.8500 C.3   197  GLU197      0.0388
     54  CG       107.2310   87.8990    8.9970 C.3   197  GLU197      0.1160
     55  CD       108.7170   87.7690    8.5940 C.2   197  GLU197      0.3649
     56  OE1      109.6160   87.6950    9.5090 O.co2 197  GLU197     -0.2457
     57  OE2      108.9920   87.7590    7.3580 O.co2 197  GLU197     -0.2457
     58  N        103.5360   84.6630    4.0660 N.3   199  TYR199     -0.1241
     59  CA       103.8450   84.2440    2.7080 C.3   199  TYR199      0.1605
     60  C        102.5780   83.9080    1.9310 C.2   199  TYR199      0.2264
     61  O        101.8620   82.9900    2.2590 O.2   199  TYR199     -0.2867
     62  CB       104.8670   83.1230    2.7420 C.3   199  TYR199      0.0534
     63  CG       106.0730   83.6340    3.4340 C.ar  199  TYR199     -0.0201
     64  CD1      106.0660   83.8400    4.7910 C.ar  199  TYR199     -0.0009
     65  CD2      107.1830   84.0130    2.7310 C.ar  199  TYR199     -0.0009
     66  CE1      107.1520   84.3650    5.4470 C.ar  199  TYR199      0.0417
     67  CE2      108.2860   84.5500    3.3790 C.ar  199  TYR199      0.0417
     68  CZ       108.2600   84.7220    4.7420 C.ar  199  TYR199      0.1957
     69  OH       109.3440   85.2570    5.3990 O.3   199  TYR199     -0.2866
     70  N        112.9180   79.8230    2.0950 N.3   235  VAL235     -0.1231
     71  CA       112.7150   80.9030    3.0240 C.3   235  VAL235      0.1692
     72  C        113.3850   80.6880    4.3640 C.2   235  VAL235      0.2592
     73  O        113.9800   81.5920    4.9040 O.2   235  VAL235     -0.2718
     74  CB       111.2600   81.1260    3.2300 C.3   235  VAL235      0.0266
     75  CG1      111.0520   82.1180    4.3440 C.3   235  VAL235      0.0020
     76  CG2      110.6440   81.6190    1.9440 C.3   235  VAL235      0.0020
     77  N        113.3060   79.4810    4.8800 N.am  236  THR236     -0.1953
     78  CA       113.7940   79.1810    6.2170 C.3   236  THR236      0.1897
     79  C        115.3070   79.1460    6.4010 C.2   236  THR236      0.2313
     80  O        115.8320   79.6120    7.4130 O.2   236  THR236     -0.2863
     81  CB       113.2780   77.8320    6.5970 C.3   236  THR236      0.1794
     82  OG1      113.0620   77.0750    5.3990 O.3   236  THR236     -0.2208
     83  CG2      111.9090   77.9650    7.1650 C.3   236  THR236      0.0378
     84  N        118.1880   80.3260    6.4220 N.3   238  CYS238     -0.1221
     85  CA       119.1710   81.1080    7.1400 C.3   238  CYS238      0.1808
     86  C        118.8690   81.3090    8.5910 C.2   238  CYS238      0.2601
     87  O        119.7010   81.8750    9.3030 O.2   238  CYS238     -0.2717
     88  CB       119.4100   82.4520    6.4740 C.3   238  CYS238      0.0970
     89  SG       119.9510   82.2660    4.7750 S.3   238  CYS238     -0.0800
     90  N        117.6940   80.8720    9.0420 N.am  239  LEU239     -0.1979
     91  CA       117.4970   80.7480   10.4820 C.3   239  LEU239      0.1596
     92  C        117.9650   79.3840   10.9040 C.2   239  LEU239      0.2287
     93  O        118.2360   79.1760   12.0820 O.2   239  LEU239     -0.2864
     94  CB       116.0770   81.0240   10.9770 C.3   239  LEU239      0.0297
     95  CG       114.7910   81.0850   10.1700 C.3   239  LEU239      0.0022
     96  CD1      113.6880   81.4210   11.1360 C.3   239  LEU239      0.0001
     97  CD2      114.8170   82.1400    9.1090 C.3   239  LEU239      0.0001
     98  N        124.5340   85.1170    8.2130 N.3   245  LEU245     -0.1245
     99  CA       123.4870   86.0390    8.6060 C.3   245  LEU245      0.1561
    100  C        123.4990   86.0800   10.1310 C.2   245  LEU245      0.2260
    101  O        124.5500   86.1060   10.7510 O.2   245  LEU245     -0.2867
    102  CB       122.1580   85.5330    8.0630 C.3   245  LEU245      0.0270
    103  CG       121.4890   86.5610    7.1650 C.3   245  LEU245      0.0019
    104  CD1      119.9880   86.5450    7.3560 C.3   245  LEU245      0.0001
    105  CD2      122.0510   87.9520    7.4540 C.3   245  LEU245      0.0001
    106  N        114.5540   86.4260   13.2740 N.3   249  LEU249     -0.1245
    107  CA       113.1260   86.2790   12.9870 C.3   249  LEU249      0.1561
    108  C        112.3910   87.5670   13.2910 C.2   249  LEU249      0.2260
    109  O        111.5830   88.0340   12.4820 O.2   249  LEU249     -0.2867
    110  CB       112.4770   85.0510   13.6550 C.3   249  LEU249      0.0270
    111  CG       111.0860   84.5500   13.1850 C.3   249  LEU249      0.0019
    112  CD1      110.9580   84.1680   11.7080 C.3   249  LEU249      0.0001
    113  CD2      110.6730   83.3780   13.9980 C.3   249  LEU249      0.0001
    114  N        114.6410   89.9000   11.3030 N.3   252  LEU252     -0.1245
    115  CA       114.1170   89.5420    9.9930 C.3   252  LEU252      0.1561
    116  C        112.8110   90.2550    9.6020 C.2   252  LEU252      0.2260
    117  O        112.6870   90.7010    8.4470 O.2   252  LEU252     -0.2867
    118  CB       113.9970   88.0240    9.8480 C.3   252  LEU252      0.0270
    119  CG       115.0630   87.4180    8.9300 C.3   252  LEU252      0.0019
    120  CD1      116.4720   87.8690    9.2890 C.3   252  LEU252      0.0001
    121  CD2      114.9800   85.9240    8.9520 C.3   252  LEU252      0.0001
    122  N        113.0120   94.3270    9.4010 N.3   255  ASN255     -0.1225
    123  CA       113.7350   94.7980    8.2220 C.3   255  ASN255      0.1785
    124  C        113.0160   94.4970    6.9150 C.2   255  ASN255      0.2597
    125  O        113.5160   94.8110    5.8160 O.2   255  ASN255     -0.2718
    126  CB       115.1550   94.2050    8.2130 C.3   255  ASN255      0.1169
    127  CG       116.1970   95.1540    8.8220 C.2   255  ASN255      0.2627
    128  OD1      117.0240   94.7740    9.6760 O.2   255  ASN255     -0.2716
    129  ND2      116.1540   96.4060    8.3760 N.am  255  ASN255     -0.0877
    130  N        111.8370   93.8880    7.0630 N.am  256  MET256     -0.1979
    131  CA       110.9810   93.4510    5.9530 C.3   256  MET256      0.1605
    132  C        109.6270   94.1590    5.8930 C.2   256  MET256      0.2287
    133  O        108.9940   94.1940    4.8390 O.2   256  MET256     -0.2864
    134  CB       110.7370   91.9440    6.0200 C.3   256  MET256      0.0413
    135  CG       111.5990   91.1050    5.0990 C.3   256  MET256      0.0598
    136  SD       111.9920   91.9310    3.5420 S.3   256  MET256     -0.1393
    137  CE       110.4910   91.6930    2.5450 C.3   256  MET256      0.0692
    138  N        113.9910   90.6390   -0.2810 N.3   305  ALA305     -0.1231
    139  CA       115.1070   89.7840    0.1220 C.3   305  ALA305      0.1694
    140  C        115.2500   88.6290   -0.8460 C.2   305  ALA305      0.2592
    141  O        114.2520   88.0660   -1.2520 O.2   305  ALA305     -0.2718
    142  CB       114.8820   89.2620    1.5080 C.3   305  ALA305      0.0304
    143  N        116.4760   88.2850   -1.2310 N.am  306  ALA306     -0.1966
    144  CA       116.7370   87.0360   -1.9500 C.3   306  ALA306      0.1728
    145  C        117.7590   86.1930   -1.1870 C.2   306  ALA306      0.2616
    146  O        118.6990   86.7240   -0.5980 O.2   306  ALA306     -0.2715
    147  CB       117.2000   87.3050   -3.3600 C.3   306  ALA306      0.0334
    148  N        117.5720   84.8810   -1.1590 N.am  307  VAL307     -0.1977
    149  CA       118.5640   84.0370   -0.5200 C.3   307  VAL307      0.1596
    150  C        119.1010   83.0310   -1.5280 C.2   307  VAL307      0.2287
    151  O        118.3200   82.3010   -2.1510 O.2   307  VAL307     -0.2864
    152  CB       118.0240   83.3730    0.7500 C.3   307  VAL307      0.0276
    153  CG1      116.5670   83.6140    0.8920 C.3   307  VAL307      0.0022
    154  CG2      118.2690   81.9080    0.7410 C.3   307  VAL307      0.0022
    155  N        118.2900   93.8140    0.0540 N.3   341  LYS341     -0.1231
    156  CA       119.4460   93.1190    0.6090 C.3   341  LYS341      0.1693
    157  C        119.3450   91.6260    0.2930 C.2   341  LYS341      0.2593
    158  O        118.2370   91.0970    0.1980 O.2   341  LYS341     -0.2718
    159  CB       119.5750   93.3560    2.1360 C.3   341  LYS341      0.0285
    160  CG       119.5190   94.8400    2.6120 C.3   341  LYS341      0.0035
    161  CD       120.9070   95.4650    2.8420 C.3   341  LYS341      0.0206
    162  CE       120.8090   96.7630    3.6220 C.3   341  LYS341      0.1093
    163  NZ       122.1160   97.0940    4.2170 N.3   341  LYS341     -0.1314
    164  N        120.5020   90.9710    0.1110 N.am  342  THR342     -0.1939
    165  CA       120.5900   89.5320   -0.1930 C.3   342  THR342      0.2028
    166  C        121.6230   88.8440    0.6380 C.2   342  THR342      0.2642
    167  O        122.5740   89.4620    1.1000 O.2   342  THR342     -0.2714
    168  CB       120.9460   89.2530   -1.6730 C.3   342  THR342      0.1808
    169  OG1      121.9730   90.1520   -2.1220 O.3   342  THR342     -0.2208
    170  CG2      119.7560   89.5390   -2.5810 C.3   342  THR342      0.0379
    171  N        121.4330   87.5480    0.8020 N.am  343  ALA343     -0.1977
    172  CA       122.4310   86.7410    1.4460 C.3   343  ALA343      0.1597
    173  C        122.5170   85.3500    0.8130 C.2   343  ALA343      0.2287
    174  O        121.5740   84.8970    0.1460 O.2   343  ALA343     -0.2864
    175  CB       122.1830   86.6810    2.9380 C.3   343  ALA343      0.0319
    176  N        111.8590   86.3110   -1.4130 N.3   359  ILE359     -0.1245
    177  CA       110.8210   86.8800   -0.5610 C.3   359  ILE359      0.1561
    178  C        110.5450   88.3120   -1.0250 C.2   359  ILE359      0.2260
    179  O        111.4650   89.1200   -1.0530 O.2   359  ILE359     -0.2867
    180  CB       111.3830   86.9510    0.8400 C.3   359  ILE359      0.0252
    181  CG1      111.2890   85.6060    1.5050 C.3   359  ILE359      0.0019
    182  CG2      110.6700   87.9990    1.6680 C.3   359  ILE359      0.0019
    183  CD1      111.9370   85.6140    2.8280 C.3   359  ILE359      0.0001
@<TRIPOS>BOND
     1   147   144    1
     2   170   168    1
     3   151   150    2
     4   169   168    1
     5   144   143    1
     6   144   145    1
     7   168   165    1
     8   150   149    1
     9   176   177    1
    10   141   140    2
    11   143   140   am
    12   145   148   am
    13   145   146    2
    14   148   149    1
    15   179   178    2
    16   178   177    1
    17   140   139    1
    18   177   180    1
    19   149   152    1
    20   138   139    1
    21   165   164    1
    22   165   166    1
    23   155   156    1
    24   164   157   am
    25   139   142    1
    26   174   173    2
    27   158   157    2
    28   157   156    1
    29   156   159    1
    30   166   171   am
    31   166   167    2
    32   154   152    1
    33   152   153    1
    34   171   172    1
    35   173   172    1
    36   180   181    1
    37   180   182    1
    38   172   175    1
    39   181   183    1
    40    60    61    2
    41    60    59    1
    42    76    74    1
    43    70    71    1
    44   159   160    1
    45   137   136    1
    46   160   161    1
    47    59    62    1
    48    59    58    1
    49    65    67   ar
    50    65    63   ar
    51    62    63    1
    52   161   162    1
    53    71    74    1
    54    71    72    1
    55    74    75    1
    56    67    68   ar
    57    63    64   ar
    58   136   135    1
    59   162   163    1
    60    45    47   ar
    61    45    43   ar
    62    72    77   am
    63    72    73    2
    64    42    39    1
    65    42    43    1
    66    47    48   ar
    67    40    39    1
    68    40    41    2
    69    68    69    1
    70    68    66   ar
    71    89    88    1
    72    64    66   ar
    73   133   132    2
    74    39    38    1
    75    77    78    1
    76    43    44   ar
    77   135   134    1
    78    82    81    1
    79    48    46   ar
    80   125   124    2
    81   132   131    1
    82   131   134    1
    83   131   130    1
    84    44    46   ar
    85    78    79    1
    86    78    81    1
    87    79    80    2
    88    84    85    1
    89    88    85    1
    90    81    83    1
    91   124   130   am
    92   124   123    1
    93    85    86    1
    94   103   104    1
    95   103   105    1
    96   103   102    1
    97    57    55   ar
    98    51    50    1
    99    51    52    2
   100    53    50    1
   101    53    54    1
   102   102    99    1
   103    50    49    1
   104   126   123    1
   105   126   127    1
   106    98    99    1
   107   123   122    1
   108   129   127   am
   109   117   116    2
   110    86    90   am
   111    86    87    2
   112    55    54    1
   113    55    56   ar
   114    99   100    1
   115   127   128    2
   116   119   121    1
   117   119   120    1
   118   119   118    1
   119    90    91    1
   120    97    95    1
   121    28    27    2
   122   116   115    1
   123    36    35    2
   124    29    27   am
   125   118   115    1
   126   115   114    1
   127    32    33    2
   128    32    31    1
   129    27    26    1
   130   100   101    2
   131    95    94    1
   132    95    96    1
   133    20    19    1
   134    91    92    1
   135    91    94    1
   136    35    34    1
   137    35    37   am
   138    31    34    1
   139    31    30    1
   140    19    18   ar
   141    19    17   ar
   142    92    93    2
   143    18    16   ar
   144    25    26    1
   145    25    22    1
   146    17    15   ar
   147    16    14   ar
   148   112   111    1
   149    15    14   ar
   150    23    22    1
   151    23    24    2
   152    14    13    1
   153    22    21    1
   154   109   108    2
   155    13    10    1
   156   107   106    1
   157   107   108    1
   158   107   110    1
   159     8     6    1
   160   111   110    1
   161   111   113    1
   162    10     9    1
   163    10    11    1
   164     6     5    1
   165    12    11    2
   166     7     5    1
   167     5     2    1
   168     4     3    2
   169     3     2    1
   170     2     1    1
