@<TRIPOS>MOLECULE
tmp/3n2iB00.pdb
 149 141 0 0 0
SMALL
GASTEIGER

@<TRIPOS>ATOM
      1  N         11.1880    0.3070   25.4850 N.3    11  GLU11      -0.1245
      2  CA        10.1370    0.1780   24.5140 C.3    11  GLU11       0.1567
      3  C          8.8820    0.5420   25.2450 C.2    11  GLU11       0.2260
      4  O          8.7110    0.1550   26.4030 O.2    11  GLU11      -0.2867
      5  CB        10.0080   -1.2500   24.0100 C.3    11  GLU11       0.0388
      6  CG         9.4360   -1.3000   22.6060 C.3    11  GLU11       0.1160
      7  CD        10.4190   -0.7980   21.5460 C.2    11  GLU11       0.3649
      8  OE1        9.9600   -0.3920   20.4630 O.co2  11  GLU11      -0.2457
      9  OE2       11.6390   -0.7780   21.8020 O.co2  11  GLU11      -0.2457
     10  N         16.7390    1.2150   14.7420 N.3    39  GLU39      -0.1231
     11  CA        17.7020    0.1320   14.9690 C.3    39  GLU39       0.1684
     12  C         17.2210   -0.9730   15.9350 C.2    39  GLU39       0.2438
     13  O         16.3890   -0.7400   16.8180 O.2    39  GLU39      -0.2733
     14  CB        19.0180    0.6580   15.5010 C.3    39  GLU39       0.0402
     15  CG        19.7630    1.6250   14.5880 C.3    39  GLU39       0.1161
     16  CD        21.0830    2.0810   15.2070 C.2    39  GLU39       0.3649
     17  OE1       21.6400    1.3570   16.0790 O.co2  39  GLU39      -0.2457
     18  OE2       21.5820    3.1570   14.8160 O.co2  39  GLU39      -0.2457
     19  N         17.6750   -2.2210   15.7180 N.am   40  PRO40      -0.2653
     20  CA        18.4750   -2.5620   14.6070 C.3    40  PRO40       0.1628
     21  C         17.5420   -2.4940   13.4060 C.2    40  PRO40       0.2315
     22  O         16.3310   -2.7170   13.5280 O.2    40  PRO40      -0.2861
     23  CB        18.8640   -4.0170   14.8400 C.2    40  PRO40      -0.0016
     24  CG        18.2500   -4.4870   16.0240 C.2    40  PRO40      -0.0072
     25  CD        17.4980   -3.3310   16.6610 C.3    40  PRO40       0.1203
     26  N         17.4830   -7.7110   12.6490 N.3    50  ARG50      -0.1245
     27  CA        16.4240   -7.3680   13.6180 C.3    50  ARG50       0.1563
     28  C         15.4910   -8.5550   13.9300 C.2    50  ARG50       0.2260
     29  O         15.2000   -8.8140   15.1090 O.2    50  ARG50      -0.2867
     30  CB        15.5770   -6.2360   13.0550 C.3    50  ARG50       0.0307
     31  CG        14.3920   -5.8380   13.9110 C.3    50  ARG50       0.0489
     32  CD        13.6040   -4.7060   13.2980 C.3    50  ARG50       0.2205
     33  NE        12.5850   -4.1960   14.2300 N.pl3  50  ARG50      -0.0865
     34  CZ        12.8250   -3.2740   15.1720 C.cat  50  ARG50       0.5346
     35  NH1       14.0430   -2.7540   15.3260 N.pl3  50  ARG50       0.1354
     36  NH2       11.8470   -2.8580   15.9750 N.pl3  50  ARG50       0.1354
     37  N         17.2050  -11.1330   15.9660 N.3    53  VAL53      -0.1231
     38  CA        17.2940  -10.6670   17.3680 C.3    53  VAL53       0.1692
     39  C         15.9070  -10.6640   18.0810 C.2    53  VAL53       0.2591
     40  O         15.7960  -11.0680   19.2310 O.2    53  VAL53      -0.2718
     41  CB        17.8920   -9.2260   17.4940 C.3    53  VAL53       0.0266
     42  CG1       17.7280   -8.6990   18.9390 C.3    53  VAL53       0.0020
     43  CG2       19.3680   -9.1720   17.0730 C.3    53  VAL53       0.0020
     44  N         14.8600  -10.2270   17.3940 N.am   54  LYS54      -0.1980
     45  CA        13.5200  -10.1440   17.9990 C.3    54  LYS54       0.1596
     46  C         12.8040  -11.4710   18.1680 C.2    54  LYS54       0.2287
     47  O         12.0420  -11.6530   19.1160 O.2    54  LYS54      -0.2864
     48  CB        12.6270   -9.1910   17.1980 C.3    54  LYS54       0.0298
     49  CG        13.0350   -7.7260   17.3740 C.3    54  LYS54       0.0038
     50  CD        12.1390   -6.7360   16.6190 C.3    54  LYS54       0.0206
     51  CE        10.6550   -6.8770   16.9660 C.3    54  LYS54       0.1093
     52  NZ        10.3740   -6.8480   18.4230 N.3    54  LYS54      -0.1314
     53  N         23.3850   -6.8800   17.0720 N.3    71  VAL71      -0.1245
     54  CA        22.9340   -5.4590   17.0290 C.3    71  VAL71       0.1561
     55  C         24.0620   -4.5390   16.5160 C.2    71  VAL71       0.2260
     56  O         23.7980   -3.5580   15.8060 O.2    71  VAL71      -0.2867
     57  CB        22.3480   -4.9470   18.3540 C.3    71  VAL71       0.0252
     58  CG1       21.2480   -5.9200   18.8470 C.3    71  VAL71       0.0019
     59  CG2       23.3880   -4.8450   19.3680 C.3    71  VAL71       0.0019
     60  N         24.1270   -2.2890   13.1710 N.3    75  ARG75      -0.1245
     61  CA        24.5070   -0.9000   13.3230 C.3    75  ARG75       0.1563
     62  C         25.5690   -0.4950   12.3550 C.2    75  ARG75       0.2260
     63  O         25.4280    0.5360   11.7490 O.2    75  ARG75      -0.2867
     64  CB        24.9550   -0.6100   14.7610 C.3    75  ARG75       0.0307
     65  CG        25.2310    0.8650   15.0650 C.3    75  ARG75       0.0489
     66  CD        25.2280    1.2210   16.5850 C.3    75  ARG75       0.2205
     67  NE        23.9570    0.8180   17.1960 N.pl3  75  ARG75      -0.0865
     68  CZ        23.8000   -0.0590   18.1830 C.cat  75  ARG75       0.5346
     69  NH1       24.8350   -0.5680   18.8630 N.pl3  75  ARG75       0.1354
     70  NH2       22.5700   -0.3400   18.5800 N.pl3  75  ARG75       0.1354
     71  N         16.5240    4.7220   18.2480 N.3    97  ARG97      -0.1231
     72  CA        17.5600    3.9190   18.9100 C.3    97  ARG97       0.1694
     73  C         18.9220    3.9770   18.2410 C.2    97  ARG97       0.2592
     74  O         19.0310    4.0540   17.0280 O.2    97  ARG97      -0.2718
     75  CB        17.1910    2.4270   19.0660 C.3    97  ARG97       0.0321
     76  CG        15.9960    2.1740   19.9560 C.3    97  ARG97       0.0489
     77  CD        15.8200    0.6710   20.2180 C.3    97  ARG97       0.2205
     78  NE        14.6760    0.4240   21.0870 N.pl3  97  ARG97      -0.0865
     79  CZ        14.6800    0.5600   22.4070 C.cat  97  ARG97       0.5346
     80  NH1       13.5920    0.3100   23.0710 N.pl3  97  ARG97       0.1354
     81  NH2       15.7620    0.9410   23.0640 N.pl3  97  ARG97       0.1354
     82  N         19.9610    3.9190   19.0430 N.am   98  HIS98      -0.1976
     83  CA        21.3170    3.8910   18.4940 C.3    98  HIS98       0.1656
     84  C         22.2090    3.1840   19.5470 C.2    98  HIS98       0.2291
     85  O         21.7350    2.2990   20.2720 O.2    98  HIS98      -0.2864
     86  CB        21.8020    5.2780   17.9740 C.3    98  HIS98       0.0771
     87  CG        23.1530    5.2520   17.3040 C.ar   98  HIS98       0.0820
     88  ND1       23.3740    4.6470   16.0820 N.ar   98  HIS98      -0.2267
     89  CD2       24.3430    5.7830   17.6720 C.ar   98  HIS98       0.1154
     90  CE1       24.6440    4.7870   15.7410 C.ar   98  HIS98       0.1986
     91  NE2       25.2590    5.4630   16.6930 N.ar   98  HIS98      -0.2212
     92  N         21.3280    2.3170   23.2680 N.3   101  SER101     -0.1202
     93  CA        20.4880    1.1190   23.4730 C.3   101  SER101      0.2020
     94  C         21.3210   -0.1200   23.7470 C.2   101  SER101      0.2619
     95  O         20.8920   -1.0010   24.5240 O.2   101  SER101     -0.2717
     96  CB        19.5590    0.7970   22.2550 C.3   101  SER101      0.2103
     97  OG        18.5710    1.7780   22.0520 O.3   101  SER101     -0.2182
     98  N         22.4570   -0.2760   23.0690 N.am  102  SER102     -0.1951
     99  CA        23.2990   -1.4400   23.3760 C.3   102  SER102      0.1924
    100  C         23.8470   -1.2570   24.7980 C.2   102  SER102      0.2314
    101  O         23.8590   -2.1970   25.6030 O.2   102  SER102     -0.2863
    102  CB        24.3970   -1.6750   22.3380 C.3   102  SER102      0.2116
    103  OG        23.8160   -1.9290   21.0440 O.3   102  SER102     -0.2180
    104  N         20.6920   -1.9470   27.2000 N.3   105  TYR105     -0.1227
    105  CA        20.2030   -3.3260   27.1590 C.3   105  TYR105      0.1736
    106  C         21.2540   -4.4240   27.3030 C.2   105  TYR105      0.2595
    107  O         21.0550   -5.3910   28.0950 O.2   105  TYR105     -0.2718
    108  CB        19.4230   -3.5600   25.8720 C.3   105  TYR105      0.0548
    109  CG        18.0390   -2.9310   25.8200 C.ar  105  TYR105     -0.0200
    110  CD1       16.8880   -3.7280   25.8700 C.ar  105  TYR105     -0.0009
    111  CD2       17.8790   -1.5620   25.7760 C.ar  105  TYR105     -0.0009
    112  CE1       15.5950   -3.1620   25.8450 C.ar  105  TYR105      0.0417
    113  CE2       16.6090   -0.9770   25.7570 C.ar  105  TYR105      0.0417
    114  CZ        15.4670   -1.7780   25.7910 C.ar  105  TYR105      0.1957
    115  OH        14.2190   -1.1870   25.7360 O.3   105  TYR105     -0.2866
    116  N         22.3200   -4.3520   26.4950 N.am  106  GLN106     -0.1979
    117  CA        23.3540   -5.3740   26.5580 C.3   106  GLN106      0.1601
    118  C         24.2520   -5.1190   27.7490 C.2   106  GLN106      0.2287
    119  O         24.6490   -6.0600   28.4030 O.2   106  GLN106     -0.2864
    120  CB        24.1550   -5.5060   25.2450 C.3   106  GLN106      0.0394
    121  CG        23.4100   -6.2660   24.1280 C.3   106  GLN106      0.0908
    122  CD        22.0990   -5.6160   23.7470 C.2   106  GLN106      0.2608
    123  OE1       22.0550   -4.4570   23.3040 O.2   106  GLN106     -0.2717
    124  NE2       21.0240   -6.3820   23.8510 N.am  106  GLN106     -0.0878
    125  N          8.4820   -9.2930   22.0120 N.3   154  ASP154     -0.1239
    126  CA         9.6000  -10.0470   21.4460 C.3   154  ASP154      0.1674
    127  C         10.3910  -10.8060   22.5300 C.2   154  ASP154      0.2266
    128  O         10.0510  -10.7390   23.7340 O.2   154  ASP154     -0.2867
    129  CB        10.4890   -9.1280   20.5800 C.3   154  ASP154      0.1410
    130  CG        11.2310   -8.0670   21.3680 C.2   154  ASP154      0.3668
    131  OD1       11.5490   -8.2460   22.5670 O.co2 154  ASP154     -0.2456
    132  OD2       11.5410   -7.0310   20.7560 O.co2 154  ASP154     -0.2456
    133  N         13.2080  -10.3040   23.8880 N.3   156  ILE156     -0.1231
    134  CA        13.7790   -9.4000   24.8780 C.3   156  ILE156      0.1692
    135  C         12.7270   -8.7310   25.7360 C.2   156  ILE156      0.2591
    136  O         12.9340   -8.5460   26.9280 O.2   156  ILE156     -0.2718
    137  CB        14.6150   -8.3160   24.2050 C.3   156  ILE156      0.0266
    138  CG1       15.8270   -8.9500   23.5410 C.3   156  ILE156      0.0019
    139  CG2       15.0690   -7.3140   25.2200 C.3   156  ILE156      0.0020
    140  CD1       16.6850   -7.9960   22.7080 C.3   156  ILE156      0.0001
    141  N         11.6000   -8.3720   25.1320 N.am  157  GLU157     -0.1979
    142  CA        10.5100   -7.7590   25.8840 C.3   157  GLU157      0.1602
    143  C          9.9050   -8.7240   26.9060 C.2   157  GLU157      0.2287
    144  O          9.1350   -8.2780   27.7420 O.2   157  GLU157     -0.2864
    145  CB         9.4520   -7.1680   24.9360 C.3   157  GLU157      0.0415
    146  CG        10.0200   -5.9510   24.1730 C.3   157  GLU157      0.1163
    147  CD         9.2720   -5.5540   22.8940 C.2   157  GLU157      0.3649
    148  OE1        9.3930   -4.3770   22.5580 O.co2 157  GLU157     -0.2457
    149  OE2        8.6130   -6.3690   22.1950 O.co2 157  GLU157     -0.2457
@<TRIPOS>BOND
     1    63    62    2
     2    62    61    1
     3    26    27    1
     4    30    27    1
     5    30    31    1
     6    60    61    1
     7    32    31    1
     8    32    33    1
     9    61    64    1
    10    21    22    2
    11    21    20    1
    12    27    28    1
    13    28    29    2
    14    33    34    2
    15    15    16    1
    16    15    14    1
    17    20    23    1
    18    20    19    1
    19    10    11    1
    20    64    65    1
    21    18    16   ar
    22    23    24    2
    23    11    14    1
    24    11    12    1
    25    65    66    1
    26    34    35    1
    27    34    36    1
    28    16    17   ar
    29    19    12   am
    30    19    25    1
    31    90    88   ar
    32    90    91   ar
    33    56    55    2
    34    12    13    2
    35    37    38    1
    36    24    25    1
    37    88    87   ar
    38    55    54    1
    39    66    67    1
    40    50    51    1
    41    50    49    1
    42    91    89   ar
    43    51    52    1
    44    74    73    2
    45    54    53    1
    46    54    57    1
    47    43    41    1
    48    67    68    2
    49    48    49    1
    50    48    45    1
    51    87    89   ar
    52    87    86    1
    53    38    41    1
    54    38    39    1
    55    44    45    1
    56    44    39   am
    57    41    42    1
    58    86    83    1
    59    45    46    1
    60    39    40    2
    61    46    47    2
    62    68    70    1
    63    68    69    1
    64    73    72    1
    65    73    82   am
    66    71    72    1
    67    57    58    1
    68    57    59    1
    69    83    82    1
    70    83    84    1
    71    72    75    1
    72    75    76    1
    73    84    85    2
    74    76    77    1
    75    77    78    1
    76     8     7   ar
    77   129   130    1
    78   129   126    1
    79   132   130   ar
    80   103   102    1
    81    78    79    2
    82   130   131   ar
    83   126   125    1
    84   126   127    1
    85     7     9   ar
    86     7     6    1
    87    97    96    1
    88   149   147   ar
    89    96    93    1
    90   102    99    1
    91    79    81    1
    92    79    80    1
    93   127   128    2
    94   148   147   ar
    95     6     5    1
    96   140   138    1
    97   147   146    1
    98    98    99    1
    99    98    94   am
   100    92    93    1
   101   123   122    2
   102    99   100    1
   103    93    94    1
   104   138   137    1
   105   122   124   am
   106   122   121    1
   107    94    95    2
   108   133   134    1
   109     5     2    1
   110   121   120    1
   111   146   145    1
   112   137   134    1
   113   137   139    1
   114     2     3    1
   115     2     1    1
   116   100   101    2
   117   134   135    1
   118   145   142    1
   119   141   135   am
   120   141   142    1
   121     3     4    2
   122   120   117    1
   123   135   136    2
   124   115   114    1
   125   113   111   ar
   126   113   114   ar
   127   111   109   ar
   128   114   112   ar
   129   109   110   ar
   130   109   108    1
   131   112   110   ar
   132   108   105    1
   133   142   143    1
   134   116   117    1
   135   116   106   am
   136   117   118    1
   137   143   144    2
   138   105   104    1
   139   105   106    1
   140   106   107    2
   141   118   119    2
