@<TRIPOS>MOLECULE
tmp/3n2mA01.pdb
 124 121 0 0 0
SMALL
GASTEIGER

@<TRIPOS>ATOM
      1  N        -14.8590   14.6410  -46.8810 N.3     6  GLY6       -0.1225
      2  CA       -15.6670   13.9280  -45.8920 C.3     6  GLY6        0.1811
      3  C        -15.5580   12.4090  -45.9090 C.2     6  GLY6        0.2280
      4  O        -16.1370   11.7370  -45.0490 O.2     6  GLY6       -0.2866
      5  N        -12.8700   10.2100  -45.6300 N.3     8  MET8       -0.1230
      6  CA       -11.5790    9.7030  -45.1870 C.3     8  MET8        0.1702
      7  C        -11.4230    9.9350  -43.6900 C.2     8  MET8        0.2593
      8  O        -11.9870   10.8890  -43.1490 O.2     8  MET8       -0.2718
      9  CB       -10.4580   10.4420  -45.9100 C.3     8  MET8        0.0401
     10  CG       -10.5430   11.9360  -45.7180 C.3     8  MET8        0.0596
     11  SD        -9.1750   12.8100  -46.4600 S.3     8  MET8       -0.1393
     12  CE        -8.9210   11.9420  -47.9950 C.3     8  MET8        0.0692
     13  N        -10.6390    9.0870  -43.0330 N.am    9  GLY9       -0.1942
     14  CA       -10.4380    9.2280  -41.6040 C.3     9  GLY9        0.2014
     15  C         -9.6090   10.4510  -41.2480 C.2     9  GLY9        0.2638
     16  O         -8.8330   10.9580  -42.0730 O.2     9  GLY9       -0.2714
     17  N         -9.7300   10.8980  -39.9980 N.am   10  PHE10      -0.1973
     18  CA        -9.0860   12.1440  -39.5800 C.3    10  PHE10       0.1639
     19  C         -7.5710   12.1290  -39.7010 C.2    10  PHE10       0.2290
     20  O         -6.9900   13.1760  -39.9880 O.2    10  PHE10      -0.2864
     21  CB        -9.4800   12.4780  -38.1410 C.3    10  PHE10       0.0560
     22  CG        -9.1690   13.8880  -37.7130 C.ar   10  PHE10      -0.0200
     23  CD1       -9.3050   14.9520  -38.6020 C.ar   10  PHE10      -0.0042
     24  CD2       -8.8160   14.1490  -36.3920 C.ar   10  PHE10      -0.0042
     25  CE1       -9.0390   16.2600  -38.1670 C.ar   10  PHE10      -0.0003
     26  CE2       -8.5780   15.4590  -35.9480 C.ar   10  PHE10      -0.0003
     27  CZ        -8.7010   16.4990  -36.8520 C.ar   10  PHE10      -0.0000
     28  N         -6.9970   13.1020  -43.3260 N.3    13  LYS13      -0.1245
     29  CA        -7.4160   14.4880  -43.5290 C.3    13  LYS13       0.1561
     30  C         -6.3770   15.4600  -42.9680 C.2    13  LYS13       0.2260
     31  O         -5.9980   16.4250  -43.6370 O.2    13  LYS13      -0.2867
     32  CB        -8.8040   14.7000  -42.8930 C.3    13  LYS13       0.0271
     33  CG        -9.5030   15.9980  -43.2790 C.3    13  LYS13       0.0035
     34  CD       -10.8040   16.1820  -42.4670 C.3    13  LYS13       0.0206
     35  CE       -11.4620   17.5140  -42.7930 C.3    13  LYS13       0.1093
     36  NZ       -12.8150   17.5670  -42.1550 N.3    13  LYS13      -0.1314
     37  N        -17.0720   22.2070  -42.6220 N.3   134  TYR134     -0.1241
     38  CA       -17.1550   20.9280  -43.3400 C.3   134  TYR134      0.1605
     39  C        -17.1350   21.1570  -44.8490 C.2   134  TYR134      0.2264
     40  O        -16.4280   20.4590  -45.5840 O.2   134  TYR134     -0.2867
     41  CB       -18.4110   20.1710  -42.9330 C.3   134  TYR134      0.0534
     42  CG       -18.5430   18.7910  -43.5570 C.ar  134  TYR134     -0.0201
     43  CD1      -18.0540   17.6670  -42.8900 C.ar  134  TYR134     -0.0009
     44  CD2      -19.2180   18.6120  -44.7630 C.ar  134  TYR134     -0.0009
     45  CE1      -18.2200   16.3920  -43.4200 C.ar  134  TYR134      0.0417
     46  CE2      -19.3690   17.3310  -45.3160 C.ar  134  TYR134      0.0417
     47  CZ       -18.8660   16.2430  -44.6310 C.ar  134  TYR134      0.1957
     48  OH       -19.0000   14.9630  -45.1440 O.3   134  TYR134     -0.2866
     49  N        -20.2440   13.9940  -33.4170 N.3   161  PHE161     -0.1241
     50  CA       -19.8250   13.2950  -34.6370 C.3   161  PHE161      0.1605
     51  C        -20.8850   13.0860  -35.7160 C.2   161  PHE161      0.2264
     52  O        -20.5330   12.9080  -36.8970 O.2   161  PHE161     -0.2867
     53  CB       -19.1060   11.9830  -34.2750 C.3   161  PHE161      0.0534
     54  CG       -17.8470   12.2050  -33.4870 C.ar  161  PHE161     -0.0203
     55  CD1      -16.7330   12.7560  -34.1000 C.ar  161  PHE161     -0.0042
     56  CD2      -17.7880   11.8790  -32.1310 C.ar  161  PHE161     -0.0042
     57  CE1      -15.5570   12.9820  -33.3640 C.ar  161  PHE161     -0.0003
     58  CE2      -16.6280   12.1010  -31.3950 C.ar  161  PHE161     -0.0003
     59  CZ       -15.5180   12.6530  -32.0090 C.ar  161  PHE161     -0.0000
     60  N        -20.9020   16.7970  -37.2220 N.3   165  LYS165     -0.1231
     61  CA       -19.9290   16.1890  -38.1500 C.3   165  LYS165      0.1693
     62  C        -18.4820   16.6380  -37.8710 C.2   165  LYS165      0.2593
     63  O        -17.6810   16.8170  -38.8050 O.2   165  LYS165     -0.2718
     64  CB       -20.3270   16.4540  -39.6160 C.3   165  LYS165      0.0285
     65  CG       -21.7850   16.0840  -39.9230 C.3   165  LYS165      0.0035
     66  CD       -22.1130   15.7830  -41.3940 C.3   165  LYS165      0.0206
     67  CE       -21.7230   16.8900  -42.3960 C.3   165  LYS165      0.1093
     68  NZ       -22.2990   18.2680  -42.2560 N.3   165  LYS165     -0.1314
     69  N        -18.1630   16.8450  -36.5870 N.am  166  SER166     -0.1938
     70  CA       -16.8110   17.1490  -36.1680 C.3   166  SER166      0.2055
     71  C        -15.8360   16.0210  -36.4970 C.2   166  SER166      0.2643
     72  O        -16.2200   14.8330  -36.5310 O.2   166  SER166     -0.2714
     73  CB       -16.7670   17.3990  -34.6590 C.3   166  SER166      0.2130
     74  OG       -15.5000   17.9600  -34.3480 O.3   166  SER166     -0.2179
     75  N        -14.5770   16.3850  -36.7230 N.am  167  ASP167     -0.1971
     76  CA       -13.5320   15.3890  -36.9000 C.3   167  ASP167      0.1709
     77  C        -13.0460   14.8160  -35.5720 C.2   167  ASP167      0.2293
     78  O        -12.5390   13.7010  -35.5230 O.2   167  ASP167     -0.2864
     79  CB       -12.3250   15.9790  -37.6290 C.3   167  ASP167      0.1436
     80  CG       -12.6430   16.3520  -39.0620 C.2   167  ASP167      0.3671
     81  OD1      -13.3330   15.5760  -39.7750 O.co2 167  ASP167     -0.2456
     82  OD2      -12.2030   17.4420  -39.4600 O.co2 167  ASP167     -0.2456
     83  N        -18.6680    2.8670  -37.0130 N.3   191  LYS191     -0.1231
     84  CA       -17.8520    4.0530  -37.3110 C.3   191  LYS191      0.1693
     85  C        -16.8510    4.3370  -36.1830 C.2   191  LYS191      0.2592
     86  O        -17.1180    4.0600  -34.9980 O.2   191  LYS191     -0.2718
     87  CB       -18.7300    5.3070  -37.5050 C.3   191  LYS191      0.0285
     88  CG       -19.7560    5.1370  -38.6150 C.3   191  LYS191      0.0035
     89  CD       -20.6650    6.3380  -38.8440 C.3   191  LYS191      0.0206
     90  CE       -21.3430    6.1390  -40.1910 C.3   191  LYS191      0.1093
     91  NZ       -21.8220    7.3970  -40.8410 N.3   191  LYS191     -0.1314
     92  N        -15.7040    4.8840  -36.5730 N.am  192  TYR192     -0.1962
     93  CA       -14.6470    5.2280  -35.6300 C.3   192  TYR192      0.1771
     94  C        -14.3900    6.7220  -35.6840 C.2   192  TYR192      0.2619
     95  O        -14.4960    7.3360  -36.7550 O.2   192  TYR192     -0.2715
     96  CB       -13.3380    4.5270  -35.9670 C.3   192  TYR192      0.0574
     97  CG       -13.4430    3.0260  -36.0330 C.ar  192  TYR192     -0.0198
     98  CD1      -13.0430    2.2310  -34.9650 C.ar  192  TYR192     -0.0009
     99  CD2      -13.9530    2.4090  -37.1730 C.ar  192  TYR192     -0.0009
    100  CE1      -13.1350    0.8370  -35.0470 C.ar  192  TYR192      0.0417
    101  CE2      -14.0740    1.0360  -37.2570 C.ar  192  TYR192      0.0417
    102  CZ       -13.6470    0.2600  -36.2030 C.ar  192  TYR192      0.1957
    103  OH       -13.7550   -1.1090  -36.3230 O.3   192  TYR192     -0.2866
    104  N        -14.0240    7.2850  -34.5280 N.am  193  TYR193     -0.1974
    105  CA       -13.8200    8.7360  -34.4370 C.3   193  TYR193      0.1639
    106  C        -12.5660    9.0550  -33.6360 C.2   193  TYR193      0.2290
    107  O        -12.0930    8.2060  -32.8730 O.2   193  TYR193     -0.2864
    108  CB       -15.0240    9.3860  -33.7380 C.3   193  TYR193      0.0560
    109  CG       -16.3510    9.0980  -34.4190 C.ar  193  TYR193     -0.0198
    110  CD1      -16.6270    9.6130  -35.6850 C.ar  193  TYR193     -0.0009
    111  CD2      -17.3470    8.4000  -33.7460 C.ar  193  TYR193     -0.0009
    112  CE1      -17.8600    9.3610  -36.3070 C.ar  193  TYR193      0.0417
    113  CE2      -18.6020    8.1530  -34.3570 C.ar  193  TYR193      0.0417
    114  CZ       -18.8270    8.6480  -35.6350 C.ar  193  TYR193      0.1957
    115  OH       -20.0480    8.4290  -36.2380 O.3   193  TYR193     -0.2866
    116  N         -8.0520    6.8300  -37.6000 N.3   242  GLU242     -0.1245
    117  CA        -8.4770    7.7390  -36.5200 C.3   242  GLU242      0.1567
    118  C         -7.4230    7.6090  -35.4160 C.2   242  GLU242      0.2260
    119  O         -6.5140    6.7630  -35.5050 O.2   242  GLU242     -0.2867
    120  CB        -9.8640    7.3570  -35.9940 C.3   242  GLU242      0.0388
    121  CG       -10.9990    7.3310  -37.0180 C.3   242  GLU242      0.1160
    122  CD       -11.3360    8.6890  -37.6270 C.2   242  GLU242      0.3649
    123  OE1      -11.0420    9.7240  -37.0090 O.co2 242  GLU242     -0.2457
    124  OE2      -11.8760    8.7340  -38.7570 O.co2 242  GLU242     -0.2457
@<TRIPOS>BOND
     1    12    11    1
     2     1     2    1
     3    11    10    1
     4     9    10    1
     5     9     6    1
     6     3     2    1
     7     3     4    2
     8     5     6    1
     9    40    39    2
    10    46    44   ar
    11    46    47   ar
    12     6     7    1
    13    48    47    1
    14    39    38    1
    15    44    42   ar
    16    47    45   ar
    17     7     8    2
    18     7    13   am
    19    31    30    2
    20    42    41    1
    21    42    43   ar
    22    29    28    1
    23    29    30    1
    24    29    32    1
    25    45    43   ar
    26    38    41    1
    27    38    37    1
    28    33    32    1
    29    33    34    1
    30    13    14    1
    31    35    34    1
    32    35    36    1
    33    67    68    1
    34    67    66    1
    35    16    15    2
    36    14    15    1
    37    66    65    1
    38    15    17   am
    39    91    90    1
    40    90    89    1
    41    17    18    1
    42    20    19    2
    43    65    64    1
    44    81    80   ar
    45    19    18    1
    46    64    61    1
    47    18    21    1
    48    82    80   ar
    49    80    79    1
    50    89    88    1
    51    63    62    2
    52   124   122   ar
    53    88    87    1
    54    23    25   ar
    55    23    22   ar
    56    25    27   ar
    57    61    62    1
    58    61    60    1
    59    21    22    1
    60    62    69   am
    61    22    24   ar
    62    79    76    1
    63   122   121    1
    64   122   123   ar
    65   116   117    1
    66    87    84    1
    67    84    83    1
    68    84    85    1
    69   101    99   ar
    70   101   102   ar
    71    99    97   ar
    72   121   120    1
    73    76    75    1
    74    76    77    1
    75    52    51    2
    76    27    26   ar
    77    95    94    2
    78    75    71   am
    79    69    70    1
    80    92    85   am
    81    92    93    1
    82    72    71    2
    83   117   120    1
    84   117   118    1
    85    71    70    1
    86    24    26   ar
    87   103   102    1
    88   112   110   ar
    89   112   114   ar
    90   115   114    1
    91   102   100   ar
    92    85    86    2
    93    70    73    1
    94    97    96    1
    95    97    98   ar
    96    96    93    1
    97    51    50    1
    98   110   109   ar
    99    94    93    1
   100    94   104   am
   101   114   113   ar
   102    77    78    2
   103   119   118    2
   104   100    98   ar
   105    73    74    1
   106    50    53    1
   107    50    49    1
   108   104   105    1
   109   105   108    1
   110   105   106    1
   111   109   111   ar
   112   109   108    1
   113   113   111   ar
   114    53    54    1
   115    55    54   ar
   116    55    57   ar
   117   106   107    2
   118    54    56   ar
   119    57    59   ar
   120    56    58   ar
   121    59    58   ar
