@<TRIPOS>MOLECULE
tmp/3n2oA00.pdb
 154 146 0 0 0
SMALL
GASTEIGER

@<TRIPOS>ATOM
      1  N          7.9930   38.1910   61.0660 N.3    94  PRO94      -0.2116
      2  CA         6.8500   38.5750   60.2110 C.3    94  PRO94       0.1372
      3  C          6.3570   37.3450   59.5000 C.2    94  PRO94       0.2244
      4  O          7.1240   36.7140   58.7850 O.2    94  PRO94      -0.2868
      5  CB         7.4760   39.5560   59.1910 C.3    94  PRO94       0.0268
      6  CG         8.8490   38.9870   58.9520 C.3    94  PRO94       0.0207
      7  CD         9.2870   38.4920   60.4080 C.3    94  PRO94       0.0892
      8  N          4.5580   36.8170   56.8850 N.3    96  LYS96      -0.1231
      9  CA         4.4430   36.9170   55.4430 C.3    96  LYS96       0.1693
     10  C          5.5220   36.1490   54.7170 C.2    96  LYS96       0.2591
     11  O          5.3260   35.7240   53.6600 O.2    96  LYS96      -0.2718
     12  CB         4.3690   38.3800   54.9560 C.3    96  LYS96       0.0285
     13  CG         4.1280   38.6260   53.4550 C.3    96  LYS96       0.0035
     14  CD         4.5830   40.0400   52.9580 C.3    96  LYS96       0.0206
     15  CE         5.7250   40.7020   53.7850 C.3    96  LYS96       0.1093
     16  NZ         6.7480   41.5450   53.1020 N.3    96  LYS96      -0.1314
     17  N          6.6710   36.0430   55.3230 N.am   97  VAL97      -0.1980
     18  CA         7.7710   35.3180   54.7940 C.3    97  VAL97       0.1595
     19  C          7.5010   33.8160   54.6670 C.2    97  VAL97       0.2287
     20  O          7.8830   33.2290   53.7170 O.2    97  VAL97      -0.2864
     21  CB         8.9920   35.6150   55.6080 C.3    97  VAL97       0.0276
     22  CG1       10.1300   34.9050   55.0960 C.3    97  VAL97       0.0022
     23  CG2        9.2530   37.0310   55.5350 C.3    97  VAL97       0.0022
     24  N          4.6520   39.3470   63.8270 N.3   122  GLU122     -0.1245
     25  CA         4.1840   40.5020   63.1090 C.3   122  GLU122      0.1567
     26  C          3.2460   40.0100   62.0220 C.2   122  GLU122      0.2260
     27  O          3.5500   39.0330   61.3340 O.2   122  GLU122     -0.2867
     28  CB         5.3970   41.2250   62.5260 C.3   122  GLU122      0.0388
     29  CG         5.0640   42.4480   61.6560 C.3   122  GLU122      0.1160
     30  CD         4.6770   42.0860   60.2280 C.2   122  GLU122      0.3649
     31  OE1        4.8810   40.9200   59.8060 O.co2 122  GLU122     -0.2457
     32  OE2        4.1640   42.9690   59.4930 O.co2 122  GLU122     -0.2457
     33  N          0.8430   41.3230   58.6020 N.3   124  GLY124     -0.1225
     34  CA         0.7570   42.4110   57.6670 C.3   124  GLY124      0.1811
     35  C         -0.6110   42.5200   57.0270 C.2   124  GLY124      0.2280
     36  O         -0.7410   43.1620   55.9980 O.2   124  GLY124     -0.2866
     37  N          0.7210   45.5220   60.9860 N.3   146  ASN146     -0.1240
     38  CA         0.9950   46.3870   59.8720 C.3   146  ASN146      0.1653
     39  C         -0.0660   46.1670   58.7900 C.2   146  ASN146      0.2266
     40  O         -0.8740   45.2250   58.8700 O.2   146  ASN146     -0.2867
     41  CB         2.3580   45.9770   59.2780 C.3   146  ASN146      0.1155
     42  CG         3.5520   46.3340   60.1850 C.2   146  ASN146      0.2627
     43  OD1        3.7910   47.4990   60.5040 O.2   146  ASN146     -0.2716
     44  ND2        4.3320   45.3280   60.5590 N.am  146  ASN146     -0.0877
     45  N          4.3220   54.1370   61.7360 N.3   196  ARG196     -0.1245
     46  CA         5.2550   53.9170   60.6480 C.3   196  ARG196      0.1563
     47  C          5.6930   55.2380   59.9490 C.2   196  ARG196      0.2260
     48  O          4.8620   56.0030   59.4400 O.2   196  ARG196     -0.2867
     49  CB         4.6830   52.9520   59.6330 C.3   196  ARG196      0.0307
     50  CG         5.5890   52.7580   58.4080 C.3   196  ARG196      0.0489
     51  CD         5.2330   51.4370   57.8420 C.3   196  ARG196      0.2205
     52  NE         6.0010   51.1920   56.6570 N.pl3 196  ARG196     -0.0865
     53  CZ         5.9570   50.0540   56.0040 C.cat 196  ARG196      0.5346
     54  NH1        5.1740   49.0720   56.4380 N.pl3 196  ARG196      0.1354
     55  NH2        6.6960   49.9110   54.9230 N.pl3 196  ARG196      0.1354
     56  N          8.2960   52.6470   63.8750 N.3   244  HIS244     -0.1241
     57  CA         8.5400   51.5990   62.8570 C.3   244  HIS244      0.1621
     58  C          8.9710   52.1650   61.4690 C.2   244  HIS244      0.2264
     59  O          8.4400   53.1600   60.9880 O.2   244  HIS244     -0.2867
     60  CB         7.2600   50.7850   62.6930 C.3   244  HIS244      0.0745
     61  CG         7.3710   49.6230   61.7500 C.ar  244  HIS244      0.0817
     62  ND1        7.4190   48.3130   62.1820 N.ar  244  HIS244     -0.2268
     63  CD2        7.3900   49.5680   60.3960 C.ar  244  HIS244      0.1154
     64  CE1        7.5160   47.5040   61.1420 C.ar  244  HIS244      0.1986
     65  NE2        7.4990   48.2440   60.0420 N.ar  244  HIS244     -0.2212
     66  N         10.2100   50.3170   57.5120 N.3   246  HIS246     -0.1241
     67  CA        10.5840   49.1640   56.7040 C.3   246  HIS246      0.1621
     68  C         11.1920   49.6290   55.3860 C.2   246  HIS246      0.2264
     69  O         10.5020   50.2800   54.5850 O.2   246  HIS246     -0.2867
     70  CB         9.3680   48.2960   56.4340 C.3   246  HIS246      0.0745
     71  CG         9.6720   47.0680   55.6500 C.ar  246  HIS246      0.0817
     72  ND1       10.7140   46.2210   55.9800 N.ar  246  HIS246     -0.2268
     73  CD2        9.0710   46.5350   54.5570 C.ar  246  HIS246      0.1154
     74  CE1       10.7300   45.2060   55.1350 C.ar  246  HIS246      0.1986
     75  NE2        9.7300   45.3600   54.2770 N.ar  246  HIS246     -0.2212
     76  N         12.6270   44.2590   51.5250 N.3   249  SER249     -0.1202
     77  CA        13.2860   42.9810   51.7430 C.3   249  SER249      0.2020
     78  C         14.6690   42.9770   51.0380 C.2   249  SER249      0.2618
     79  O         14.8660   43.7030   50.0650 O.2   249  SER249     -0.2717
     80  CB        12.3550   41.8520   51.2550 C.3   249  SER249      0.2103
     81  OG        12.8570   40.5640   51.5270 O.3   249  SER249     -0.2182
     82  N         15.6190   42.2020   51.5910 N.am  250  GLN250     -0.1979
     83  CA        16.8940   41.8610   50.9530 C.3   250  GLN250      0.1601
     84  C         17.7230   43.1210   50.6290 C.2   250  GLN250      0.2287
     85  O         18.0260   43.4080   49.4570 O.2   250  GLN250     -0.2864
     86  CB        16.6160   40.9950   49.6770 C.3   250  GLN250      0.0394
     87  CG        17.8080   40.2810   49.0290 C.3   250  GLN250      0.0908
     88  CD        18.5650   39.2300   49.8900 C.2   250  GLN250      0.2608
     89  OE1       18.0540   38.7150   50.8930 O.2   250  GLN250     -0.2717
     90  NE2       19.7920   38.8900   49.4610 N.am  250  GLN250     -0.0878
     91  N         12.1200   44.5710   58.2420 N.3   285  GLY285     -0.1210
     92  CA        12.8680   43.5030   57.5700 C.3   285  GLY285      0.1956
     93  C         14.0680   44.0570   56.7930 C.2   285  GLY285      0.2612
     94  O         14.4630   45.2300   56.9650 O.2   285  GLY285     -0.2717
     95  N         14.6450   43.2420   55.9070 N.am  286  GLY286     -0.1942
     96  CA        15.7010   43.7700   55.0650 C.3   286  GLY286      0.2014
     97  C         17.0270   43.0690   55.2780 C.2   286  GLY286      0.2638
     98  O         17.8570   43.1070   54.3680 O.2   286  GLY286     -0.2714
     99  N         17.2200   42.4220   56.4560 N.am  287  LEU287     -0.1977
    100  CA        18.4370   41.6480   56.6990 C.3   287  LEU287      0.1596
    101  C         18.4820   40.5640   55.6300 C.2   287  LEU287      0.2287
    102  O         17.6540   39.6560   55.6330 O.2   287  LEU287     -0.2864
    103  CB        18.4410   41.0220   58.0820 C.3   287  LEU287      0.0297
    104  CG        19.5460   40.0010   58.3980 C.3   287  LEU287      0.0022
    105  CD1       21.0020   40.5580   58.1070 C.3   287  LEU287      0.0001
    106  CD2       19.3730   39.5060   59.8710 C.3   287  LEU287      0.0001
    107  N         12.4590   42.8520   62.4150 N.3   334  GLU334     -0.1231
    108  CA        11.5370   41.8670   61.8180 C.3   334  GLU334      0.1699
    109  C         12.2090   41.0650   60.7170 C.2   334  GLU334      0.2593
    110  O         11.8670   41.1890   59.5410 O.2   334  GLU334     -0.2718
    111  CB        10.3320   42.6000   61.2530 C.3   334  GLU334      0.0402
    112  CG         9.5570   43.2590   62.3300 C.3   334  GLU334      0.1161
    113  CD         8.5330   44.2500   61.8510 C.2   334  GLU334      0.3649
    114  OE1        8.4560   44.5090   60.6100 O.co2 334  GLU334     -0.2457
    115  OE2        7.7930   44.7580   62.7370 O.co2 334  GLU334     -0.2457
    116  N         13.1560   40.2260   61.0800 N.am  335  SER335     -0.1938
    117  CA        13.9740   39.5640   60.0810 C.3   335  SER335      0.2055
    118  C         13.4810   38.2040   59.6210 C.2   335  SER335      0.2644
    119  O         14.1100   37.1870   59.8810 O.2   335  SER335     -0.2714
    120  CB        15.3860   39.4450   60.6030 C.3   335  SER335      0.2130
    121  OG        15.7710   40.6710   61.1760 O.3   335  SER335     -0.2179
    122  N         12.4060   38.1740   58.8470 N.am  336  GLY336     -0.1939
    123  CA        11.8370   36.8850   58.3580 C.3   336  GLY336      0.2014
    124  C         12.7070   36.0000   57.4730 C.2   336  GLY336      0.2639
    125  O         12.9110   34.8180   57.7650 O.2   336  GLY336     -0.2714
    126  N         13.1450   36.5720   56.3430 N.am  337  ARG337     -0.1963
    127  CA        14.0020   35.9150   55.3920 C.3   337  ARG337      0.1729
    128  C         15.2480   35.2910   56.0790 C.2   337  ARG337      0.2616
    129  O         15.4940   34.1120   55.9300 O.2   337  ARG337     -0.2715
    130  CB        14.4040   36.8680   54.2680 C.3   337  ARG337      0.0348
    131  CG        15.0940   36.1450   53.0560 C.3   337  ARG337      0.0492
    132  CD        15.8340   37.1560   52.1490 C.3   337  ARG337      0.2205
    133  NE        14.8980   38.0920   51.5280 N.pl3 337  ARG337     -0.0865
    134  CZ        14.1840   37.7940   50.4410 C.cat 337  ARG337      0.5346
    135  NH1       14.2920   36.5810   49.8910 N.pl3 337  ARG337      0.1354
    136  NH2       13.3270   38.6630   49.9350 N.pl3 337  ARG337      0.1354
    137  N         15.9910   36.0760   56.8580 N.am  338  SER338     -0.1950
    138  CA        17.1740   35.5610   57.5550 C.3   338  SER338      0.1924
    139  C         16.8300   34.3520   58.4500 C.2   338  SER338      0.2314
    140  O         17.6020   33.3650   58.5250 O.2   338  SER338     -0.2863
    141  CB        17.8230   36.6720   58.3600 C.3   338  SER338      0.2116
    142  OG        19.1070   36.2730   58.8350 O.3   338  SER338     -0.2180
    143  N          9.7390   32.4910   51.2850 N.3   542  TYR542     -0.1241
    144  CA         8.7120   33.1380   50.4930 C.3   542  TYR542      0.1605
    145  C          8.3730   32.1930   49.3620 C.2   542  TYR542      0.2264
    146  O          7.4860   32.4270   48.6340 O.2   542  TYR542     -0.2867
    147  CB         9.1780   34.4330   49.8120 C.3   542  TYR542      0.0534
    148  CG         9.2910   35.6740   50.6360 C.ar  542  TYR542     -0.0201
    149  CD1        8.1920   36.4360   50.9310 C.ar  542  TYR542     -0.0009
    150  CD2       10.5030   36.1060   51.0840 C.ar  542  TYR542     -0.0009
    151  CE1        8.2910   37.5230   51.6520 C.ar  542  TYR542      0.0417
    152  CE2       10.6050   37.2020   51.8050 C.ar  542  TYR542      0.0417
    153  CZ         9.4990   37.9320   52.0970 C.ar  542  TYR542      0.1957
    154  OH         9.6070   39.0590   52.8390 O.3   542  TYR542     -0.2866
@<TRIPOS>BOND
     1   146   145    2
     2    87    86    1
     3    87    88    1
     4   145   144    1
     5    85    84    2
     6    90    88   am
     7    86    83    1
     8   147   144    1
     9   147   148    1
    10    88    89    2
    11   135   134    1
    12   136   134    1
    13    79    78    2
    14   134   133    2
    15   144   143    1
    16    84    83    1
    17   148   149   ar
    18   148   150   ar
    19   149   151   ar
    20    83    82    1
    21    78    82   am
    22    78    77    1
    23   150   152   ar
    24    80    81    1
    25    80    77    1
    26    76    77    1
    27   133   132    1
    28   151   153   ar
    29   152   153   ar
    30   153   154    1
    31   132   131    1
    32    14    13    1
    33    14    15    1
    34   131   130    1
    35    16    15    1
    36    13    12    1
    37    11    10    2
    38    20    19    2
    39   130   127    1
    40    75    73   ar
    41    75    74   ar
    42    98    97    2
    43    73    71   ar
    44    69    68    2
    45    19    18    1
    46    10    17   am
    47    10     9    1
    48    18    17    1
    49    18    21    1
    50    55    53    1
    51    12     9    1
    52    96    97    1
    53    96    95    1
    54    22    21    1
    55    74    72   ar
    56    97    99   am
    57    68    67    1
    58   127   128    1
    59   127   126    1
    60     9     8    1
    61    23    21    1
    62   101   102    2
    63   101   100    1
    64    71    72   ar
    65    71    70    1
    66    95    93   am
    67   129   128    2
    68    36    35    2
    69    53    54    1
    70    53    52    2
    71   128   137   am
    72   126   124   am
    73    70    67    1
    74    99   100    1
    75    52    51    1
    76   100   103    1
    77    67    66    1
    78    93    94    2
    79    93    92    1
    80   137   138    1
    81    35    34    1
    82   124   125    2
    83   124   123    1
    84   138   141    1
    85   138   139    1
    86    92    91    1
    87    34    33    1
    88    51    50    1
    89   103   104    1
    90   105   104    1
    91   123   122    1
    92   141   142    1
    93   104   106    1
    94    50    49    1
    95   139   140    2
    96     4     3    2
    97    39    40    2
    98    39    38    1
    99   122   118   am
   100     6     5    1
   101     6     7    1
   102     5     2    1
   103    41    38    1
   104    41    42    1
   105    48    47    2
   106    32    30   ar
   107     3     2    1
   108   110   109    2
   109   118   119    2
   110   118   117    1
   111    49    46    1
   112    31    30   ar
   113    38    37    1
   114    47    46    1
   115    65    63   ar
   116    65    64   ar
   117   117   120    1
   118   117   116    1
   119    42    43    2
   120    42    44   am
   121     2     1    1
   122    30    29    1
   123    63    61   ar
   124     7     1    1
   125   120   121    1
   126   114   113   ar
   127    46    45    1
   128   109   116   am
   129   109   108    1
   130    59    58    2
   131    64    62   ar
   132   111   108    1
   133   111   112    1
   134    27    26    2
   135    58    57    1
   136    29    28    1
   137    61    62   ar
   138    61    60    1
   139   108   107    1
   140   113   112    1
   141   113   115   ar
   142    26    25    1
   143    28    25    1
   144    60    57    1
   145    57    56    1
   146    25    24    1
