@<TRIPOS>MOLECULE
tmp/3n2pA00.pdb
 146 142 0 0 0
SMALL
GASTEIGER

@<TRIPOS>ATOM
      1  N         -8.4170    0.6910    5.9260 N.3    65  ASN65      -0.1240
      2  CA        -9.2960    1.5640    6.6990 C.3    65  ASN65       0.1653
      3  C        -10.4720    1.9960    5.8450 C.2    65  ASN65       0.2266
      4  O        -10.2900    2.3990    4.7030 O.2    65  ASN65      -0.2867
      5  CB        -8.5830    2.8550    7.1230 C.3    65  ASN65       0.1155
      6  CG        -7.5150    2.6270    8.1540 C.2    65  ASN65       0.2627
      7  OD1       -7.4960    1.6000    8.7950 O.2    65  ASN65      -0.2716
      8  ND2       -6.6300    3.6250    8.3480 N.am   65  ASN65      -0.0877
      9  N        -12.7740    5.0310    5.7850 N.3    67  GLU67      -0.1245
     10  CA       -12.7190    6.3680    6.3670 C.3    67  GLU67       0.1567
     11  C        -14.0700    7.0720    6.2470 C.2    67  GLU67       0.2260
     12  O        -14.7920    6.8570    5.2820 O.2    67  GLU67      -0.2867
     13  CB       -11.6830    7.2010    5.6150 C.3    67  GLU67       0.0388
     14  CG       -10.2820    6.5880    5.6270 C.3    67  GLU67       0.1160
     15  CD        -9.3880    7.1990    4.5590 C.2    67  GLU67       0.3649
     16  OE1       -9.9130    7.9580    3.7060 O.co2  67  GLU67      -0.2457
     17  OE2       -8.1730    6.9260    4.5810 O.co2  67  GLU67      -0.2457
     18  N        -13.9730    8.2740   12.8170 N.3    89  ILE89      -0.1231
     19  CA       -13.0790    8.6760   11.7300 C.3    89  ILE89       0.1692
     20  C        -12.7790    7.5230   10.8000 C.2    89  ILE89       0.2591
     21  O        -12.6890    7.7250    9.6020 O.2    89  ILE89      -0.2718
     22  CB       -11.7530    9.2880   12.2390 C.3    89  ILE89       0.0266
     23  CG1      -10.8020    9.5200   11.0610 C.3    89  ILE89       0.0019
     24  CG2      -11.0590    8.4010   13.2720 C.3    89  ILE89       0.0020
     25  CD1       -9.5810   10.3680   11.4500 C.3    89  ILE89       0.0001
     26  N        -12.6610    6.3020   11.3330 N.am   90  GLN90      -0.1979
     27  CA       -12.3670    5.1730   10.4620 C.3    90  GLN90       0.1601
     28  C        -12.6570    3.8920   11.2080 C.2    90  GLN90       0.2287
     29  O        -12.7050    3.9140   12.4360 O.2    90  GLN90      -0.2864
     30  CB       -10.8920    5.1990    9.9980 C.3    90  GLN90       0.0394
     31  CG        -9.8240    5.2540   11.1230 C.3    90  GLN90       0.0908
     32  CD        -9.1390    3.9220   11.3220 C.2    90  GLN90       0.2608
     33  OE1       -9.7550    2.8700   11.1430 O.2    90  GLN90      -0.2717
     34  NE2       -7.8620    3.9590   11.6770 N.am   90  GLN90      -0.0878
     35  N        -11.2430   -0.4150   10.9280 N.3    92  HIS92      -0.1241
     36  CA       -10.3890   -1.3660   10.2790 C.3    92  HIS92       0.1621
     37  C        -10.4220   -2.6420   11.1070 C.2    92  HIS92       0.2264
     38  O        -11.0680   -2.7180   12.1430 O.2    92  HIS92      -0.2867
     39  CB        -8.9520   -0.8450   10.2440 C.3    92  HIS92       0.0745
     40  CG        -8.4040   -0.5990   11.6130 C.ar   92  HIS92       0.0817
     41  ND1       -8.6210    0.5750   12.2990 N.ar   92  HIS92      -0.2268
     42  CD2       -7.7000   -1.3990   12.4510 C.ar   92  HIS92       0.1154
     43  CE1       -8.0570    0.4990   13.4940 C.ar   92  HIS92       0.1986
     44  NE2       -7.5070   -0.7010   13.6170 N.ar   92  HIS92      -0.2212
     45  N         -8.0590   -6.3130   12.4260 N.3    94  HIS94      -0.1241
     46  CA        -6.8460   -7.1190   12.5320 C.3    94  HIS94       0.1621
     47  C         -7.2730   -8.5850   12.4190 C.2    94  HIS94       0.2264
     48  O         -8.3040   -8.9560   12.9750 O.2    94  HIS94      -0.2867
     49  CB        -6.1640   -6.8780   13.8790 C.3    94  HIS94       0.0745
     50  CG        -5.8860   -5.4350   14.1450 C.ar   94  HIS94       0.0817
     51  ND1       -4.6480   -4.8640   13.9320 N.ar   94  HIS94      -0.2268
     52  CD2       -6.7010   -4.4380   14.5650 C.ar   94  HIS94       0.1154
     53  CE1       -4.7070   -3.5730   14.2400 C.ar   94  HIS94       0.1986
     54  NE2       -5.9480   -3.2910   14.6010 N.ar   94  HIS94      -0.2212
     55  N        -12.0150   -2.5950   14.8270 N.3   117  HIS117     -0.1241
     56  CA       -11.7960   -1.3820   15.6020 C.3   117  HIS117      0.1621
     57  C        -12.4760   -0.2360   14.9200 C.2   117  HIS117      0.2264
     58  O        -12.1190    0.1200   13.8000 O.2   117  HIS117     -0.2867
     59  CB       -10.2850   -1.1020   15.6730 C.3   117  HIS117      0.0745
     60  CG        -9.5690   -2.0670   16.5530 C.ar  117  HIS117      0.0817
     61  ND1       -8.2070   -2.2830   16.4850 N.ar  117  HIS117     -0.2268
     62  CD2      -10.0460   -2.9120   17.4970 C.ar  117  HIS117      0.1154
     63  CE1       -7.8700   -3.1890   17.3900 C.ar  117  HIS117      0.1986
     64  NE2       -8.9660   -3.5900   18.0130 N.ar  117  HIS117     -0.2212
     65  N        -12.8620    3.5520   15.2550 N.3   119  VAL119     -0.1245
     66  CA       -11.9830    4.5460   15.8950 C.3   119  VAL119      0.1561
     67  C        -12.6770    5.9010   15.9490 C.2   119  VAL119      0.2260
     68  O        -13.1470    6.3740   14.9190 O.2   119  VAL119     -0.2867
     69  CB       -10.7040    4.6950   15.0820 C.3   119  VAL119      0.0252
     70  CG1       -9.7500    5.7060   15.7390 C.3   119  VAL119      0.0019
     71  CG2      -10.0170    3.3300   14.9200 C.3   119  VAL119      0.0019
     72  N         -8.2410   14.9070   14.7520 N.3   128  PHE128     -0.1241
     73  CA        -7.6610   13.6350   15.1580 C.3   128  PHE128      0.1605
     74  C         -6.2160   13.7880   15.5700 C.2   128  PHE128      0.2264
     75  O         -5.7920   13.1810   16.5540 O.2   128  PHE128     -0.2867
     76  CB        -7.7400   12.6340   14.0130 C.3   128  PHE128      0.0534
     77  CG        -7.2040   11.2850   14.3590 C.ar  128  PHE128     -0.0203
     78  CD1       -8.0050   10.3730   15.0470 C.ar  128  PHE128     -0.0042
     79  CD2       -5.9150   10.9110   13.9910 C.ar  128  PHE128     -0.0042
     80  CE1       -7.5370    9.1080   15.3480 C.ar  128  PHE128     -0.0003
     81  CE2       -5.4390    9.6630   14.3010 C.ar  128  PHE128     -0.0003
     82  CZ        -6.2520    8.7480   14.9890 C.ar  128  PHE128     -0.0000
     83  N        -11.8780    3.7450   21.1030 N.3   140  VAL140     -0.1245
     84  CA       -11.9630    2.7480   20.0590 C.3   140  VAL140      0.1561
     85  C        -12.9080    1.6530   20.5510 C.2   140  VAL140      0.2260
     86  O        -12.7430    1.1310   21.6530 O.2   140  VAL140     -0.2867
     87  CB       -10.5800    2.1360   19.7000 C.3   140  VAL140      0.0252
     88  CG1      -10.7390    1.1470   18.5610 C.3   140  VAL140      0.0019
     89  CG2       -9.6160    3.2300   19.2710 C.3   140  VAL140      0.0019
     90  N         -2.9940    3.1720   21.1490 N.3   195  LEU195     -0.1231
     91  CA        -3.0300    2.6130   19.7970 C.3   195  LEU195      0.1693
     92  C         -2.2670    1.3020   19.8140 C.2   195  LEU195      0.2593
     93  O         -1.2220    1.1640   20.4920 O.2   195  LEU195     -0.2718
     94  CB        -2.3100    3.5330   18.7940 C.3   195  LEU195      0.0284
     95  CG        -2.7890    4.9890   18.7960 C.3   195  LEU195      0.0019
     96  CD1       -1.8730    5.7990   17.8820 C.3   195  LEU195      0.0001
     97  CD2       -4.2420    5.0760   18.3650 C.3   195  LEU195      0.0001
     98  N         -2.7360    0.3320   19.0420 N.am  196  THR196     -0.1939
     99  CA        -2.0180   -0.9410   19.0090 C.3   196  THR196      0.2028
    100  C         -1.0130   -1.0680   17.8690 C.2   196  THR196      0.2643
    101  O         -0.4190   -2.1510   17.6790 O.2   196  THR196     -0.2714
    102  CB        -2.9760   -2.1010   18.8500 C.3   196  THR196      0.1808
    103  OG1       -3.5780   -2.0180   17.5560 O.3   196  THR196     -0.2208
    104  CG2       -4.0470   -2.1220   19.9760 C.3   196  THR196      0.0379
    105  N         -0.8450    0.0050   17.0900 N.am  197  THR197     -0.1937
    106  CA         0.2440    0.1000   16.1150 C.3   197  THR197      0.2013
    107  C          1.0770    1.3370   16.4180 C.2   197  THR197      0.2484
    108  O          0.5830    2.2930   17.0080 O.2   197  THR197     -0.2729
    109  CB        -0.2860    0.2620   14.6690 C.3   197  THR197      0.1807
    110  OG1       -1.0600    1.4700   14.5710 O.3   197  THR197     -0.2208
    111  CG2       -1.1860   -0.9090   14.2850 C.3   197  THR197      0.0379
    112  N          2.3270    1.3370   15.9600 N.am  198  PRO198     -0.2715
    113  CA         3.1210    2.5640   16.0850 C.3   198  PRO198      0.1521
    114  C          2.2880    3.7140   15.5580 C.2   198  PRO198      0.2440
    115  O          1.6110    3.5400   14.5330 O.2   198  PRO198     -0.2731
    116  CB         4.3380    2.2490   15.2000 C.3   198  PRO198      0.0310
    117  CG         4.5500    0.7720   15.4240 C.3   198  PRO198      0.0237
    118  CD         3.1000    0.2460   15.3320 C.3   198  PRO198      0.0939
    119  N          2.3530    4.8870   16.1970 N.am  199  PRO199     -0.2727
    120  CA         3.2540    5.2890   17.2830 C.3   199  PRO199      0.1402
    121  C          2.8440    4.8470   18.7020 C.2   199  PRO199      0.2269
    122  O          3.5040    5.3050   19.6310 O.2   199  PRO199     -0.2865
    123  CB         3.2410    6.8270   17.1800 C.3   199  PRO199      0.0296
    124  CG         1.9040    7.1530   16.6370 C.3   199  PRO199      0.0237
    125  CD         1.5200    6.0100   15.7190 C.3   199  PRO199      0.0939
    126  N         -6.0710    6.2170   24.2400 N.3   204  VAL204     -0.1245
    127  CA        -7.3190    5.5260   23.8880 C.3   204  VAL204      0.1561
    128  C         -8.0620    5.0520   25.1160 C.2   204  VAL204      0.2260
    129  O         -7.5010    4.3750   25.9680 O.2   204  VAL204     -0.2867
    130  CB        -7.0500    4.2340   23.0110 C.3   204  VAL204      0.0252
    131  CG1       -8.3560    3.5290   22.7070 C.3   204  VAL204      0.0019
    132  CG2       -6.2600    4.5900   21.6930 C.3   204  VAL204      0.0019
    133  N        -10.4020    2.2400   25.6230 N.3   206  TRP206     -0.1241
    134  CA       -10.8600    1.0560   24.9200 C.3   206  TRP206      0.1605
    135  C        -12.2080    0.6390   25.4370 C.2   206  TRP206      0.2264
    136  O        -12.4130    0.5670   26.6410 O.2   206  TRP206     -0.2867
    137  CB        -9.8650   -0.1160   25.1230 C.3   206  TRP206      0.0550
    138  CG        -8.7600    0.0210   24.1110 C.ar  206  TRP206      0.0003
    139  CD1       -7.5390    0.6050   24.2890 C.ar  206  TRP206      0.0946
    140  CD2       -8.8270   -0.3760   22.7390 C.ar  206  TRP206      0.0152
    141  NE1       -6.8380    0.5970   23.1040 N.ar  206  TRP206     -0.2442
    142  CE2       -7.6010   -0.0080   22.1390 C.ar  206  TRP206      0.0810
    143  CE3       -9.8070   -1.0200   21.9620 C.ar  206  TRP206      0.0012
    144  CZ2       -7.3150   -0.2690   20.8070 C.ar  206  TRP206      0.0191
    145  CZ3       -9.5360   -1.2860   20.6310 C.ar  206  TRP206      0.0001
    146  CH2       -8.2980   -0.9090   20.0590 C.ar  206  TRP206      0.0015
@<TRIPOS>BOND
     1    16    15   ar
     2    15    17   ar
     3    15    14    1
     4     4     3    2
     5    12    11    2
     6    13    14    1
     7    13    10    1
     8     9    10    1
     9     3     2    1
    10     1     2    1
    11    11    10    1
    12     2     5    1
    13     5     6    1
    14     6     8   am
    15     6     7    2
    16    21    20    2
    17    30    27    1
    18    30    31    1
    19    39    36    1
    20    39    40    1
    21    36    35    1
    22    36    37    1
    23    27    28    1
    24    27    26    1
    25    20    26   am
    26    20    19    1
    27    23    25    1
    28    23    22    1
    29    37    38    2
    30    31    32    1
    31    33    32    2
    32    28    29    2
    33    32    34   am
    34    40    41   ar
    35    40    42   ar
    36    19    22    1
    37    19    18    1
    38    22    24    1
    39    41    43   ar
    40    47    46    1
    41    47    48    2
    42    45    46    1
    43    42    44   ar
    44    46    49    1
    45    43    44   ar
    46    58    57    2
    47    49    50    1
    48    51    50   ar
    49    51    53   ar
    50    79    81   ar
    51    79    77   ar
    52    76    77    1
    53    76    73    1
    54    50    52   ar
    55    53    54   ar
    56   111   109    1
    57    81    82   ar
    58    77    78   ar
    59   115   114    2
    60    52    54   ar
    61   110   109    1
    62   109   106    1
    63    72    73    1
    64    55    56    1
    65    68    67    2
    66    57    56    1
    67    71    69    1
    68    82    80   ar
    69    78    80   ar
    70    69    70    1
    71    69    66    1
    72    73    74    1
    73   116   117    1
    74   116   113    1
    75    65    66    1
    76   118   117    1
    77   118   112    1
    78   114   113    1
    79   114   119   am
    80    74    75    2
    81    56    59    1
    82    59    60    1
    83   125   119    1
    84   125   124    1
    85    66    67    1
    86   112   113    1
    87   112   107   am
    88   106   107    1
    89   106   105    1
    90   119   120    1
    91   107   108    2
    92    61    60   ar
    93    61    63   ar
    94    60    62   ar
    95   124   123    1
    96   105   100   am
    97   123   120    1
    98   120   121    1
    99    63    64   ar
   100    62    64   ar
   101   103   102    1
   102   101   100    2
   103   100    99    1
   104    96    95    1
   105    97    95    1
   106    88    87    1
   107   121   122    2
   108    94    95    1
   109    94    91    1
   110   102    99    1
   111   102   104    1
   112    99    98    1
   113    98    92   am
   114    89    87    1
   115    87    84    1
   116    91    92    1
   117    91    90    1
   118    92    93    2
   119   146   145   ar
   120   146   144   ar
   121    84    85    1
   122    84    83    1
   123    85    86    2
   124   145   143   ar
   125   144   142   ar
   126   132   130    1
   127   143   140   ar
   128   142   140   ar
   129   142   141   ar
   130   131   130    1
   131   140   138   ar
   132   130   127    1
   133   141   139   ar
   134   127   126    1
   135   127   128    1
   136   138   139   ar
   137   138   137    1
   138   134   137    1
   139   134   135    1
   140   134   133    1
   141   128   129    2
   142   135   136    2
