@<TRIPOS>MOLECULE
tmp/3n2rA02.pdb
 184 180 0 0 0
SMALL
GASTEIGER

@<TRIPOS>ATOM
      1  N          2.7720    9.0410   34.9250 N.3    38  MET38      -0.1230
      2  CA         3.2140    8.6510   33.5900 C.3    38  MET38       0.1702
      3  C          3.1010    9.7950   32.5450 C.2    38  MET38       0.2592
      4  O          4.0280   10.0070   31.7610 O.2    38  MET38      -0.2718
      5  CB         2.4620    7.4170   33.1120 C.3    38  MET38       0.0401
      6  CG         3.1820    6.6820   31.9780 C.3    38  MET38       0.0596
      7  SD         3.8720    5.0980   32.5420 S.3    38  MET38      -0.1393
      8  CE         2.3740    4.2970   33.1020 C.3    38  MET38       0.0692
      9  N          1.9860   10.5260   32.5630 N.am   39  LEU39      -0.1980
     10  CA         1.7430   11.6630   31.6610 C.3    39  LEU39       0.1596
     11  C          1.3670   12.9120   32.4850 C.2    39  LEU39       0.2287
     12  O          0.1950   13.1140   32.8050 O.2    39  LEU39      -0.2864
     13  CB         0.6050   11.3280   30.6810 C.3    39  LEU39       0.0297
     14  CG         0.4870    9.9070   30.1100 C.3    39  LEU39       0.0022
     15  CD1       -0.8710    9.6690   29.4770 C.3    39  LEU39       0.0001
     16  CD2        1.6110    9.6010   29.1170 C.3    39  LEU39       0.0001
     17  N         15.4220    7.5050   28.9680 N.3   106  CYS106     -0.1235
     18  CA        16.1410    6.5050   28.1800 C.3   106  CYS106      0.1677
     19  C         17.4860    6.1810   28.7960 C.2   106  CYS106      0.2270
     20  O         18.3560    7.0490   28.8480 O.2   106  CYS106     -0.2867
     21  CB        16.3740    7.0150   26.7430 C.3   106  CYS106      0.0956
     22  SG        17.3300    5.8340   25.7270 S.3   106  CYS106     -0.0801
     23  N          1.7490    1.6510   17.8560 N.3   168  SER168     -0.1202
     24  CA         2.5690    2.1790   18.9500 C.3   168  SER168      0.2020
     25  C          4.0580    1.8450   18.7610 C.2   168  SER168      0.2618
     26  O          4.9230    2.6580   19.1000 O.2   168  SER168     -0.2717
     27  CB         2.0520    1.6710   20.3030 C.3   168  SER168      0.2103
     28  OG         2.0320    0.2500   20.3110 O.3   168  SER168     -0.2182
     29  N          4.3470    0.6670   18.1960 N.am  169  GLN169     -0.1979
     30  CA         5.7120    0.2890   17.7630 C.3   169  GLN169      0.1601
     31  C          5.5560   -0.3600   16.3840 C.2   169  GLN169      0.2287
     32  O          4.4860   -0.8910   16.0790 O.2   169  GLN169     -0.2864
     33  CB         6.3510   -0.7530   18.6940 C.3   169  GLN169      0.0394
     34  CG         6.6950   -0.3170   20.1150 C.3   169  GLN169      0.0908
     35  CD         7.0400   -1.5310   20.9620 C.2   169  GLN169      0.2608
     36  OE1        7.9090   -2.3660   20.5940 O.2   169  GLN169     -0.2717
     37  NE2        6.3220   -1.6820   22.0650 N.am  169  GLN169     -0.0878
     38  N          4.7600   -5.3440   16.6860 N.3   172  ARG172     -0.1245
     39  CA         4.0720   -5.7770   17.9180 C.3   172  ARG172      0.1563
     40  C          3.1370   -6.9350   17.5860 C.2   172  ARG172      0.2260
     41  O          2.8370   -7.1580   16.4250 O.2   172  ARG172     -0.2867
     42  CB         3.2800   -4.6420   18.5610 C.3   172  ARG172      0.0307
     43  CG         4.1270   -3.6920   19.3660 C.3   172  ARG172      0.0489
     44  CD         3.3210   -2.8890   20.3650 C.3   172  ARG172      0.2205
     45  NE         3.5060   -3.3190   21.7490 N.pl3 172  ARG172     -0.0865
     46  CZ         2.8810   -2.7540   22.7880 C.cat 172  ARG172      0.5346
     47  NH1        2.0330   -1.7460   22.5870 N.pl3 172  ARG172      0.1354
     48  NH2        3.1020   -3.1860   24.0360 N.pl3 172  ARG172      0.1354
     49  N         13.1440   -3.2320   18.7180 N.3   256  PRO256     -0.2102
     50  CA        12.2410   -2.3180   19.4270 C.3   256  PRO256      0.1504
     51  C         12.1860   -0.9810   18.6890 C.2   256  PRO256      0.2576
     52  O         13.2100   -0.3400   18.4970 O.2   256  PRO256     -0.2718
     53  CB        12.8950   -2.1650   20.8130 C.3   256  PRO256      0.0282
     54  CG        14.3930   -2.3040   20.5450 C.3   256  PRO256      0.0208
     55  CD        14.5200   -3.1990   19.2630 C.3   256  PRO256      0.0893
     56  N         11.0000   -0.5690   18.2870 N.am  257  ALA257     -0.1966
     57  CA        10.8560    0.5500   17.3600 C.3   257  ALA257      0.1728
     58  C          9.6250    1.3840   17.6770 C.2   257  ALA257      0.2616
     59  O          8.5150    1.0830   17.2080 O.2   257  ALA257     -0.2715
     60  CB        10.8010    0.0130   15.9320 C.3   257  ALA257      0.0334
     61  N          9.8200    2.4310   18.4710 N.am  258  VAL258     -0.1977
     62  CA         8.7400    3.3090   18.9140 C.3   258  VAL258      0.1596
     63  C          8.2520    4.1580   17.7630 C.2   258  VAL258      0.2287
     64  O          9.0440    4.8420   17.1350 O.2   258  VAL258     -0.2864
     65  CB         9.2180    4.2130   20.0960 C.3   258  VAL258      0.0276
     66  CG1        8.1320    5.2700   20.4730 C.3   258  VAL258      0.0022
     67  CG2        9.5510    3.3270   21.3190 C.3   258  VAL258      0.0022
     68  N          4.9490    6.0690   17.8750 N.3   260  ASN260     -0.1240
     69  CA         3.8190    6.9350   18.2290 C.3   260  ASN260      0.1653
     70  C          4.1880    8.2620   18.8670 C.2   260  ASN260      0.2266
     71  O          3.2960    8.9760   19.3090 O.2   260  ASN260     -0.2867
     72  CB         2.7520    6.2070   19.1120 C.3   260  ASN260      0.1155
     73  CG         3.2930    5.7610   20.4820 C.2   260  ASN260      0.2627
     74  OD1        2.5320    5.2780   21.3270 O.2   260  ASN260     -0.2716
     75  ND2        4.5810    5.9090   20.7040 N.am  260  ASN260     -0.0877
     76  N         11.5010    5.4540   15.5530 N.3   275  PHE275     -0.1227
     77  CA        12.9200    5.2240   15.8500 C.3   275  PHE275      0.1736
     78  C         13.1410    3.8860   16.5330 C.2   275  PHE275      0.2596
     79  O         12.2350    3.3520   17.1460 O.2   275  PHE275     -0.2718
     80  CB        13.4470    6.3460   16.7270 C.3   275  PHE275      0.0547
     81  CG        12.7220    6.5030   18.0500 C.ar  275  PHE275     -0.0202
     82  CD1       13.0560    5.6980   19.1420 C.ar  275  PHE275     -0.0042
     83  CD2       11.7730    7.5060   18.2260 C.ar  275  PHE275     -0.0042
     84  CE1       12.4180    5.8810   20.4100 C.ar  275  PHE275     -0.0003
     85  CE2       11.1280    7.6980   19.4850 C.ar  275  PHE275     -0.0003
     86  CZ        11.4400    6.8940   20.5530 C.ar  275  PHE275     -0.0000
     87  N         14.3600    3.3530   16.4450 N.am  276  SER276     -0.1938
     88  CA        14.6010    2.0380   16.9540 C.3   276  SER276      0.2055
     89  C         16.0340    1.9390   17.4650 C.2   276  SER276      0.2644
     90  O         16.9190    2.6240   16.9640 O.2   276  SER276     -0.2714
     91  CB        14.3610    0.9980   15.8440 C.3   276  SER276      0.2130
     92  OG        15.2460    1.1920   14.7380 O.3   276  SER276     -0.2179
     93  N         16.2370    1.0770   18.4650 N.am  277  GLY277     -0.1939
     94  CA        17.5920    0.7830   18.9670 C.3   277  GLY277      0.2014
     95  C         17.7260   -0.7320   19.0630 C.2   277  GLY277      0.2639
     96  O         17.5330   -1.4590   18.0820 O.2   277  GLY277     -0.2714
     97  N         18.0960   -1.2060   20.2410 N.am  278  TRP278     -0.1959
     98  CA        18.0200   -2.6480   20.5620 C.3   278  TRP278      0.1771
     99  C         17.5480   -2.8120   21.9990 C.2   278  TRP278      0.2620
    100  O         17.6010   -1.8770   22.7950 O.2   278  TRP278     -0.2715
    101  CB        19.3680   -3.3340   20.4110 C.3   278  TRP278      0.0590
    102  CG        20.5140   -2.6820   21.1530 C.ar  278  TRP278      0.0006
    103  CD1       20.8510   -2.8200   22.4910 C.ar  278  TRP278      0.0946
    104  CD2       21.4720   -1.7890   20.5900 C.ar  278  TRP278      0.0152
    105  NE1       21.9670   -2.0610   22.7670 N.ar  278  TRP278     -0.2442
    106  CE2       22.3690   -1.4240   21.6240 C.ar  278  TRP278      0.0810
    107  CE3       21.6710   -1.2740   19.3020 C.ar  278  TRP278      0.0012
    108  CZ2       23.4380   -0.5600   21.4110 C.ar  278  TRP278      0.0191
    109  CZ3       22.7310   -0.4150   19.0890 C.ar  278  TRP278      0.0001
    110  CH2       23.6150   -0.0740   20.1430 C.ar  278  TRP278      0.0015
    111  N         17.1450   -4.0210   22.3360 N.am  279  TYR279     -0.1960
    112  CA        16.4710   -4.2500   23.6090 C.3   279  TYR279      0.1771
    113  C         17.4240   -4.3400   24.7840 C.2   279  TYR279      0.2619
    114  O         18.5780   -4.7840   24.6600 O.2   279  TYR279     -0.2715
    115  CB        15.6880   -5.5590   23.5420 C.3   279  TYR279      0.0574
    116  CG        14.2320   -5.4160   23.1570 C.ar  279  TYR279     -0.0198
    117  CD1       13.7200   -6.0560   22.0080 C.ar  279  TYR279     -0.0009
    118  CD2       13.3450   -4.6810   23.9620 C.ar  279  TYR279     -0.0009
    119  CE1       12.3720   -5.9530   21.6730 C.ar  279  TYR279      0.0417
    120  CE2       11.9940   -4.5740   23.6340 C.ar  279  TYR279      0.0417
    121  CZ        11.5110   -5.2170   22.4980 C.ar  279  TYR279      0.1957
    122  OH        10.1650   -5.0930   22.1930 O.3   279  TYR279     -0.2866
    123  N         16.9340   -3.9080   25.9320 N.am  280  MET280     -0.1977
    124  CA        17.5200   -4.3370   27.2140 C.3   280  MET280      0.1605
    125  C         16.6460   -5.4990   27.6370 C.2   280  MET280      0.2287
    126  O         15.4300   -5.4100   27.5020 O.2   280  MET280     -0.2864
    127  CB        17.4880   -3.1690   28.2230 C.3   280  MET280      0.0413
    128  CG        17.9430   -3.5650   29.6740 C.3   280  MET280      0.0598
    129  SD        18.2120   -2.0910   30.6990 S.3   280  MET280     -0.1393
    130  CE        16.5240   -1.6360   31.0960 C.3   280  MET280      0.0692
    131  N         13.0070   -5.4030   29.4300 N.3   283  GLU283     -0.1245
    132  CA        11.8170   -4.9280   28.7490 C.3   283  GLU283      0.1567
    133  C         10.9530   -6.1360   28.3210 C.2   283  GLU283      0.2260
    134  O          9.7400   -6.1540   28.5190 O.2   283  GLU283     -0.2867
    135  CB        12.1840   -4.0750   27.5300 C.3   283  GLU283      0.0388
    136  CG        12.9030   -2.7510   27.8410 C.3   283  GLU283      0.1160
    137  CD        13.3390   -2.0270   26.5480 C.2   283  GLU283      0.3649
    138  OE1       12.5040   -1.2500   26.0110 O.co2 283  GLU283     -0.2457
    139  OE2       14.4810   -2.2660   26.0490 O.co2 283  GLU283     -0.2457
    140  N          7.0870   -7.2830   29.3690 N.3   288  ASP288     -0.1239
    141  CA         6.2630   -7.9380   28.3370 C.3   288  ASP288      0.1674
    142  C          5.7580   -9.2960   28.8120 C.2   288  ASP288      0.2266
    143  O          4.5720   -9.6230   28.6380 O.2   288  ASP288     -0.2867
    144  CB         7.0240   -8.0530   26.9990 C.3   288  ASP288      0.1410
    145  CG         7.3730   -6.6760   26.3890 C.2   288  ASP288      0.3668
    146  OD1        6.5810   -5.7190   26.5790 O.co2 288  ASP288     -0.2456
    147  OD2        8.4460   -6.5490   25.7330 O.co2 288  ASP288     -0.2456
    148  N         -0.0180   -7.9120   30.8900 N.3   294  ARG294     -0.1245
    149  CA         0.6230   -8.3130   29.6210 C.3   294  ARG294      0.1563
    150  C          0.5260   -9.8360   29.4090 C.2   294  ARG294      0.2260
    151  O         -0.5470  -10.3920   29.6420 O.2   294  ARG294     -0.2867
    152  CB         2.0500   -7.7710   29.5450 C.3   294  ARG294      0.0307
    153  CG         2.1030   -6.2350   29.5980 C.3   294  ARG294      0.0489
    154  CD         1.4990   -5.5580   28.3540 C.3   294  ARG294      0.2205
    155  NE         2.1530   -5.9330   27.0980 N.pl3 294  ARG294     -0.0865
    156  CZ         3.3970   -5.5920   26.7430 C.cat 294  ARG294      0.5346
    157  NH1        4.1750   -4.8720   27.5590 N.pl3 294  ARG294      0.1354
    158  NH2        3.8710   -5.9830   25.5530 N.pl3 294  ARG294      0.1354
    159  N         11.9770    5.7550   35.6750 N.3   369  TRP369     -0.1241
    160  CA        12.1280    4.9940   34.4090 C.3   369  TRP369      0.1605
    161  C         13.5290    4.3810   34.1810 C.2   369  TRP369      0.2264
    162  O         13.6610    3.3330   33.5380 O.2   369  TRP369     -0.2867
    163  CB        11.7890    5.9340   33.2310 C.3   369  TRP369      0.0550
    164  CG        10.3160    5.9510   32.9330 C.ar  369  TRP369      0.0003
    165  CD1        9.3010    6.4330   33.7330 C.ar  369  TRP369      0.0946
    166  CD2        9.6920    5.4620   31.7360 C.ar  369  TRP369      0.0152
    167  NE1        8.0840    6.2380   33.1010 N.ar  369  TRP369     -0.2442
    168  CE2        8.3020    5.6550   31.8760 C.ar  369  TRP369      0.0810
    169  CE3       10.1840    4.8780   30.5590 C.ar  369  TRP369      0.0012
    170  CZ2        7.3930    5.2850   30.8810 C.ar  369  TRP369      0.0191
    171  CZ3        9.2800    4.4930   29.5670 C.ar  369  TRP369      0.0001
    172  CH2        7.8940    4.7080   29.7400 C.ar  369  TRP369      0.0015
    173  N          5.0350   12.7550   23.9980 N.3   397  TYR397     -0.1241
    174  CA         3.8500   11.9520   23.7610 C.3   397  TYR397      0.1605
    175  C          2.8280   12.7480   22.9510 C.2   397  TYR397      0.2264
    176  O          2.8580   13.9700   22.9260 O.2   397  TYR397     -0.2867
    177  CB         3.2130   11.5090   25.0750 C.3   397  TYR397      0.0534
    178  CG         4.0860   10.6220   25.9360 C.ar  397  TYR397     -0.0201
    179  CD1        4.3360   10.9630   27.2680 C.ar  397  TYR397     -0.0009
    180  CD2        4.6440    9.4330   25.4410 C.ar  397  TYR397     -0.0009
    181  CE1        5.1250   10.1570   28.0890 C.ar  397  TYR397      0.0417
    182  CE2        5.4490    8.6190   26.2650 C.ar  397  TYR397      0.0417
    183  CZ         5.6700    8.9950   27.5900 C.ar  397  TYR397      0.1957
    184  OH         6.4360    8.2220   28.4420 O.3   397  TYR397     -0.2866
@<TRIPOS>BOND
     1    92    91    1
     2    76    77    1
     3    91    88    1
     4    77    78    1
     5    77    80    1
     6    60    57    1
     7    32    31    2
     8    31    30    1
     9    41    40    2
    10    87    78   am
    11    87    88    1
    12    78    79    2
    13    38    39    1
    14    80    81    1
    15    88    89    1
    16    90    89    2
    17    64    63    2
    18    59    58    2
    19    57    58    1
    20    57    56    1
    21    89    93   am
    22    40    39    1
    23    58    61   am
    24    63    62    1
    25    30    29    1
    26    30    33    1
    27    23    24    1
    28    68    69    1
    29    39    42    1
    30    81    83   ar
    31    81    82   ar
    32    96    95    2
    33    29    25   am
    34    83    85   ar
    35    69    70    1
    36    69    72    1
    37    56    51   am
    38    93    94    1
    39    61    62    1
    40    52    51    2
    41    42    43    1
    42    51    50    1
    43    33    34    1
    44    49    55    1
    45    49    50    1
    46    25    24    1
    47    25    26    2
    48    70    71    2
    49    62    65    1
    50    24    27    1
    51    94    95    1
    52    95    97   am
    53   109   107   ar
    54   109   110   ar
    55    72    73    1
    56    82    84   ar
    57    55    54    1
    58   107   104   ar
    59    43    44    1
    60    50    53    1
    61    85    86   ar
    62    65    66    1
    63    65    67    1
    64    34    35    1
    65   110   108   ar
    66    97    98    1
    67    27    28    1
    68    44    45    1
    69    84    86   ar
    70   101    98    1
    71   101   102    1
    72    73    75   am
    73    73    74    2
    74    54    53    1
    75    98    99    1
    76   104   102   ar
    77   104   106   ar
    78    36    35    2
    79    35    37   am
    80   102   103   ar
    81   108   106   ar
    82   106   105   ar
    83   119   117   ar
    84   119   121   ar
    85    45    46    2
    86    99   111   am
    87    99   100    2
    88   117   116   ar
    89   122   121    1
    90   111   112    1
    91   103   105   ar
    92   121   120   ar
    93    47    46    1
    94    46    48    1
    95   176   175    2
    96   175   174    1
    97   116   115    1
    98   116   118   ar
    99   115   112    1
   100   112   113    1
   101   120   118   ar
   102   174   173    1
   103   174   177    1
   104   114   113    2
   105   113   123   am
   106   177   178    1
   107   180   178   ar
   108   180   182   ar
   109   158   156    1
   110    22    21    1
   111   147   145   ar
   112   123   124    1
   113   178   179   ar
   114   138   137   ar
   115   139   137   ar
   116   182   183   ar
   117   145   146   ar
   118   145   144    1
   119   137   136    1
   120   156   155    2
   121   156   157    1
   122    21    18    1
   123   144   141    1
   124   155   154    1
   125   124   125    1
   126   124   127    1
   127   179   181   ar
   128   126   125    2
   129   135   136    1
   130   135   132    1
   131   183   181   ar
   132   183   184    1
   133    18    19    1
   134    18    17    1
   135   127   128    1
   136   133   134    2
   137   133   132    1
   138   141   142    1
   139   141   140    1
   140   154   153    1
   141   143   142    2
   142   132   131    1
   143    19    20    2
   144    16    14    1
   145   150   149    1
   146   150   151    2
   147    15    14    1
   148   152   153    1
   149   152   149    1
   150   171   172   ar
   151   171   169   ar
   152   149   148    1
   153   128   129    1
   154   172   170   ar
   155    14    13    1
   156   169   166   ar
   157    13    10    1
   158   129   130    1
   159   170   168   ar
   160    10    11    1
   161    10     9    1
   162   166   168   ar
   163   166   164   ar
   164     4     3    2
   165   168   167   ar
   166     6     7    1
   167     6     5    1
   168    11    12    2
   169     7     8    1
   170     3     9   am
   171     3     2    1
   172   164   163    1
   173   164   165   ar
   174   167   165   ar
   175     5     2    1
   176   163   160    1
   177   162   161    2
   178     2     1    1
   179   161   160    1
   180   160   159    1
