@<TRIPOS>MOLECULE
tmp/3n2sC01.pdb
 71 69 0 0 0
SMALL
GASTEIGER

@<TRIPOS>ATOM
      1  N         56.0200    3.5260   -9.8390 N.3    35  ALA35      -0.1231
      2  CA        55.6840    4.4040  -10.9760 C.3    35  ALA35       0.1694
      3  C         56.0550    5.8840  -10.7300 C.2    35  ALA35       0.2592
      4  O         56.0060    6.6950  -11.6540 O.2    35  ALA35      -0.2718
      5  CB        54.1980    4.2820  -11.2990 C.3    35  ALA35       0.0304
      6  N         56.3920    6.2500   -9.4810 N.am   36  ALA36      -0.1966
      7  CA        56.7640    7.6400   -9.1720 C.3    36  ALA36       0.1728
      8  C         58.0260    8.0300   -9.9390 C.2    36  ALA36       0.2617
      9  O         58.8470    7.1710  -10.2690 O.2    36  ALA36      -0.2715
     10  CB        57.0120    7.7920   -7.6680 C.3    36  ALA36       0.0334
     11  N         58.1860    9.3220  -10.2110 N.am   37  SER37      -0.1936
     12  CA        59.4180    9.8730  -10.7900 C.3    37  SER37       0.2055
     13  C         60.5680    9.5100   -9.8500 C.2    37  SER37       0.2644
     14  O         60.3570    9.3060   -8.6500 O.2    37  SER37      -0.2714
     15  CB        59.3250   11.3920  -10.8820 C.3    37  SER37       0.2130
     16  OG        58.3280   11.7850  -11.8060 O.3    37  SER37      -0.2179
     17  N         61.7820    9.4490  -10.3900 N.am   38  THR38      -0.1936
     18  CA        62.9710    9.0520   -9.6500 C.3    38  THR38       0.2028
     19  C         64.1790    9.8040  -10.2110 C.2    38  THR38       0.2643
     20  O         64.4220    9.7640  -11.4290 O.2    38  THR38      -0.2714
     21  CB        63.1610    7.5060   -9.6690 C.3    38  THR38       0.1808
     22  OG1       64.5110    7.2060   -9.2830 O.3    38  THR38      -0.2208
     23  CG2       62.9160    6.8940  -11.0590 C.3    38  THR38       0.0379
     24  N         64.9150   10.4910   -9.3160 N.am   39  SER39      -0.1935
     25  CA        66.1030   11.2850   -9.6860 C.3    39  SER39       0.2055
     26  C         67.1100   10.4400  -10.4550 C.2    39  SER39       0.2644
     27  O         67.5290    9.3990   -9.9530 O.2    39  SER39      -0.2714
     28  CB        66.8000   11.8170   -8.4390 C.3    39  SER39       0.2130
     29  OG        65.9910   12.6860   -7.6750 O.3    39  SER39      -0.2179
     30  N         67.5000   10.8920  -11.6570 N.am   40  SER40      -0.1935
     31  CA        68.4610   10.2320  -12.5440 C.3    40  SER40       0.2055
     32  C         68.1730    8.7320  -12.7390 C.2    40  SER40       0.2643
     33  O         69.1180    7.9610  -12.9270 O.2    40  SER40      -0.2714
     34  CB        69.9010   10.4550  -12.0680 C.3    40  SER40       0.2130
     35  OG        70.2230   11.8280  -11.9300 O.3    40  SER40      -0.2179
     36  N         66.8770    8.3150  -12.6440 N.am   41  TYR41      -0.1973
     37  CA        66.4220    6.9240  -12.8430 C.3    41  TYR41       0.1639
     38  C         66.9980    5.9500  -11.7790 C.2    41  TYR41       0.2290
     39  O         66.8730    4.7270  -11.9350 O.2    41  TYR41      -0.2864
     40  CB        66.9120    6.4670  -14.2400 C.3    41  TYR41       0.0560
     41  CG        66.0970    5.4370  -14.9950 C.ar   41  TYR41      -0.0198
     42  CD1       64.8580    5.0060  -14.5220 C.ar   41  TYR41      -0.0009
     43  CD2       66.5250    4.9620  -16.2280 C.ar   41  TYR41      -0.0009
     44  CE1       64.0840    4.1010  -15.2450 C.ar   41  TYR41       0.0417
     45  CE2       65.7580    4.0670  -16.9630 C.ar   41  TYR41       0.0417
     46  CZ        64.5440    3.6380  -16.4690 C.ar   41  TYR41       0.1957
     47  OH        63.8070    2.7730  -17.2200 O.3    41  TYR41      -0.2866
     48  N         64.0830   11.5950   -0.9650 N.3   109  ILE109     -0.1231
     49  CA        63.0460   12.1140   -1.8730 C.3   109  ILE109      0.1692
     50  C         62.4550   10.9720   -2.7160 C.2   109  ILE109      0.2592
     51  O         61.2340   10.8780   -2.8340 O.2   109  ILE109     -0.2718
     52  CB        63.5760   13.3060   -2.7190 C.3   109  ILE109      0.0266
     53  CG1       63.8720   14.5330   -1.7850 C.3   109  ILE109      0.0019
     54  CG2       62.5490   13.6860   -3.8050 C.3   109  ILE109      0.0020
     55  CD1       64.8050   15.6080   -2.4050 C.3   109  ILE109      0.0001
     56  N         63.3150   10.0960   -3.2700 N.am  110  ASP110     -0.1974
     57  CA        62.8350    8.9650   -4.0940 C.3   110  ASP110      0.1709
     58  C         61.8810    8.0860   -3.2990 C.2   110  ASP110      0.2293
     59  O         60.8170    7.7330   -3.8120 O.2   110  ASP110     -0.2864
     60  CB        64.0130    8.1310   -4.6190 C.3   110  ASP110      0.1436
     61  CG        64.4160    8.4000   -6.0530 C.2   110  ASP110      0.3671
     62  OD1       64.1420    9.5060   -6.5480 O.co2 110  ASP110     -0.2456
     63  OD2       65.0240    7.5050   -6.6740 O.co2 110  ASP110     -0.2456
     64  N         58.4600    9.9910   -2.6120 N.3   113  LEU113     -0.1245
     65  CA        57.5680   10.0530   -3.7800 C.3   113  LEU113      0.1561
     66  C         56.8930    8.6970   -3.9930 C.2   113  LEU113      0.2260
     67  O         55.6920    8.6450   -4.2800 O.2   113  LEU113     -0.2867
     68  CB        58.2920   10.4770   -5.0790 C.3   113  LEU113      0.0270
     69  CG        59.1110   11.7860   -5.0690 C.3   113  LEU113      0.0019
     70  CD1       59.7270   12.0410   -6.4310 C.3   113  LEU113      0.0001
     71  CD2       58.2960   12.9740   -4.6120 C.3   113  LEU113      0.0001
@<TRIPOS>BOND
     1    47    46    1
     2    45    46   ar
     3    45    43   ar
     4    46    44   ar
     5    43    41   ar
     6    44    42   ar
     7    41    42   ar
     8    41    40    1
     9    40    37    1
    10    33    32    2
    11    37    36    1
    12    37    38    1
    13    32    36   am
    14    32    31    1
    15    31    34    1
    16    31    30    1
    17    34    35    1
    18    39    38    2
    19    16    15    1
    20    30    26   am
    21     4     3    2
    22    20    19    2
    23     5     2    1
    24    23    21    1
    25     2     3    1
    26     2     1    1
    27    15    12    1
    28    12    11    1
    29    12    13    1
    30     3     6   am
    31    26    27    2
    32    26    25    1
    33    17    13   am
    34    17    18    1
    35     9     8    2
    36    19    18    1
    37    19    24   am
    38    11     8   am
    39     8     7    1
    40    13    14    2
    41    25    24    1
    42    25    28    1
    43    21    18    1
    44    21    22    1
    45     6     7    1
    46     7    10    1
    47    28    29    1
    48    63    61   ar
    49    62    61   ar
    50    70    69    1
    51    61    60    1
    52    68    69    1
    53    68    65    1
    54    69    71    1
    55    60    57    1
    56    67    66    2
    57    57    58    1
    58    57    56    1
    59    66    65    1
    60    59    58    2
    61    54    52    1
    62    65    64    1
    63    56    50   am
    64    51    50    2
    65    52    49    1
    66    52    53    1
    67    50    49    1
    68    55    53    1
    69    49    48    1
