@<TRIPOS>MOLECULE
tmp/3n2sC00.pdb
 139 133 0 0 0
SMALL
GASTEIGER

@<TRIPOS>ATOM
      1  N         41.9000   13.0890    2.0380 N.3    10  HIS10      -0.1226
      2  CA        42.8380   12.4120    2.9340 C.3    10  HIS10       0.1752
      3  C         42.7500   12.7870    4.4060 C.2    10  HIS10       0.2596
      4  O         42.6760   13.9590    4.7700 O.2    10  HIS10      -0.2718
      5  CB        44.3140   12.5870    2.4800 C.3    10  HIS10       0.0759
      6  CG        45.2860   12.1600    3.5400 C.ar   10  HIS10       0.0818
      7  ND1       45.7890   13.0670    4.4670 N.ar   10  HIS10      -0.2268
      8  CD2       45.6900   10.9210    3.8880 C.ar   10  HIS10       0.1154
      9  CE1       46.5340   12.3530    5.3010 C.ar   10  HIS10       0.1986
     10  NE2       46.4960   11.0600    4.9990 N.ar   10  HIS10      -0.2212
     11  N         42.8460   11.7700    5.2390 N.am   11  ARG11      -0.1966
     12  CA        43.0510   11.8130    6.6820 C.3    11  ARG11       0.1729
     13  C         43.7450   10.4980    7.0350 C.2    11  ARG11       0.2616
     14  O         43.5100    9.4670    6.3800 O.2    11  ARG11      -0.2715
     15  CB        41.7610   12.0760    7.5030 C.3    11  ARG11       0.0348
     16  CG        40.8670   10.8530    7.8230 C.3    11  ARG11       0.0492
     17  CD        40.1970   10.2010    6.5850 C.3    11  ARG11       0.2205
     18  NE        39.4980   11.1650    5.7250 N.pl3  11  ARG11      -0.0865
     19  CZ        38.2710   11.6350    5.9360 C.cat  11  ARG11       0.5346
     20  NH1       37.5790   11.2600    7.0050 N.pl3  11  ARG11       0.1354
     21  NH2       37.7330   12.4980    5.0870 N.pl3  11  ARG11       0.1354
     22  N         44.6270   10.5470    8.0290 N.am   12  SER12      -0.1950
     23  CA        45.3420    9.3860    8.5320 C.3    12  SER12       0.1924
     24  C         44.3450    8.4470    9.2070 C.2    12  SER12       0.2314
     25  O         43.4730    8.9070    9.9470 O.2    12  SER12      -0.2863
     26  CB        46.4180    9.8270    9.5230 C.3    12  SER12       0.2116
     27  OG        47.4490   10.5190    8.8330 O.3    12  SER12      -0.2180
     28  N         43.8810    5.2830   11.7440 N.3    14  ARG14      -0.1245
     29  CA        44.6210    4.5900   12.8040 C.3    14  ARG14       0.1563
     30  C         43.7980    3.4500   13.4280 C.2    14  ARG14       0.2260
     31  O         44.1990    2.8730   14.4430 O.2    14  ARG14      -0.2867
     32  CB        45.0900    5.5900   13.8680 C.3    14  ARG14       0.0307
     33  CG        46.0630    6.6460   13.3550 C.3    14  ARG14       0.0489
     34  CD        46.4250    7.6560   14.4390 C.3    14  ARG14       0.2205
     35  NE        47.4130    8.6270   13.9360 N.pl3  14  ARG14      -0.0865
     36  CZ        47.0880    9.7600   13.3230 C.cat  14  ARG14       0.5346
     37  NH1       45.8120   10.0800   13.1350 N.pl3  14  ARG14       0.1354
     38  NH2       48.0340   10.5790   12.8850 N.pl3  14  ARG14       0.1354
     39  N         52.3820    1.9350   19.0030 N.3    66  GLN66      -0.1245
     40  CA        51.3530    2.4210   18.0730 C.3    66  GLN66       0.1566
     41  C         50.6650    1.1580   17.5890 C.2    66  GLN66       0.2260
     42  O         51.2730    0.3930   16.8360 O.2    66  GLN66      -0.2867
     43  CB        52.0020    3.2010   16.9160 C.3    66  GLN66       0.0367
     44  CG        52.8160    4.3720   17.4280 C.3    66  GLN66       0.0905
     45  CD        53.0700    5.4090   16.3710 C.2    66  GLN66       0.2608
     46  OE1       52.1610    5.8800   15.7000 O.2    66  GLN66      -0.2717
     47  NE2       54.3070    5.8250   16.2310 N.am   66  GLN66      -0.0878
     48  N         48.2300    0.4110   15.5950 N.3    68  TYR68      -0.1241
     49  CA        47.9150    0.3630   14.1680 C.3    68  TYR68       0.1605
     50  C         49.1260   -0.0510   13.3040 C.2    68  TYR68       0.2264
     51  O         48.9720   -0.2460   12.1100 O.2    68  TYR68      -0.2867
     52  CB        47.2310    1.6650   13.7060 C.3    68  TYR68       0.0534
     53  CG        47.7800    2.9110   14.3680 C.ar   68  TYR68      -0.0201
     54  CD1       48.7360    3.7010   13.7340 C.ar   68  TYR68      -0.0009
     55  CD2       47.3370    3.3060   15.6280 C.ar   68  TYR68      -0.0009
     56  CE1       49.2340    4.8570   14.3380 C.ar   68  TYR68       0.0417
     57  CE2       47.8450    4.4440   16.2500 C.ar   68  TYR68       0.0417
     58  CZ        48.7980    5.2160   15.6030 C.ar   68  TYR68       0.1957
     59  OH        49.2850    6.3500   16.2160 O.3    68  TYR68      -0.2866
     60  N         48.3250    5.2950    7.2310 N.3   128  CYS128     -0.1221
     61  CA        48.9760    6.1310    8.2290 C.3   128  CYS128      0.1808
     62  C         50.4700    5.9490    8.1200 C.2   128  CYS128      0.2601
     63  O         50.9680    4.8260    8.2070 O.2   128  CYS128     -0.2717
     64  CB        48.4770    5.8740    9.6540 C.3   128  CYS128      0.0970
     65  SG        49.0080    7.1430   10.8480 S.3   128  CYS128     -0.0800
     66  N         51.1940    7.0500    7.8700 N.am  129  TYR129     -0.1962
     67  CA        52.6650    7.0250    7.8550 C.3   129  TYR129      0.1771
     68  C         53.1280    6.8390    9.2890 C.2   129  TYR129      0.2619
     69  O         52.4590    7.3250   10.1940 O.2   129  TYR129     -0.2715
     70  CB        53.2220    8.3610    7.3520 C.3   129  TYR129      0.0574
     71  CG        53.2190    8.4840    5.8480 C.ar  129  TYR129     -0.0198
     72  CD1       54.3760    8.2580    5.1110 C.ar  129  TYR129     -0.0009
     73  CD2       52.0670    8.8460    5.1630 C.ar  129  TYR129     -0.0009
     74  CE1       54.3870    8.3970    3.7270 C.ar  129  TYR129      0.0417
     75  CE2       52.0690    9.0010    3.7800 C.ar  129  TYR129      0.0417
     76  CZ        53.2270    8.7530    3.0650 C.ar  129  TYR129      0.1957
     77  OH        53.2570    8.9020    1.7060 O.3   129  TYR129     -0.2866
     78  N         54.2320    6.1030    9.4960 N.am  130  ILE130     -0.1963
     79  CA        54.7790    5.8000   10.8250 C.3   130  ILE130      0.1727
     80  C         56.2630    6.1710   10.9010 C.2   130  ILE130      0.2617
     81  O         57.1350    5.3380   10.6540 O.2   130  ILE130     -0.2715
     82  CB        54.5260    4.3140   11.2770 C.3   130  ILE130      0.0290
     83  CG1       53.0360    3.8750   11.1220 C.3   130  ILE130      0.0022
     84  CG2       55.0670    4.0700   12.7210 C.3   130  ILE130      0.0023
     85  CD1       51.9880    4.5990   12.0670 C.3   130  ILE130      0.0001
     86  N         56.5230    7.4150   11.2710 N.am  131  GLY131     -0.1940
     87  CA        57.8740    7.9220   11.4780 C.3   131  GLY131      0.2014
     88  C         58.4260    7.4790   12.8180 C.2   131  GLY131      0.2639
     89  O         59.6280    7.5880   13.0480 O.2   131  GLY131     -0.2714
     90  N         57.5420    6.9700   13.6950 N.am  132  GLY132     -0.1954
     91  CA        57.8600    6.4410   15.0250 C.3   132  GLY132      0.1869
     92  C         58.9350    5.3700   15.0310 C.2   132  GLY132      0.2309
     93  O         59.6660    5.2470   16.0150 O.2   132  GLY132     -0.2863
     94  N         61.6840    5.6160   13.7020 N.3   134  ARG134     -0.1245
     95  CA        62.9460    6.3580   13.8440 C.3   134  ARG134      0.1563
     96  C         63.3570    6.6050   15.3100 C.2   134  ARG134      0.2260
     97  O         64.4260    7.1710   15.5490 O.2   134  ARG134     -0.2867
     98  CB        62.9630    7.6730   13.0320 C.3   134  ARG134      0.0307
     99  CG        62.9300    7.4390   11.5180 C.3   134  ARG134      0.0489
    100  CD        63.4350    8.6390   10.7170 C.3   134  ARG134      0.2205
    101  NE        62.8030    9.9000   11.1180 N.pl3 134  ARG134     -0.0865
    102  CZ        61.6290   10.3430   10.6880 C.cat 134  ARG134      0.5346
    103  NH1       60.9220    9.6330    9.8080 N.pl3 134  ARG134      0.1354
    104  NH2       61.1440   11.4880   11.1410 N.pl3 134  ARG134      0.1354
    105  N         60.3560    5.4100    7.3990 N.3   154  PHE154     -0.1241
    106  CA        59.0290    5.4050    7.9960 C.3   154  PHE154      0.1605
    107  C         58.2990    4.1740    7.5230 C.2   154  PHE154      0.2264
    108  O         58.6080    3.6140    6.4740 O.2   154  PHE154     -0.2867
    109  CB        58.2220    6.6910    7.6060 C.3   154  PHE154      0.0534
    110  CG        58.2310    6.9730    6.1190 C.ar  154  PHE154     -0.0203
    111  CD1       57.3520    6.3170    5.2630 C.ar  154  PHE154     -0.0042
    112  CD2       59.1440    7.8700    5.5690 C.ar  154  PHE154     -0.0042
    113  CE1       57.4010    6.5360    3.8860 C.ar  154  PHE154     -0.0003
    114  CE2       59.1850    8.1000    4.1880 C.ar  154  PHE154     -0.0003
    115  CZ        58.3200    7.4250    3.3550 C.ar  154  PHE154     -0.0000
    116  N         38.5010   12.0750   10.8560 N.3   166  GLY166     -0.1225
    117  CA        38.1150   13.3220   10.2080 C.3   166  GLY166      0.1811
    118  C         39.3050   14.0850    9.6830 C.2   166  GLY166      0.2280
    119  O         40.4250   13.8620   10.1390 O.2   166  GLY166     -0.2866
    120  N         41.9420   17.1890    9.0440 N.3   168  LYS168     -0.1245
    121  CA        42.6290   18.1980    9.8560 C.3   168  LYS168      0.1561
    122  C         42.9480   19.3840    8.9650 C.2   168  LYS168      0.2260
    123  O         43.5200   19.1890    7.8770 O.2   168  LYS168     -0.2867
    124  CB        43.9240   17.6180   10.4380 C.3   168  LYS168      0.0271
    125  CG        43.7190   16.9180   11.7650 C.3   168  LYS168      0.0035
    126  CD        44.9480   16.1360   12.1320 C.3   168  LYS168      0.0206
    127  CE        45.5030   16.5840   13.4550 C.3   168  LYS168      0.1093
    128  NZ        46.8640   16.0380   13.6600 N.3   168  LYS168     -0.1314
    129  N         44.6890   22.4110    7.0540 N.3   170  ARG170     -0.1245
    130  CA        46.0770   22.7070    6.6980 C.3   170  ARG170      0.1563
    131  C         46.3180   24.2040    6.7990 C.2   170  ARG170      0.2260
    132  O         45.3630   24.9800    6.8440 O.2   170  ARG170     -0.2867
    133  CB        46.3710   22.2200    5.2540 C.3   170  ARG170      0.0307
    134  CG        46.2990   20.6800    5.1030 C.3   170  ARG170      0.0489
    135  CD        47.3860   20.0160    5.9230 C.3   170  ARG170      0.2205
    136  NE        47.5580   18.5980    5.6040 N.pl3 170  ARG170     -0.0865
    137  CZ        47.0200   17.5920    6.2910 C.cat 170  ARG170      0.5346
    138  NH1       46.2400   17.8320    7.3410 N.pl3 170  ARG170      0.1354
    139  NH2       47.2800   16.3400    5.9520 N.pl3 170  ARG170      0.1354
@<TRIPOS>BOND
     1    77    76    1
     2     1     2    1
     3     5     2    1
     4     5     6    1
     5     2     3    1
     6    76    74   ar
     7    76    75   ar
     8   115   113   ar
     9   115   114   ar
    10     6     8   ar
    11     6     7   ar
    12    74    72   ar
    13    75    73   ar
    14   113   111   ar
    15     8    10   ar
    16   114   112   ar
    17     3     4    2
    18     3    11   am
    19     7     9   ar
    20    10     9   ar
    21    21    19    1
    22   134   133    1
    23   134   135    1
    24    72    71   ar
    25    73    71   ar
    26    11    12    1
    27   133   130    1
    28   111   110   ar
    29   112   110   ar
    30   136   135    1
    31   136   137    2
    32    18    19    2
    33    18    17    1
    34    71    70    1
    35    19    20    1
    36   139   137    1
    37   110   109    1
    38   137   138    1
    39    14    13    2
    40   108   107    2
    41    17    16    1
    42    12    13    1
    43    12    15    1
    44   130   131    1
    45   130   129    1
    46   131   132    2
    47    13    22   am
    48    60    61    1
    49    70    67    1
    50   105   106    1
    51    15    16    1
    52   107   106    1
    53   109   106    1
    54    67    66    1
    55    67    68    1
    56    66    62   am
    57   123   122    2
    58    22    23    1
    59    62    63    2
    60    62    61    1
    61    61    64    1
    62    23    24    1
    63    23    26    1
    64    27    26    1
    65   122   121    1
    66   120   121    1
    67    24    25    2
    68    68    78   am
    69    68    69    2
    70    78    79    1
    71    64    65    1
    72   118   119    2
    73   118   117    1
    74   103   102    1
    75   121   124    1
    76   117   116    1
    77   124   125    1
    78    81    80    2
    79   102   101    2
    80   102   104    1
    81   100   101    1
    82   100    99    1
    83    79    80    1
    84    79    82    1
    85    80    86   am
    86    83    82    1
    87    83    85    1
    88    86    87    1
    89    82    84    1
    90    87    88    1
    91    99    98    1
    92    28    29    1
    93   125   126    1
    94    51    50    2
    95   126   127    1
    96    29    30    1
    97    29    32    1
    98    88    89    2
    99    88    90   am
   100    38    36    1
   101    98    95    1
   102    37    36    1
   103    50    49    1
   104    36    35    2
   105    33    32    1
   106    33    34    1
   107    30    31    2
   108   127   128    1
   109    90    91    1
   110    94    95    1
   111    52    49    1
   112    52    53    1
   113    54    56   ar
   114    54    53   ar
   115    95    96    1
   116    35    34    1
   117    49    48    1
   118    56    58   ar
   119    53    55   ar
   120    91    92    1
   121    92    93    2
   122    96    97    2
   123    58    59    1
   124    58    57   ar
   125    55    57   ar
   126    46    45    2
   127    47    45   am
   128    45    44    1
   129    42    41    2
   130    43    44    1
   131    43    40    1
   132    41    40    1
   133    40    39    1
