@<TRIPOS>MOLECULE
tmp/3n2uA00.pdb
 142 142 0 0 0
SMALL
GASTEIGER

@<TRIPOS>ATOM
      1  N         -3.4610  -11.5680    3.4570 N.3    74  GLY74      -0.1210
      2  CA        -3.1490  -10.3990    2.6500 C.3    74  GLY74       0.1956
      3  C         -2.6140   -9.2670    3.5160 C.2    74  GLY74       0.2612
      4  O         -1.6810   -9.4590    4.2920 O.2    74  GLY74      -0.2717
      5  N         -3.2440   -8.1050    3.3950 N.am   75  ILE75      -0.1965
      6  CA        -2.8190   -6.8920    4.1080 C.3    75  ILE75       0.1727
      7  C         -3.0960   -7.0600    5.5970 C.2    75  ILE75       0.2616
      8  O         -4.2320   -7.3740    5.9860 O.2    75  ILE75      -0.2715
      9  CB        -3.5550   -5.6450    3.5660 C.3    75  ILE75       0.0290
     10  CG1       -3.1420   -5.3720    2.1130 C.3    75  ILE75       0.0022
     11  CG2       -3.3120   -4.4120    4.4560 C.3    75  ILE75       0.0023
     12  CD1       -1.6080   -5.4410    1.8810 C.3    75  ILE75       0.0001
     13  N         -2.0650   -6.8500    6.4110 N.am   76  LEU76      -0.1963
     14  CA        -2.1650   -7.0210    7.8660 C.3    76  LEU76       0.1728
     15  C         -2.4020   -5.7010    8.5910 C.2    76  LEU76       0.2616
     16  O         -3.0760   -5.6540    9.6440 O.2    76  LEU76      -0.2715
     17  CB        -0.8910   -7.6710    8.4070 C.3    76  LEU76       0.0311
     18  CG        -0.4010   -8.9200    7.6750 C.3    76  LEU76       0.0022
     19  CD1        0.9750   -9.2860    8.1720 C.3    76  LEU76       0.0001
     20  CD2       -1.3820  -10.0900    7.8770 C.3    76  LEU76       0.0001
     21  N         -1.8450   -4.6300    8.0240 N.am   77  ALA77      -0.1963
     22  CA        -1.9510   -3.2980    8.6200 C.3    77  ALA77       0.1728
     23  C         -1.5170   -2.2420    7.6220 C.2    77  ALA77       0.2616
     24  O         -0.8340   -2.5560    6.6470 O.2    77  ALA77      -0.2715
     25  CB        -1.0410   -3.2330    9.8450 C.3    77  ALA77       0.0334
     26  N         -1.8750   -0.9830    7.8680 N.am   78  HIS78      -0.1973
     27  CA        -1.3010    0.1180    7.0620 C.3    78  HIS78       0.1656
     28  C         -1.2100    1.3530    7.9510 C.2    78  HIS78       0.2291
     29  O         -1.9350    1.4450    8.9300 O.2    78  HIS78      -0.2864
     30  CB        -2.1560    0.4090    5.8290 C.3    78  HIS78       0.0771
     31  CG        -3.4020    1.1680    6.1390 C.ar   78  HIS78       0.0820
     32  ND1       -3.4990    2.5320    5.9740 N.ar   78  HIS78      -0.2267
     33  CD2       -4.5800    0.7700    6.6670 C.ar   78  HIS78       0.1154
     34  CE1       -4.6930    2.9340    6.3620 C.ar   78  HIS78       0.1986
     35  NE2       -5.3650    1.8870    6.7960 N.ar   78  HIS78      -0.2212
     36  N          5.9140   -7.1350   15.9760 N.3   109  LEU109     -0.1231
     37  CA         6.7150   -7.0830   14.7330 C.3   109  LEU109      0.1693
     38  C          6.0240   -6.2470   13.6730 C.2   109  LEU109      0.2592
     39  O          6.6580   -5.4300   12.9690 O.2   109  LEU109     -0.2718
     40  CB         6.9450   -8.5030   14.1840 C.3   109  LEU109      0.0284
     41  CG         7.9960   -9.3480   14.9130 C.3   109  LEU109      0.0019
     42  CD1        8.0110  -10.7620   14.3620 C.3   109  LEU109      0.0001
     43  CD2        9.3620   -8.7020   14.7640 C.3   109  LEU109      0.0001
     44  N          4.7140   -6.4650   13.5420 N.am  110  THR110     -0.1953
     45  CA         3.8880   -5.6500   12.6490 C.3   110  THR110      0.1897
     46  C          3.9080   -4.1590   13.0420 C.2   110  THR110      0.2313
     47  O          4.0610   -3.2820   12.1670 O.2   110  THR110     -0.2863
     48  CB         2.4320   -6.1890   12.5780 C.3   110  THR110      0.1794
     49  OG1        2.4850   -7.6060   12.3660 O.3   110  THR110     -0.2208
     50  CG2        1.6650   -5.5350   11.4240 C.3   110  THR110      0.0378
     51  N          7.0550   -2.2560   12.0570 N.3   113  HIS113     -0.1226
     52  CA         6.9820   -1.8860   10.6390 C.3   113  HIS113      0.1752
     53  C          6.0390   -0.6950   10.4170 C.2   113  HIS113      0.2595
     54  O          6.3920    0.2750    9.7460 O.2   113  HIS113     -0.2718
     55  CB         6.5340   -3.1330    9.8430 C.3   113  HIS113      0.0759
     56  CG         6.3250   -2.9010    8.3680 C.ar  113  HIS113      0.0818
     57  ND1        7.2070   -3.3570    7.4120 N.ar  113  HIS113     -0.2268
     58  CD2        5.3260   -2.2840    7.6910 C.ar  113  HIS113      0.1154
     59  CE1        6.7630   -3.0330    6.2060 C.ar  113  HIS113      0.1986
     60  NE2        5.6240   -2.3750    6.3480 N.ar  113  HIS113     -0.2212
     61  N          4.8390   -0.7640   10.9920 N.am  114  GLU114     -0.1979
     62  CA         3.8180    0.2860   10.8470 C.3   114  GLU114      0.1602
     63  C          4.3130    1.6260   11.4060 C.2   114  GLU114      0.2287
     64  O          4.1310    2.6820   10.7920 O.2   114  GLU114     -0.2864
     65  CB         2.5120   -0.1320   11.5500 C.3   114  GLU114      0.0415
     66  CG         1.7790   -1.2780   10.8650 C.3   114  GLU114      0.1163
     67  CD         1.7360   -1.1100    9.3530 C.2   114  GLU114      0.3649
     68  OE1        2.2710   -1.9590    8.6120 O.co2 114  GLU114     -0.2457
     69  OE2        1.1900   -0.0980    8.9000 O.co2 114  GLU114     -0.2457
     70  N          6.5760    3.4880    9.1170 N.3   117  HIS117     -0.1241
     71  CA         5.7740    4.3440    8.2300 C.3   117  HIS117      0.1621
     72  C          5.2630    5.5890    8.9520 C.2   117  HIS117      0.2264
     73  O          5.3520    6.6870    8.3940 O.2   117  HIS117     -0.2867
     74  CB         4.5490    3.6090    7.6650 C.3   117  HIS117      0.0745
     75  CG         4.8800    2.4910    6.7240 C.ar  117  HIS117      0.0817
     76  ND1        5.6740    2.6630    5.6080 N.ar  117  HIS117     -0.2268
     77  CD2        4.4460    1.2090    6.6860 C.ar  117  HIS117      0.1154
     78  CE1        5.7620    1.5170    4.9560 C.ar  117  HIS117      0.1986
     79  NE2        5.0130    0.6240    5.5800 N.ar  117  HIS117     -0.2212
     80  N          9.1720    1.4360    2.1430 N.3   123  HIS123     -0.1241
     81  CA         9.5790    0.0440    2.1510 C.3   123  HIS123      0.1621
     82  C         11.0230   -0.1120    1.7120 C.2   123  HIS123      0.2264
     83  O         11.5810    0.7710    1.0440 O.2   123  HIS123     -0.2867
     84  CB         8.6410   -0.8010    1.2850 C.3   123  HIS123      0.0745
     85  CG         7.3170   -1.0600    1.9330 C.ar  123  HIS123      0.0817
     86  ND1        6.1500   -1.2170    1.2160 N.ar  123  HIS123     -0.2268
     87  CD2        6.9740   -1.1630    3.2420 C.ar  123  HIS123      0.1154
     88  CE1        5.1460   -1.4260    2.0530 C.ar  123  HIS123      0.1986
     89  NE2        5.6230   -1.4250    3.2870 N.ar  123  HIS123     -0.2212
     90  N         13.0940   -4.7330    8.5010 N.3   130  VAL130     -0.1245
     91  CA        11.7590   -4.8230    9.0610 C.3   130  VAL130      0.1561
     92  C         10.7570   -4.1520    8.1200 C.2   130  VAL130      0.2260
     93  O          9.6020   -4.5360    8.0930 O.2   130  VAL130     -0.2867
     94  CB        11.6730   -4.2960   10.5320 C.3   130  VAL130      0.0252
     95  CG1       11.6880   -2.7650   10.5980 C.3   130  VAL130      0.0019
     96  CG2       10.4290   -4.8730   11.2320 C.3   130  VAL130      0.0019
     97  N         10.8570   -4.3260    4.8720 N.3   132  PHE132     -0.1228
     98  CA        10.5420   -5.1750    3.7120 C.3   132  PHE132      0.1721
     99  C          9.0420   -5.4950    3.7230 C.2   132  PHE132      0.2437
    100  O          8.5000   -5.8140    4.7820 O.2   132  PHE132     -0.2733
    101  CB        11.3570   -6.4540    3.7820 C.3   132  PHE132      0.0547
    102  CG        11.2330   -7.3300    2.5610 C.ar  132  PHE132     -0.0202
    103  CD1       11.8420   -6.9730    1.3670 C.ar  132  PHE132     -0.0042
    104  CD2       10.5050   -8.5100    2.6110 C.ar  132  PHE132     -0.0042
    105  CE1       11.7310   -7.7970    0.2450 C.ar  132  PHE132     -0.0003
    106  CE2       10.4070   -9.3300    1.4920 C.ar  132  PHE132     -0.0003
    107  CZ        11.0180   -8.9530    0.3110 C.ar  132  PHE132     -0.0000
    108  N          8.3650   -5.3850    2.5610 N.am  133  PRO133     -0.2718
    109  CA         6.8970   -5.4540    2.5100 C.3   133  PRO133      0.1535
    110  C          6.2490   -6.8370    2.7140 C.2   133  PRO133      0.2599
    111  O          5.0650   -6.9810    2.4610 O.2   133  PRO133     -0.2715
    112  CB         6.5490   -4.8880    1.1240 C.3   133  PRO133      0.0310
    113  CG         7.7930   -4.6780    0.3970 C.3   133  PRO133      0.0237
    114  CD         8.9600   -5.1410    1.2360 C.3   133  PRO133      0.0939
    115  N          7.0080   -7.8370    3.1510 N.am  134  THR134     -0.1937
    116  CA         6.4590   -9.1600    3.4160 C.3   134  THR134      0.2028
    117  C          6.6680   -9.5280    4.8900 C.2   134  THR134      0.2642
    118  O          7.7990   -9.5180    5.3900 O.2   134  THR134     -0.2714
    119  CB         7.1100  -10.2510    2.5110 C.3   134  THR134      0.1808
    120  OG1        7.0390   -9.8590    1.1300 O.3   134  THR134     -0.2208
    121  CG2        6.4070  -11.6080    2.6960 C.3   134  THR134      0.0379
    122  N          5.5810   -9.8520    5.5790 N.am  135  TYR135     -0.1959
    123  CA         5.6580  -10.2980    6.9710 C.3   135  TYR135      0.1771
    124  C          6.3240  -11.6800    7.0540 C.2   135  TYR135      0.2619
    125  O          5.8790  -12.6170    6.4000 O.2   135  TYR135     -0.2715
    126  CB         4.2570  -10.3820    7.5940 C.3   135  TYR135      0.0574
    127  CG         4.2300  -10.9940    8.9910 C.ar  135  TYR135     -0.0198
    128  CD1        4.2580  -10.1830   10.1230 C.ar  135  TYR135     -0.0009
    129  CD2        4.1610  -12.3870    9.1850 C.ar  135  TYR135     -0.0009
    130  CE1        4.2440  -10.7260   11.4120 C.ar  135  TYR135      0.0417
    131  CE2        4.1530  -12.9380   10.4850 C.ar  135  TYR135      0.0417
    132  CZ         4.1820  -12.0910   11.5880 C.ar  135  TYR135      0.1957
    133  OH         4.1600  -12.5930   12.8690 O.3   135  TYR135     -0.2866
    134  N          7.3900  -11.7830    7.8370 N.am  136  LYS136     -0.1977
    135  CA         7.9870  -13.0710    8.1840 C.3   136  LYS136      0.1596
    136  C          8.3030  -13.0380    9.6640 C.2   136  LYS136      0.2287
    137  O          9.0300  -12.1620   10.1180 O.2   136  LYS136     -0.2864
    138  CB         9.2570  -13.3550    7.3720 C.3   136  LYS136      0.0298
    139  CG        10.0790  -14.5190    7.9310 C.3   136  LYS136      0.0038
    140  CD        11.1010  -15.0450    6.9470 C.3   136  LYS136      0.0206
    141  CE        11.8000  -16.2970    7.4930 C.3   136  LYS136      0.1093
    142  NZ        10.8330  -17.2880    8.0900 N.3   136  LYS136     -0.1314
@<TRIPOS>BOND
     1   105   107   ar
     2   105   103   ar
     3   107   106   ar
     4   113   112    1
     5   113   114    1
     6    83    82    2
     7   112   109    1
     8   120   119    1
     9    86    85   ar
    10    86    88   ar
    11   114   108    1
    12    84    85    1
    13    84    81    1
    14   103   102   ar
    15   106   104   ar
    16    82    81    1
    17    12    10    1
    18    85    87   ar
    19    88    89   ar
    20    10     9    1
    21    80    81    1
    22   111   110    2
    23   109   108    1
    24   109   110    1
    25   119   121    1
    26   119   116    1
    27   102   104   ar
    28   102   101    1
    29   108    99   am
    30     2     1    1
    31     2     3    1
    32   110   115   am
    33   115   116    1
    34    87    89   ar
    35     5     3   am
    36     5     6    1
    37   116   117    1
    38     3     4    2
    39     9     6    1
    40     9    11    1
    41    98    99    1
    42    98   101    1
    43    98    97    1
    44    99   100    2
    45     6     7    1
    46   117   118    2
    47   117   122   am
    48    78    79   ar
    49    78    76   ar
    50   122   123    1
    51    79    77   ar
    52     7     8    2
    53     7    13   am
    54    76    75   ar
    55    30    31    1
    56    30    27    1
    57    32    31   ar
    58    32    34   ar
    59    31    33   ar
    60    59    60   ar
    61    59    57   ar
    62    60    58   ar
    63    34    35   ar
    64   125   124    2
    65    13    14    1
    66    24    23    2
    67    33    35   ar
    68    77    75   ar
    69    75    74    1
    70   140   141    1
    71   140   139    1
    72   123   124    1
    73   123   126    1
    74   124   134   am
    75    27    26    1
    76    27    28    1
    77   138   139    1
    78   138   135    1
    79    57    56   ar
    80   141   142    1
    81   126   127    1
    82    23    26   am
    83    23    22    1
    84    74    71    1
    85    18    20    1
    86    18    19    1
    87    18    17    1
    88    58    56   ar
    89   134   135    1
    90    14    17    1
    91    14    15    1
    92    28    29    2
    93    21    15   am
    94    21    22    1
    95    93    92    2
    96    92    91    1
    97   135   136    1
    98    71    72    1
    99    71    70    1
   100    56    55    1
   101    73    72    2
   102    90    91    1
   103    15    16    2
   104    68    67   ar
   105    22    25    1
   106    69    67   ar
   107   127   129   ar
   108   127   128   ar
   109    91    94    1
   110   129   131   ar
   111    67    66    1
   112   136   137    2
   113    54    53    2
   114    55    52    1
   115   128   130   ar
   116    53    52    1
   117    53    61   am
   118   131   132   ar
   119    94    95    1
   120    94    96    1
   121    52    51    1
   122    64    63    2
   123    62    61    1
   124    62    63    1
   125    62    65    1
   126    66    65    1
   127   130   132   ar
   128    50    48    1
   129   132   133    1
   130    47    46    2
   131    49    48    1
   132    48    45    1
   133    45    46    1
   134    45    44    1
   135    39    38    2
   136    44    38   am
   137    38    37    1
   138    40    37    1
   139    40    41    1
   140    42    41    1
   141    37    36    1
   142    43    41    1
