@<TRIPOS>MOLECULE
tmp/3n2vA00.pdb
 147 147 0 0 0
SMALL
GASTEIGER

@<TRIPOS>ATOM
      1  N         -3.9300  -10.9120    3.3400 N.3    74  GLY74      -0.1210
      2  CA        -3.6920   -9.7260    2.4710 C.3    74  GLY74       0.1956
      3  C         -3.1410   -8.5520    3.3220 C.2    74  GLY74       0.2612
      4  O         -2.1400   -8.7150    4.0240 O.2    74  GLY74      -0.2717
      5  N         -3.8200   -7.4170    3.2350 N.am   75  ILE75      -0.1965
      6  CA        -3.3910   -6.1810    3.9230 C.3    75  ILE75       0.1727
      7  C         -3.6110   -6.3800    5.4220 C.2    75  ILE75       0.2616
      8  O         -4.7130   -6.7190    5.8740 O.2    75  ILE75      -0.2715
      9  CB        -4.1690   -4.9550    3.4550 C.3    75  ILE75       0.0290
     10  CG1       -3.8730   -4.6030    1.9780 C.3    75  ILE75       0.0022
     11  CG2       -3.8230   -3.7170    4.4130 C.3    75  ILE75       0.0023
     12  CD1       -4.6550   -3.4270    1.6120 C.3    75  ILE75       0.0001
     13  N         -2.5460   -6.2420    6.1960 N.am   76  LEU76      -0.1963
     14  CA        -2.5650   -6.5230    7.6430 C.3    76  LEU76       0.1728
     15  C         -2.7690   -5.2120    8.4190 C.2    76  LEU76       0.2616
     16  O         -3.3320   -5.2210    9.5240 O.2    76  LEU76      -0.2715
     17  CB        -1.2070   -7.1440    8.0540 C.3    76  LEU76       0.0311
     18  CG        -0.7750   -8.4270    7.3160 C.3    76  LEU76       0.0022
     19  CD1        0.6330   -8.8120    7.7630 C.3    76  LEU76       0.0001
     20  CD2       -1.7340   -9.5840    7.6600 C.3    76  LEU76       0.0001
     21  N         -2.2610   -4.1040    7.8510 N.am   77  ALA77      -0.1963
     22  CA        -2.2340   -2.8150    8.5650 C.3    77  ALA77       0.1728
     23  C         -1.7520   -1.7810    7.6030 C.2    77  ALA77       0.2616
     24  O         -1.1520   -2.1220    6.5760 O.2    77  ALA77      -0.2715
     25  CB        -1.2380   -2.8710    9.8450 C.3    77  ALA77       0.0334
     26  N         -1.9390   -0.5270    7.9520 N.am   78  HIS78      -0.1973
     27  CA        -1.3450    0.5890    7.1460 C.3    78  HIS78       0.1656
     28  C         -1.2490    1.7840    8.0430 C.2    78  HIS78       0.2291
     29  O         -1.9160    1.8450    9.1000 O.2    78  HIS78      -0.2864
     30  CB        -2.1870    0.8690    5.9010 C.3    78  HIS78       0.0771
     31  CG        -3.4570    1.5820    6.1980 C.ar   78  HIS78       0.0820
     32  ND1       -3.5440    2.9640    6.2210 N.ar   78  HIS78      -0.2267
     33  CD2       -4.6960    1.1250    6.4280 C.ar   78  HIS78       0.1154
     34  CE1       -4.7800    3.3120    6.5240 C.ar   78  HIS78       0.1986
     35  NE2       -5.4800    2.2100    6.7070 N.ar   78  HIS78      -0.2212
     36  N          5.6250   -6.8160   15.9110 N.3   109  LEU109     -0.1231
     37  CA         6.4460   -6.7470   14.6660 C.3   109  LEU109      0.1693
     38  C          5.7370   -5.8890   13.6590 C.2   109  LEU109      0.2592
     39  O          6.3560   -5.0250   13.0070 O.2   109  LEU109     -0.2718
     40  CB         6.7250   -8.1770   14.0810 C.3   109  LEU109      0.0284
     41  CG         7.7130   -9.0780   14.8720 C.3   109  LEU109      0.0019
     42  CD1        7.7600  -10.5230   14.2640 C.3   109  LEU109      0.0001
     43  CD2        9.1380   -8.4490   14.8610 C.3   109  LEU109      0.0001
     44  N          4.4150   -6.0810   13.5710 N.am  110  THR110     -0.1953
     45  CA         3.5940   -5.2880   12.6400 C.3   110  THR110      0.1897
     46  C          3.6400   -3.7970   13.0390 C.2   110  THR110      0.2313
     47  O          3.7700   -2.9200   12.1530 O.2   110  THR110     -0.2863
     48  CB         2.1690   -5.8360   12.5640 C.3   110  THR110      0.1794
     49  OG1        2.2840   -7.2300   12.1690 O.3   110  THR110     -0.2208
     50  CG2        1.4190   -5.1000   11.4540 C.3   110  THR110      0.0378
     51  N          6.8920   -2.0360   11.9060 N.3   113  HIS113     -0.1226
     52  CA         6.7780   -1.6380   10.5470 C.3   113  HIS113      0.1752
     53  C          5.8650   -0.4520   10.3650 C.2   113  HIS113      0.2595
     54  O          6.2320    0.5170    9.6750 O.2   113  HIS113     -0.2718
     55  CB         6.2240   -2.8430    9.7600 C.3   113  HIS113      0.0759
     56  CG         6.0650   -2.5800    8.2790 C.ar  113  HIS113      0.0818
     57  ND1        7.0000   -2.9260    7.3330 N.ar  113  HIS113     -0.2268
     58  CD2        5.0600   -1.9820    7.5990 C.ar  113  HIS113      0.1154
     59  CE1        6.5620   -2.5910    6.1260 C.ar  113  HIS113      0.1986
     60  NE2        5.3560   -2.0510    6.2610 N.ar  113  HIS113     -0.2212
     61  N          4.6770   -0.4650   10.9710 N.am  114  GLU114     -0.1979
     62  CA         3.7090    0.6490   10.7220 C.3   114  GLU114      0.1602
     63  C          4.2280    1.9390   11.3030 C.2   114  GLU114      0.2287
     64  O          4.0500    3.0390   10.7300 O.2   114  GLU114     -0.2864
     65  CB         2.3540    0.3300   11.3480 C.3   114  GLU114      0.0415
     66  CG         1.6370   -0.8670   10.6310 C.3   114  GLU114      0.1163
     67  CD         1.6460   -0.7440    9.1020 C.2   114  GLU114      0.3649
     68  OE1        1.7680   -1.7720    8.4170 O.co2 114  GLU114     -0.2457
     69  OE2        1.5150    0.4000    8.5690 O.co2 114  GLU114     -0.2457
     70  N          6.4220    3.7710    9.0750 N.3   117  HIS117     -0.1241
     71  CA         5.7080    4.6530    8.1810 C.3   117  HIS117      0.1621
     72  C          5.1680    5.9040    8.8920 C.2   117  HIS117      0.2264
     73  O          5.1960    7.0120    8.3170 O.2   117  HIS117     -0.2867
     74  CB         4.4980    3.8830    7.6740 C.3   117  HIS117      0.0745
     75  CG         4.8030    2.7900    6.6950 C.ar  117  HIS117      0.0817
     76  ND1        5.6120    2.9780    5.5800 N.ar  117  HIS117     -0.2268
     77  CD2        4.3100    1.5320    6.5890 C.ar  117  HIS117      0.1154
     78  CE1        5.6400    1.8780    4.8680 C.ar  117  HIS117      0.1986
     79  NE2        4.8110    1.0010    5.4210 N.ar  117  HIS117     -0.2212
     80  N          9.0730    1.7680    2.1190 N.3   123  HIS123     -0.1241
     81  CA         9.4570    0.3710    2.0900 C.3   123  HIS123      0.1621
     82  C         10.9500    0.1480    1.6960 C.2   123  HIS123      0.2264
     83  O         11.6040    1.0360    1.0690 O.2   123  HIS123     -0.2867
     84  CB         8.5200   -0.4230    1.1980 C.3   123  HIS123      0.0745
     85  CG         7.1670   -0.6360    1.8130 C.ar  123  HIS123      0.0817
     86  ND1        6.0040   -0.7180    1.0790 N.ar  123  HIS123     -0.2268
     87  CD2        6.7890   -0.7620    3.1150 C.ar  123  HIS123      0.1154
     88  CE1        4.9710   -0.9020    1.8710 C.ar  123  HIS123      0.1986
     89  NE2        5.4190   -0.9140    3.1170 N.ar  123  HIS123     -0.2212
     90  N         15.0780   -6.2060    6.1830 N.3   129  ALA129     -0.1231
     91  CA        14.6030   -4.9610    6.7860 C.3   129  ALA129      0.1694
     92  C         13.1930   -5.1170    7.3480 C.2   129  ALA129      0.2591
     93  O         12.3230   -5.8240    6.7410 O.2   129  ALA129     -0.2718
     94  CB        14.6280   -3.8730    5.7390 C.3   129  ALA129      0.0304
     95  N         12.9380   -4.4960    8.5120 N.am  130  VAL130     -0.1980
     96  CA        11.5580   -4.5260    9.0050 C.3   130  VAL130      0.1595
     97  C         10.6130   -3.7480    8.0980 C.2   130  VAL130      0.2287
     98  O          9.4390   -4.0520    8.0110 O.2   130  VAL130     -0.2864
     99  CB        11.4570   -4.0350   10.4880 C.3   130  VAL130      0.0276
    100  CG1       11.6200   -2.5480   10.5700 C.3   130  VAL130      0.0022
    101  CG2       10.1380   -4.5660   11.0780 C.3   130  VAL130      0.0022
    102  N         10.7070   -3.9830    4.9040 N.3   132  PHE132     -0.1228
    103  CA        10.3960   -4.8670    3.7150 C.3   132  PHE132      0.1721
    104  C          8.9250   -5.1960    3.7840 C.2   132  PHE132      0.2437
    105  O          8.4770   -5.5740    4.8450 O.2   132  PHE132     -0.2733
    106  CB        11.1860   -6.1360    3.7870 C.3   132  PHE132      0.0547
    107  CG        11.0660   -7.0170    2.5710 C.ar  132  PHE132     -0.0202
    108  CD1       11.6680   -6.6690    1.3380 C.ar  132  PHE132     -0.0042
    109  CD2       10.3580   -8.2070    2.6680 C.ar  132  PHE132     -0.0042
    110  CE1       11.5810   -7.5620    0.2210 C.ar  132  PHE132     -0.0003
    111  CE2       10.2440   -9.0820    1.5360 C.ar  132  PHE132     -0.0003
    112  CZ        10.8290   -8.7130    0.3300 C.ar  132  PHE132     -0.0000
    113  N          8.1490   -5.0450    2.6820 N.am  133  PRO133     -0.2718
    114  CA         6.6970   -5.1040    2.7640 C.3   133  PRO133      0.1535
    115  C          6.0680   -6.5020    2.7230 C.2   133  PRO133      0.2599
    116  O          5.0310   -6.6640    2.1240 O.2   133  PRO133     -0.2715
    117  CB         6.2430   -4.3630    1.5110 C.3   133  PRO133      0.0310
    118  CG         7.3360   -4.4030    0.5800 C.3   133  PRO133      0.0237
    119  CD         8.6240   -4.5140    1.4010 C.3   133  PRO133      0.0939
    120  N          6.6960   -7.4940    3.3130 N.am  134  THR134     -0.1937
    121  CA         6.0950   -8.7880    3.5510 C.3   134  THR134      0.2028
    122  C          6.3420   -9.2100    5.0020 C.2   134  THR134      0.2642
    123  O          7.4670   -9.2350    5.5080 O.2   134  THR134     -0.2714
    124  CB         6.7880   -9.8800    2.6650 C.3   134  THR134      0.1808
    125  OG1        6.6000   -9.5710    1.2780 O.3   134  THR134     -0.2208
    126  CG2        6.3090  -11.3240    3.0110 C.3   134  THR134      0.0379
    127  N          5.2660   -9.4830    5.7010 N.am  135  TYR135     -0.1959
    128  CA         5.3690   -9.9270    7.0750 C.3   135  TYR135      0.1771
    129  C          6.0200  -11.3270    7.1580 C.2   135  TYR135      0.2619
    130  O          5.5900  -12.2700    6.4250 O.2   135  TYR135     -0.2715
    131  CB         3.9560   -9.9800    7.6930 C.3   135  TYR135      0.0574
    132  CG         3.9220  -10.6880    9.0470 C.ar  135  TYR135     -0.0198
    133  CD1        4.1920   -9.9930   10.2230 C.ar  135  TYR135     -0.0009
    134  CD2        3.6260  -12.0720    9.1590 C.ar  135  TYR135     -0.0009
    135  CE1        4.2350  -10.6160   11.4580 C.ar  135  TYR135      0.0417
    136  CE2        3.6360  -12.7210   10.4170 C.ar  135  TYR135      0.0417
    137  CZ         3.9470  -11.9650   11.5650 C.ar  135  TYR135      0.1957
    138  OH         3.9730  -12.5740   12.7880 O.3   135  TYR135     -0.2866
    139  N          7.0050  -11.4600    8.0540 N.am  136  LYS136     -0.1977
    140  CA         7.5300  -12.7480    8.4510 C.3   136  LYS136      0.1596
    141  C          7.8080  -12.6940    9.9800 C.2   136  LYS136      0.2287
    142  O          8.4430  -11.7460   10.4700 O.2   136  LYS136     -0.2864
    143  CB         8.8110  -13.0360    7.6480 C.3   136  LYS136      0.0298
    144  CG         9.5740  -14.2730    8.1170 C.3   136  LYS136      0.0038
    145  CD        10.7590  -14.5590    7.2360 C.3   136  LYS136      0.0206
    146  CE        11.6700  -15.6220    7.8780 C.3   136  LYS136      0.1093
    147  NZ        10.9980  -16.9650    8.0590 N.3   136  LYS136     -0.1314
@<TRIPOS>BOND
     1   110   112   ar
     2   110   108   ar
     3   112   111   ar
     4   118   119    1
     5   118   117    1
     6    83    82    2
     7    86    85   ar
     8    86    88   ar
     9    84    85    1
    10    84    81    1
    11   125   124    1
    12   108   107   ar
    13   119   113    1
    14   117   114    1
    15   111   109   ar
    16    12    10    1
    17    82    81    1
    18    85    87   ar
    19    88    89   ar
    20    10     9    1
    21    81    80    1
    22   116   115    2
    23     2     3    1
    24     2     1    1
    25   107   109   ar
    26   107   106    1
    27   124   126    1
    28   124   121    1
    29   113   114    1
    30   113   104   am
    31   115   114    1
    32   115   120   am
    33    87    89   ar
    34     5     3   am
    35     5     6    1
    36   120   121    1
    37     3     4    2
    38     9     6    1
    39     9    11    1
    40   121   122    1
    41   103   104    1
    42   103   106    1
    43   103   102    1
    44   104   105    2
    45     6     7    1
    46    78    79   ar
    47    78    76   ar
    48   122   123    2
    49   122   127   am
    50    79    77   ar
    51     7     8    2
    52     7    13   am
    53    76    75   ar
    54   127   128    1
    55    94    91    1
    56    30    31    1
    57    30    27    1
    58    59    60   ar
    59    59    57   ar
    60    90    91    1
    61    13    14    1
    62    31    32   ar
    63    31    33   ar
    64    32    34   ar
    65    60    58   ar
    66   130   129    2
    67    33    35   ar
    68    34    35   ar
    69    24    23    2
    70    77    75   ar
    71    75    74    1
    72    93    92    2
    73    91    92    1
    74   128   129    1
    75   128   131    1
    76    27    26    1
    77    27    28    1
    78   129   139   am
    79   145   146    1
    80   145   144    1
    81    18    20    1
    82    18    19    1
    83    18    17    1
    84    57    56   ar
    85    92    95   am
    86    58    56   ar
    87    23    26   am
    88    23    22    1
    89    14    17    1
    90    14    15    1
    91   143   144    1
    92   143   140    1
    93    74    71    1
    94   131   132    1
    95    21    15   am
    96    21    22    1
    97   146   147    1
    98    98    97    2
    99    28    29    2
   100   139   140    1
   101    97    96    1
   102    71    72    1
   103    71    70    1
   104    56    55    1
   105    73    72    2
   106    68    67   ar
   107    15    16    2
   108   140   141    1
   109    95    96    1
   110    22    25    1
   111    69    67   ar
   112    96    99    1
   113   132   134   ar
   114   132   133   ar
   115    67    66    1
   116   134   136   ar
   117    54    53    2
   118    55    52    1
   119   141   142    2
   120   133   135   ar
   121    53    52    1
   122    53    61   am
   123   136   137   ar
   124    99   100    1
   125    99   101    1
   126    52    51    1
   127    66    65    1
   128    62    61    1
   129    62    63    1
   130    62    65    1
   131    64    63    2
   132    50    48    1
   133   135   137   ar
   134   137   138    1
   135    47    46    2
   136    49    48    1
   137    48    45    1
   138    45    46    1
   139    45    44    1
   140    39    38    2
   141    44    38   am
   142    38    37    1
   143    40    37    1
   144    40    41    1
   145    42    41    1
   146    37    36    1
   147    43    41    1
