@<TRIPOS>MOLECULE
tmp/3n2yA00.pdb
 156 148 0 0 0
SMALL
GASTEIGER

@<TRIPOS>ATOM
      1  N        -25.3280  -51.0030  -14.6220 N.3    31  LEU31      -0.1231
      2  CA       -24.2880  -49.9940  -14.4560 C.3    31  LEU31       0.1693
      3  C        -24.8090  -48.6780  -13.9020 C.2    31  LEU31       0.2592
      4  O        -26.0010  -48.3800  -13.9810 O.2    31  LEU31      -0.2718
      5  CB       -23.4920  -49.7750  -15.7580 C.3    31  LEU31       0.0284
      6  CG       -23.9450  -48.9210  -16.9590 C.3    31  LEU31       0.0019
      7  CD1      -25.2100  -49.4500  -17.6170 C.3    31  LEU31       0.0001
      8  CD2      -24.0950  -47.4490  -16.6250 C.3    31  LEU31       0.0001
      9  N        -23.8890  -47.9130  -13.3280 N.am   32  ILE32      -0.1966
     10  CA       -24.1330  -46.5440  -12.9110 C.3    32  ILE32       0.1727
     11  C        -22.7970  -45.8300  -13.0060 C.2    32  ILE32       0.2617
     12  O        -21.7490  -46.4570  -12.8720 O.2    32  ILE32      -0.2715
     13  CB       -24.7310  -46.4520  -11.4620 C.3    32  ILE32       0.0290
     14  CG1      -25.0290  -45.0010  -11.0760 C.3    32  ILE32       0.0022
     15  CG2      -23.8040  -47.0880  -10.4220 C.3    32  ILE32       0.0023
     16  CD1      -25.9970  -44.8540   -9.9150 C.3    32  ILE32       0.0001
     17  N        -22.8350  -44.5310  -13.2700 N.am   33  GLY33      -0.1940
     18  CA       -21.6290  -43.7420  -13.3230 C.3    33  GLY33       0.2014
     19  C        -21.7040  -42.5640  -12.3860 C.2    33  GLY33       0.2639
     20  O        -22.7830  -42.0350  -12.1050 O.2    33  GLY33      -0.2714
     21  N        -20.5480  -42.1500  -11.8940 N.am   34  PHE34      -0.1959
     22  CA       -20.4900  -41.0280  -10.9800 C.3    34  PHE34       0.1771
     23  C        -19.3720  -40.0930  -11.3610 C.2    34  PHE34       0.2619
     24  O        -18.2270  -40.5210  -11.5410 O.2    34  PHE34      -0.2715
     25  CB       -20.2580  -41.4940   -9.5380 C.3    34  PHE34       0.0574
     26  CG       -21.4410  -42.1490   -8.9050 C.ar   34  PHE34      -0.0200
     27  CD1      -21.4920  -43.5320   -8.7730 C.ar   34  PHE34      -0.0042
     28  CD2      -22.5000  -41.3850   -8.4230 C.ar   34  PHE34      -0.0042
     29  CE1      -22.5870  -44.1500   -8.1770 C.ar   34  PHE34      -0.0003
     30  CE2      -23.6000  -41.9900   -7.8230 C.ar   34  PHE34      -0.0003
     31  CZ       -23.6420  -43.3740   -7.6950 C.ar   34  PHE34      -0.0000
     32  N        -19.7170  -38.8160  -11.4880 N.am   35  GLU35      -0.1977
     33  CA       -18.7230  -37.7680  -11.4390 C.3    35  GLU35       0.1602
     34  C        -18.1920  -37.7470  -10.0060 C.2    35  GLU35       0.2287
     35  O        -18.9720  -37.5410   -9.0640 O.2    35  GLU35      -0.2864
     36  CB       -19.3390  -36.4220  -11.7840 C.3    35  GLU35       0.0415
     37  CG       -19.4830  -36.1720  -13.2550 C.3    35  GLU35       0.1163
     38  CD       -19.9340  -34.7630  -13.5310 C.2    35  GLU35       0.3649
     39  OE1      -19.3760  -33.8300  -12.9150 O.co2  35  GLU35      -0.2457
     40  OE2      -20.8570  -34.5850  -14.3540 O.co2  35  GLU35      -0.2457
     41  N        -18.9390  -46.9110  -12.8890 N.3    64  ILE64      -0.1245
     42  CA       -18.0290  -46.1040  -13.6820 C.3    64  ILE64       0.1561
     43  C        -17.6560  -44.8790  -12.8730 C.2    64  ILE64       0.2260
     44  O        -18.5120  -44.0660  -12.5310 O.2    64  ILE64      -0.2867
     45  CB       -18.6040  -45.7090  -15.0780 C.3    64  ILE64       0.0252
     46  CG1      -18.7450  -46.9400  -15.9860 C.3    64  ILE64       0.0019
     47  CG2      -17.7100  -44.6690  -15.7560 C.3    64  ILE64       0.0019
     48  CD1      -20.1080  -47.6370  -15.9040 C.3    64  ILE64       0.0001
     49  N        -16.4560  -41.7230  -13.3400 N.3    66  ALA66      -0.1245
     50  CA       -16.4420  -40.9170  -14.5630 C.3    66  ALA66       0.1562
     51  C        -15.5190  -39.7100  -14.4940 C.2    66  ALA66       0.2260
     52  O        -15.9790  -38.5540  -14.4640 O.2    66  ALA66      -0.2867
     53  CB       -17.8460  -40.4880  -14.9210 C.3    66  ALA66       0.0290
     54  N        -15.8080  -37.4630  -17.7380 N.3    69  HIS69      -0.1241
     55  CA       -17.0480  -36.7010  -17.6620 C.3    69  HIS69       0.1621
     56  C        -16.9480  -35.5100  -16.6970 C.2    69  HIS69       0.2264
     57  O        -17.4370  -34.4200  -17.0000 O.2    69  HIS69      -0.2867
     58  CB       -18.2120  -37.6110  -17.2960 C.3    69  HIS69       0.0745
     59  CG       -18.6880  -38.4630  -18.4280 C.ar   69  HIS69       0.0817
     60  ND1      -18.1110  -39.6740  -18.7390 N.ar   69  HIS69      -0.2268
     61  CD2      -19.6870  -38.2800  -19.3230 C.ar   69  HIS69       0.1154
     62  CE1      -18.7350  -40.2000  -19.7790 C.ar   69  HIS69       0.1986
     63  NE2      -19.6960  -39.3750  -20.1500 N.ar   69  HIS69      -0.2212
     64  N        -11.0630  -46.6570  -21.0110 N.3   107  PHE107     -0.1227
     65  CA       -11.6130  -47.1670  -22.2660 C.3   107  PHE107      0.1736
     66  C        -12.2590  -46.0820  -23.1400 C.2   107  PHE107      0.2595
     67  O        -12.6660  -46.3520  -24.2720 O.2   107  PHE107     -0.2718
     68  CB       -12.6220  -48.2810  -21.9760 C.3   107  PHE107      0.0547
     69  CG       -13.8550  -47.8120  -21.2510 C.ar  107  PHE107     -0.0202
     70  CD1      -14.9250  -47.2470  -21.9500 C.ar  107  PHE107     -0.0042
     71  CD2      -13.9590  -47.9460  -19.8710 C.ar  107  PHE107     -0.0042
     72  CE1      -16.0790  -46.8100  -21.2830 C.ar  107  PHE107     -0.0003
     73  CE2      -15.1050  -47.5130  -19.1940 C.ar  107  PHE107     -0.0003
     74  CZ       -16.1670  -46.9390  -19.9080 C.ar  107  PHE107     -0.0000
     75  N        -12.3590  -44.8670  -22.6080 N.am  108  MET108     -0.1979
     76  CA       -13.0690  -43.7790  -23.2850 C.3   108  MET108      0.1605
     77  C        -12.1990  -42.9690  -24.2530 C.2   108  MET108      0.2287
     78  O        -12.6570  -41.9650  -24.8050 O.2   108  MET108     -0.2864
     79  CB       -13.7340  -42.8490  -22.2600 C.3   108  MET108      0.0413
     80  CG       -15.0910  -43.3340  -21.7700 C.3   108  MET108      0.0598
     81  SD       -15.8460  -42.3030  -20.4950 S.3   108  MET108     -0.1393
     82  CE       -17.3420  -43.2490  -20.1910 C.3   108  MET108      0.0692
     83  N        -27.5420  -31.4760  -15.2950 N.3   136  ILE136     -0.1245
     84  CA       -26.2370  -32.0830  -15.0540 C.3   136  ILE136      0.1561
     85  C        -25.1040  -31.0680  -15.1860 C.2   136  ILE136      0.2260
     86  O        -24.1580  -31.0770  -14.3890 O.2   136  ILE136     -0.2867
     87  CB       -25.9930  -33.2860  -16.0030 C.3   136  ILE136      0.0252
     88  CG1      -26.9800  -34.4250  -15.6990 C.3   136  ILE136      0.0019
     89  CG2      -24.5540  -33.7780  -15.9080 C.3   136  ILE136      0.0019
     90  CD1      -27.1140  -35.4410  -16.8250 C.3   136  ILE136      0.0001
     91  N        -20.2070  -34.4100  -23.5880 N.3   150  TYR150     -0.1241
     92  CA       -20.5530  -35.1920  -22.4010 C.3   150  TYR150      0.1605
     93  C        -21.6750  -36.2270  -22.6420 C.2   150  TYR150      0.2264
     94  O        -21.4680  -37.4200  -22.3940 O.2   150  TYR150     -0.2867
     95  CB       -20.9200  -34.2170  -21.2690 C.3   150  TYR150      0.0534
     96  CG       -21.1580  -34.8010  -19.9030 C.ar  150  TYR150     -0.0201
     97  CD1      -20.2520  -34.5660  -18.8680 C.ar  150  TYR150     -0.0009
     98  CD2      -22.3110  -35.5470  -19.6200 C.ar  150  TYR150     -0.0009
     99  CE1      -20.4660  -35.0750  -17.5940 C.ar  150  TYR150      0.0417
    100  CE2      -22.5340  -36.0660  -18.3370 C.ar  150  TYR150      0.0417
    101  CZ       -21.5970  -35.8200  -17.3340 C.ar  150  TYR150      0.1957
    102  OH       -21.7830  -36.3140  -16.0670 O.3   150  TYR150     -0.2866
    103  N        -21.4170  -40.4370  -22.5920 N.3   154  GLN154     -0.1245
    104  CA       -22.1300  -41.3120  -21.6710 C.3   154  GLN154      0.1566
    105  C        -22.8970  -42.4030  -22.4230 C.2   154  GLN154      0.2260
    106  O        -22.8150  -43.5740  -22.0600 O.2   154  GLN154     -0.2867
    107  CB       -23.0710  -40.5030  -20.7830 C.3   154  GLN154      0.0367
    108  CG       -23.7580  -41.3130  -19.6840 C.3   154  GLN154      0.0905
    109  CD       -24.3940  -40.4290  -18.6280 C.2   154  GLN154      0.2608
    110  OE1      -24.0180  -39.2650  -18.4710 O.2   154  GLN154     -0.2717
    111  NE2      -25.3550  -40.9780  -17.8930 N.am  154  GLN154     -0.0878
    112  N        -20.4600  -44.8470  -23.7060 N.3   157  GLY157     -0.1210
    113  CA       -20.0740  -45.6210  -22.5210 C.3   157  GLY157      0.1956
    114  C        -21.0800  -46.7170  -22.2090 C.2   157  GLY157      0.2611
    115  O        -20.7260  -47.8870  -22.1150 O.2   157  GLY157     -0.2717
    116  N        -22.3420  -46.3270  -22.0730 N.am  158  ILE158     -0.1979
    117  CA       -23.4550  -47.2650  -21.9160 C.3   158  ILE158      0.1595
    118  C        -23.3930  -48.4010  -22.9410 C.2   158  ILE158      0.2287
    119  O        -23.5350  -49.5700  -22.5880 O.2   158  ILE158     -0.2864
    120  CB       -24.8200  -46.5240  -21.9870 C.3   158  ILE158      0.0276
    121  CG1      -24.9850  -45.6050  -20.7740 C.3   158  ILE158      0.0022
    122  CG2      -25.9840  -47.5040  -22.0860 C.3   158  ILE158      0.0022
    123  CD1      -26.0960  -44.5960  -20.9120 C.3   158  ILE158      0.0001
    124  N        -19.8650  -50.5770  -22.3070 N.3   161  VAL161     -0.1245
    125  CA       -19.9550  -51.4280  -21.1150 C.3   161  VAL161      0.1561
    126  C        -20.8630  -52.6450  -21.3360 C.2   161  VAL161      0.2260
    127  O        -20.5840  -53.7320  -20.8270 O.2   161  VAL161     -0.2867
    128  CB       -20.4280  -50.6160  -19.8890 C.3   161  VAL161      0.0252
    129  CG1      -20.7570  -51.5320  -18.7160 C.3   161  VAL161      0.0019
    130  CG2      -19.3720  -49.6040  -19.4860 C.3   161  VAL161      0.0019
    131  N        -28.6380  -47.3450  -14.4810 N.3   167  VAL167     -0.1245
    132  CA       -29.2500  -46.7410  -13.3040 C.3   167  VAL167      0.1561
    133  C        -28.7140  -45.3430  -13.0850 C.2   167  VAL167      0.2260
    134  O        -27.5290  -45.0940  -13.2880 O.2   167  VAL167     -0.2867
    135  CB       -28.9950  -47.5820  -12.0210 C.3   167  VAL167      0.0252
    136  CG1      -29.8140  -47.0370  -10.8510 C.3   167  VAL167      0.0019
    137  CG2      -29.3160  -49.0440  -12.2610 C.3   167  VAL167      0.0019
    138  N        -30.5390  -37.8640  -15.1530 N.3   172  GLN172     -0.1245
    139  CA       -29.9100  -38.6480  -16.2150 C.3   172  GLN172      0.1566
    140  C        -30.9340  -39.1480  -17.2300 C.2   172  GLN172      0.2260
    141  O        -30.5710  -39.8050  -18.2030 O.2   172  GLN172     -0.2867
    142  CB       -29.1760  -39.8610  -15.6170 C.3   172  GLN172      0.0367
    143  CG       -28.4270  -39.5980  -14.3180 C.3   172  GLN172      0.0905
    144  CD       -27.1490  -38.8380  -14.5290 C.2   172  GLN172      0.2608
    145  OE1      -26.3250  -39.2100  -15.3630 O.2   172  GLN172     -0.2717
    146  NE2      -26.9680  -37.7630  -13.7730 N.am  172  GLN172     -0.0878
    147  N        -30.5270  -40.9270  -21.0400 N.3   176  HIS176     -0.1241
    148  CA       -30.9090  -42.3370  -21.1420 C.3   176  HIS176      0.1621
    149  C        -31.9230  -42.6090  -22.2570 C.2   176  HIS176      0.2264
    150  O        -31.8670  -43.6460  -22.9200 O.2   176  HIS176     -0.2867
    151  CB       -31.3990  -42.8690  -19.7940 C.3   176  HIS176      0.0745
    152  CG       -30.2940  -43.1190  -18.8180 C.ar  176  HIS176      0.0817
    153  ND1      -30.5210  -43.4250  -17.4940 N.ar  176  HIS176     -0.2268
    154  CD2      -28.9480  -43.0940  -18.9730 C.ar  176  HIS176      0.1154
    155  CE1      -29.3650  -43.5830  -16.8770 C.ar  176  HIS176      0.1986
    156  NE2      -28.3950  -43.3880  -17.7520 N.ar  176  HIS176     -0.2212
@<TRIPOS>BOND
     1    78    77    2
     2    67    66    2
     3    77    76    1
     4   112   113    1
     5    91    92    1
     6    76    75    1
     7    76    79    1
     8    66    75   am
     9    66    65    1
    10   118   119    2
    11   118   117    1
    12   150   149    2
    13    93    92    1
    14    93    94    2
    15   103   104    1
    16   113   114    1
    17   105   106    2
    18   105   104    1
    19    92    95    1
    20   124   125    1
    21    65    68    1
    22    65    64    1
    23    79    80    1
    24   149   148    1
    25   114   115    2
    26   114   116   am
    27   122   120    1
    28   116   117    1
    29   120   117    1
    30   120   121    1
    31    68    69    1
    32    70    72   ar
    33    70    69   ar
    34    80    81    1
    35   104   107    1
    36   126   125    1
    37   126   127    2
    38    72    74   ar
    39    95    96    1
    40    69    71   ar
    41   148   147    1
    42   148   151    1
    43   125   128    1
    44   123   121    1
    45   107   108    1
    46    81    82    1
    47    63    62   ar
    48    63    61   ar
    49    74    73   ar
    50    96    98   ar
    51    96    97   ar
    52   128   130    1
    53   128   129    1
    54    71    73   ar
    55   151   152    1
    56    62    60   ar
    57   108   109    1
    58    98   100   ar
    59    61    59   ar
    60   154   152   ar
    61   154   156   ar
    62    97    99   ar
    63   152   153   ar
    64    60    59   ar
    65   109   110    2
    66   109   111   am
    67    59    58    1
    68   100   101   ar
    69   141   140    2
    70   156   155   ar
    71    54    55    1
    72    55    58    1
    73    55    56    1
    74     7     6    1
    75    99   101   ar
    76   153   155   ar
    77   101   102    1
    78   140   139    1
    79    57    56    2
    80     6     8    1
    81     6     5    1
    82    90    88    1
    83   139   142    1
    84   139   138    1
    85    87    89    1
    86    87    88    1
    87    87    84    1
    88    46    48    1
    89    46    45    1
    90     5     2    1
    91    47    45    1
    92   142   143    1
    93   145   144    2
    94    83    84    1
    95    85    84    1
    96    85    86    2
    97    45    42    1
    98    53    50    1
    99     1     2    1
   100    50    51    1
   101    50    49    1
   102   144   143    1
   103   144   146   am
   104    51    52    2
   105   131   132    1
   106     2     3    1
   107    40    38   ar
   108     4     3    2
   109     3     9   am
   110    42    41    1
   111    42    43    1
   112    38    37    1
   113    38    39   ar
   114     9    10    1
   115    18    17    1
   116    18    19    1
   117   132   133    1
   118   132   135    1
   119   134   133    2
   120    17    11   am
   121    37    36    1
   122    11    10    1
   123    11    12    2
   124    10    13    1
   125    43    44    2
   126    19    20    2
   127    19    21   am
   128   137   135    1
   129   135   136    1
   130    21    22    1
   131    36    33    1
   132    24    23    2
   133    32    33    1
   134    32    23   am
   135    13    14    1
   136    13    15    1
   137    33    34    1
   138    23    22    1
   139    14    16    1
   140    22    25    1
   141    34    35    2
   142    25    26    1
   143    26    27   ar
   144    26    28   ar
   145    27    29   ar
   146    28    30   ar
   147    29    31   ar
   148    30    31   ar
