@<TRIPOS>MOLECULE
tmp/3n35A00.pdb
 101 97 0 0 0
SMALL
GASTEIGER

@<TRIPOS>ATOM
      1  N        -30.9910  -29.5390  -10.1170 N.3    86  LEU86      -0.1245
      2  CA       -31.5870  -28.2050  -10.1200 C.3    86  LEU86       0.1561
      3  C        -31.6640  -27.5770   -8.7300 C.2    86  LEU86       0.2260
      4  O        -32.1210  -28.2050   -7.7780 O.2    86  LEU86      -0.2867
      5  CB       -32.9920  -28.2600  -10.7250 C.3    86  LEU86       0.0270
      6  CG       -33.0660  -28.7030  -12.1880 C.3    86  LEU86       0.0019
      7  CD1      -34.5260  -28.8540  -12.6010 C.3    86  LEU86       0.0001
      8  CD2      -32.3470  -27.6810  -13.0670 C.3    86  LEU86       0.0001
      9  N        -32.8900  -25.0530   -5.6010 N.3    88  ALA88      -0.1231
     10  CA       -34.2060  -24.6860   -5.0740 C.3    88  ALA88       0.1694
     11  C        -33.9950  -24.1360   -3.6630 C.2    88  ALA88       0.2592
     12  O        -32.9120  -24.3270   -3.1040 O.2    88  ALA88      -0.2718
     13  CB       -35.1120  -25.9160   -5.0360 C.3    88  ALA88       0.0304
     14  N        -34.9810  -23.4520   -3.0760 N.am   89  ASP89      -0.1974
     15  CA       -36.2890  -23.1580   -3.6650 C.3    89  ASP89       0.1709
     16  C        -36.5370  -21.6500   -3.7880 C.2    89  ASP89       0.2293
     17  O        -37.3470  -21.2140   -4.6100 O.2    89  ASP89      -0.2864
     18  CB       -37.4000  -23.7720   -2.8120 C.3    89  ASP89       0.1436
     19  CG       -37.7800  -25.1610   -3.2710 C.2    89  ASP89       0.3671
     20  OD1      -38.3790  -25.2760   -4.3640 O.co2  89  ASP89      -0.2456
     21  OD2      -37.4730  -26.1330   -2.5460 O.co2  89  ASP89      -0.2456
     22  N        -41.9170  -26.3530    4.0020 N.3   105  GLY105     -0.1210
     23  CA       -40.7230  -25.8880    3.3190 C.3   105  GLY105      0.1956
     24  C        -40.7750  -26.2010    1.8340 C.2   105  GLY105      0.2612
     25  O        -41.8570  -26.3190    1.2540 O.2   105  GLY105     -0.2717
     26  N        -39.6070  -26.3450    1.2160 N.am  106  GLY106     -0.1942
     27  CA       -39.5570  -26.6380   -0.2040 C.3   106  GLY106      0.2014
     28  C        -40.1900  -25.5360   -1.0340 C.2   106  GLY106      0.2639
     29  O        -39.9790  -24.3540   -0.7670 O.2   106  GLY106     -0.2714
     30  N        -40.9760  -25.9250   -2.0340 N.am  107  GLY107     -0.1939
     31  CA       -41.6280  -24.9590   -2.9000 C.3   107  GLY107      0.2014
     32  C        -42.6450  -24.0440   -2.2340 C.2   107  GLY107      0.2638
     33  O        -43.0990  -23.0770   -2.8480 O.2   107  GLY107     -0.2714
     34  N        -43.0090  -24.3400   -0.9870 N.am  108  TYR108     -0.1973
     35  CA       -43.9760  -23.5220   -0.2550 C.3   108  TYR108      0.1639
     36  C        -43.2890  -22.3900    0.5040 C.2   108  TYR108      0.2290
     37  O        -43.9360  -21.5850    1.1800 O.2   108  TYR108     -0.2864
     38  CB       -44.7940  -24.4050    0.6860 C.3   108  TYR108      0.0560
     39  CG       -45.5870  -25.4450   -0.0740 C.ar  108  TYR108     -0.0198
     40  CD1      -46.5580  -25.0660   -1.0050 C.ar  108  TYR108     -0.0009
     41  CD2      -45.3380  -26.8070    0.1000 C.ar  108  TYR108     -0.0009
     42  CE1      -47.2570  -26.0160   -1.7470 C.ar  108  TYR108      0.0417
     43  CE2      -46.0350  -27.7680   -0.6400 C.ar  108  TYR108      0.0417
     44  CZ       -46.9880  -27.3650   -1.5590 C.ar  108  TYR108      0.1957
     45  OH       -47.6580  -28.3050   -2.3080 O.3   108  TYR108     -0.2866
     46  N        -37.0090  -22.3260   -8.2780 N.3   131  PHE131     -0.1241
     47  CA       -37.3310  -23.6520   -8.8180 C.3   131  PHE131      0.1605
     48  C        -38.7330  -23.6480   -9.3920 C.2   131  PHE131      0.2264
     49  O        -39.6460  -23.1750   -8.7460 O.2   131  PHE131     -0.2867
     50  CB       -37.2600  -24.7090   -7.7130 C.3   131  PHE131      0.0534
     51  CG       -37.5350  -26.1050   -8.1960 C.ar  131  PHE131     -0.0203
     52  CD1      -36.5120  -26.8880   -8.7230 C.ar  131  PHE131     -0.0042
     53  CD2      -38.8250  -26.6270   -8.1530 C.ar  131  PHE131     -0.0042
     54  CE1      -36.7680  -28.1750   -9.2040 C.ar  131  PHE131     -0.0003
     55  CE2      -39.0940  -27.9110   -8.6310 C.ar  131  PHE131     -0.0003
     56  CZ       -38.0620  -28.6870   -9.1580 C.ar  131  PHE131     -0.0000
     57  N        -42.0520  -25.1180   -9.8220 N.3   133  ASN133     -0.1240
     58  CA       -42.9760  -26.1590   -9.3720 C.3   133  ASN133      0.1653
     59  C        -44.1300  -26.2650  -10.3670 C.2   133  ASN133      0.2266
     60  O        -44.2070  -25.4940  -11.3200 O.2   133  ASN133     -0.2867
     61  CB       -43.5310  -25.8510   -7.9780 C.3   133  ASN133      0.1155
     62  CG       -42.4680  -25.9080   -6.9010 C.2   133  ASN133      0.2627
     63  OD1      -41.8110  -24.9160   -6.6160 O.2   133  ASN133     -0.2716
     64  ND2      -42.2860  -27.0790   -6.3040 N.am  133  ASN133     -0.0877
     65  N        -47.0850  -25.3340  -10.1510 N.3   135  TRP135     -0.1241
     66  CA       -47.9390  -24.1460  -10.1450 C.3   135  TRP135      0.1605
     67  C        -47.1940  -22.9080  -10.6330 C.2   135  TRP135      0.2264
     68  O        -47.7640  -21.8150  -10.7060 O.2   135  TRP135     -0.2867
     69  CB       -48.4520  -23.8900   -8.7290 C.3   135  TRP135      0.0550
     70  CG       -47.3430  -23.7380   -7.7280 C.ar  135  TRP135      0.0003
     71  CD1      -46.5300  -22.6520   -7.5550 C.ar  135  TRP135      0.0946
     72  CD2      -46.9010  -24.7250   -6.7910 C.ar  135  TRP135      0.0152
     73  NE1      -45.6050  -22.9050   -6.5670 N.ar  135  TRP135     -0.2442
     74  CE2      -45.8090  -24.1700   -6.0820 C.ar  135  TRP135      0.0810
     75  CE3      -47.3140  -26.0300   -6.4840 C.ar  135  TRP135      0.0012
     76  CZ2      -45.1330  -24.8710   -5.0810 C.ar  135  TRP135      0.0191
     77  CZ3      -46.6380  -26.7300   -5.4880 C.ar  135  TRP135      0.0001
     78  CH2      -45.5570  -26.1460   -4.8000 C.ar  135  TRP135      0.0015
     79  N        -34.3380  -27.2000   -1.4860 N.3   217  GLY217     -0.1210
     80  CA       -35.1070  -28.3440   -1.9460 C.3   217  GLY217      0.1956
     81  C        -35.2110  -29.6090   -1.1180 C.2   217  GLY217      0.2612
     82  O        -34.4560  -29.8270   -0.1690 O.2   217  GLY217     -0.2717
     83  N        -36.1590  -30.4550   -1.5170 N.am  218  ALA218     -0.1965
     84  CA       -36.4220  -31.7230   -0.8490 C.3   218  ALA218      0.1728
     85  C        -35.6120  -32.8870   -1.4230 C.2   218  ALA218      0.2616
     86  O        -35.7430  -34.0190   -0.9610 O.2   218  ALA218     -0.2715
     87  CB       -37.9120  -32.0390   -0.9220 C.3   218  ALA218      0.0334
     88  N        -34.7880  -32.6170   -2.4330 N.am  219  GLN219     -0.1977
     89  CA       -33.9470  -33.6560   -3.0330 C.3   219  GLN219      0.1601
     90  C        -32.5040  -33.3490   -2.6360 C.2   219  GLN219      0.2287
     91  O        -32.1460  -32.1850   -2.4620 O.2   219  GLN219     -0.2864
     92  CB       -34.0620  -33.6450   -4.5650 C.3   219  GLN219      0.0394
     93  CG       -35.4630  -33.9140   -5.1250 C.3   219  GLN219      0.0908
     94  CD       -35.9340  -35.3510   -4.9330 C.2   219  GLN219      0.2608
     95  OE1      -35.3100  -36.2960   -5.4200 O.2   219  GLN219     -0.2717
     96  NE2      -37.0480  -35.5170   -4.2270 N.am  219  GLN219     -0.0878
     97  N        -30.2740  -30.2550   -3.8780 N.3   222  ALA222     -0.1245
     98  CA       -31.1110  -29.2970   -4.5900 C.3   222  ALA222      0.1562
     99  C        -31.0990  -28.1310   -3.6030 C.2   222  ALA222      0.2260
    100  O        -32.0330  -27.9550   -2.8240 O.2   222  ALA222     -0.2867
    101  CB       -32.5230  -29.8390   -4.7620 C.3   222  ALA222      0.0290
@<TRIPOS>BOND
     1     8     6    1
     2     7     6    1
     3     6     5    1
     4    60    59    2
     5     5     2    1
     6    68    67    2
     7    67    66    1
     8    59    58    1
     9    65    66    1
    10    66    69    1
    11     2     1    1
    12     2     3    1
    13    57    58    1
    14    48    47    1
    15    48    49    2
    16    58    61    1
    17    54    56   ar
    18    54    52   ar
    19    56    55   ar
    20    47    46    1
    21    47    50    1
    22     3     4    2
    23    69    70    1
    24    52    51   ar
    25    55    53   ar
    26    51    53   ar
    27    51    50    1
    28    61    62    1
    29    70    71   ar
    30    70    72   ar
    31    71    73   ar
    32    62    63    2
    33    62    64   am
    34    72    75   ar
    35    72    74   ar
    36    73    74   ar
    37    75    77   ar
    38    74    76   ar
    39     9    10    1
    40    77    78   ar
    41    95    94    2
    42    93    94    1
    43    93    92    1
    44    76    78   ar
    45    10    13    1
    46    10    11    1
    47    94    96   am
    48   101    98    1
    49    17    16    2
    50    98    97    1
    51    98    99    1
    52    92    89    1
    53    20    19   ar
    54    16    15    1
    55    15    14    1
    56    15    18    1
    57    11    12    2
    58    11    14   am
    59    99   100    2
    60    19    18    1
    61    19    21   ar
    62    89    90    1
    63    89    88    1
    64    31    32    1
    65    31    30    1
    66    33    32    2
    67    90    91    2
    68    88    85   am
    69    45    44    1
    70    32    34   am
    71    30    28   am
    72    80    79    1
    73    80    81    1
    74    42    44   ar
    75    42    40   ar
    76    44    43   ar
    77    83    81   am
    78    83    84    1
    79    85    86    2
    80    85    84    1
    81    81    82    2
    82    28    29    2
    83    28    27    1
    84    40    39   ar
    85    34    35    1
    86    87    84    1
    87    43    41   ar
    88    35    36    1
    89    35    38    1
    90    27    26    1
    91    39    41   ar
    92    39    38    1
    93    36    37    2
    94    26    24   am
    95    25    24    2
    96    24    23    1
    97    23    22    1
