@<TRIPOS>MOLECULE
tmp/3n3aB00.pdb
 152 149 0 0 0
SMALL
GASTEIGER

@<TRIPOS>ATOM
      1  N          8.6990   15.0900   31.9750 N.3     6  SER6       -0.1202
      2  CA         8.0930   16.1320   31.1720 C.3     6  SER6        0.2020
      3  C          8.2240   17.4270   31.9570 C.2     6  SER6        0.2619
      4  O          7.9280   17.4500   33.1600 O.2     6  SER6       -0.2717
      5  CB         6.6230   15.7960   30.9030 C.3     6  SER6        0.2103
      6  OG         6.0650   16.6710   29.9400 O.3     6  SER6       -0.2182
      7  N          8.6930   18.4950   31.3050 N.am    7  SER7       -0.1951
      8  CA         8.7870   19.7890   31.9820 C.3     7  SER7        0.1924
      9  C          7.3850   20.3800   32.1540 C.2     7  SER7        0.2314
     10  O          6.3840   19.7150   31.8750 O.2     7  SER7       -0.2863
     11  CB         9.7070   20.7640   31.2350 C.3     7  SER7        0.2116
     12  OG         9.0780   21.2510   30.0630 O.3     7  SER7       -0.2180
     13  N          5.9870   22.4140   30.2850 N.3     9  SER9       -0.1202
     14  CA         5.3090   22.5330   28.9790 C.3     9  SER9        0.2020
     15  C          4.4880   21.2890   28.5860 C.2     9  SER9        0.2619
     16  O          3.6170   21.3570   27.7090 O.2     9  SER9       -0.2717
     17  CB         6.2880   22.9190   27.8580 C.3     9  SER9        0.2103
     18  OG         7.4330   22.0780   27.8340 O.3     9  SER9       -0.2182
     19  N          4.8060   20.1620   29.2210 N.am   10  GLU10      -0.1965
     20  CA         4.0020   18.9230   29.1770 C.3    10  GLU10       0.1733
     21  C          3.7770   18.2410   27.8130 C.2    10  GLU10       0.2616
     22  O          2.7910   17.5280   27.6220 O.2    10  GLU10      -0.2715
     23  CB         2.6780   19.1160   29.9350 C.3    10  GLU10       0.0429
     24  CG         2.8540   19.1160   31.4580 C.3    10  GLU10       0.1163
     25  CD         1.6680   19.6950   32.2010 C.2    10  GLU10       0.3649
     26  OE1        0.6850   20.1140   31.5450 O.co2  10  GLU10      -0.2457
     27  OE2        1.7230   19.7460   33.4510 O.co2  10  GLU10      -0.2457
     28  N          4.6970   18.4410   26.8760 N.am   11  ASN11      -0.1958
     29  CA         4.6350   17.7470   25.5970 C.3    11  ASN11       0.1819
     30  C          4.8370   16.2400   25.7620 C.2    11  ASN11       0.2621
     31  O          4.1480   15.4550   25.1240 O.2    11  ASN11      -0.2715
     32  CB         5.6570   18.3180   24.6160 C.3    11  ASN11       0.1195
     33  CG         5.3010   19.7300   24.1590 C.2    11  ASN11       0.2630
     34  OD1        4.5560   19.9150   23.1980 O.2    11  ASN11      -0.2716
     35  ND2        5.8380   20.7320   24.8520 N.am   11  ASN11      -0.0877
     36  N          5.7770   15.8480   26.6220 N.am   12  THR12      -0.1951
     37  CA         6.0740   14.4320   26.8290 C.3    12  THR12       0.1897
     38  C          4.9470   13.7880   27.6350 C.2    12  THR12       0.2313
     39  O          4.5830   12.6290   27.3970 O.2    12  THR12      -0.2863
     40  CB         7.4350   14.2320   27.5210 C.3    12  THR12       0.1794
     41  OG1        8.4270   14.9910   26.8180 O.3    12  THR12      -0.2208
     42  CG2        7.8270   12.7560   27.5270 C.3    12  THR12       0.0378
     43  N         12.6280   14.2760   27.2350 N.3    45  PRO45      -0.2102
     44  CA        12.8580   15.3570   26.2710 C.3    45  PRO45       0.1504
     45  C         14.2810   15.9240   26.3570 C.2    45  PRO45       0.2576
     46  O         14.9120   15.8610   27.4200 O.2    45  PRO45      -0.2718
     47  CB        11.8480   16.4230   26.7030 C.3    45  PRO45       0.0282
     48  CG        11.7310   16.2350   28.1920 C.3    45  PRO45       0.0208
     49  CD        11.8470   14.7390   28.4010 C.3    45  PRO45       0.0893
     50  N         14.7770   16.4730   25.2510 N.am   46  SER46      -0.1938
     51  CA        16.1290   17.0330   25.2010 C.3    46  SER46       0.2055
     52  C         16.1090   18.5200   25.5330 C.2    46  SER46       0.2643
     53  O         15.2180   19.2500   25.0810 O.2    46  SER46      -0.2714
     54  CB        16.7460   16.8160   23.8220 C.3    46  SER46       0.2130
     55  OG        16.6470   15.4580   23.4340 O.3    46  SER46      -0.2179
     56  N         17.0820   18.9730   26.3230 N.am   47  TYR47      -0.1959
     57  CA        17.0760   20.3670   26.7690 C.3    47  TYR47       0.1771
     58  C         18.3900   21.1510   26.6880 C.2    47  TYR47       0.2620
     59  O         18.6010   22.0950   27.4530 O.2    47  TYR47      -0.2715
     60  CB        16.4380   20.4940   28.1610 C.3    47  TYR47       0.0574
     61  CG        14.9440   20.6960   28.0840 C.ar   47  TYR47      -0.0198
     62  CD1       14.4130   21.9390   27.7500 C.ar   47  TYR47      -0.0009
     63  CD2       14.0600   19.6370   28.3100 C.ar   47  TYR47      -0.0009
     64  CE1       13.0390   22.1370   27.6580 C.ar   47  TYR47       0.0417
     65  CE2       12.6770   19.8230   28.2270 C.ar   47  TYR47       0.0417
     66  CZ        12.1730   21.0750   27.8990 C.ar   47  TYR47       0.1957
     67  OH        10.8080   21.2810   27.8070 O.3    47  TYR47      -0.2866
     68  N         19.2580   20.7890   25.7520 N.am   48  GLY48      -0.1940
     69  CA        20.4360   21.6160   25.4880 C.3    48  GLY48       0.2014
     70  C         20.0170   22.8260   24.6680 C.2    48  GLY48       0.2639
     71  O         19.5810   22.6660   23.5310 O.2    48  GLY48      -0.2714
     72  N         20.1120   24.0390   25.2130 N.am   49  GLY49      -0.1939
     73  CA        20.5860   24.3250   26.5660 C.3    49  GLY49       0.2014
     74  C         20.0530   25.6790   27.0160 C.2    49  GLY49       0.2639
     75  O         20.3550   26.7130   26.4030 O.2    49  GLY49      -0.2714
     76  N         19.2450   25.6660   28.0770 N.am   50  GLY50      -0.1939
     77  CA        18.6140   26.8770   28.6110 C.3    50  GLY50       0.2014
     78  C         18.7580   27.0080   30.1210 C.2    50  GLY50       0.2639
     79  O         19.2420   28.0220   30.6190 O.2    50  GLY50      -0.2714
     80  N         18.3390   25.9750   30.8530 N.am   51  GLY51      -0.1954
     81  CA        18.4110   25.9830   32.3180 C.3    51  GLY51       0.1869
     82  C         19.4870   25.0870   32.9120 C.2    51  GLY51       0.2309
     83  O         19.5510   24.9120   34.1360 O.2    51  GLY51      -0.2863
     84  N         12.7000   12.6370   23.0730 N.3    79  SER79      -0.1202
     85  CA        11.9020   13.5310   22.2650 C.3    79  SER79       0.2020
     86  C         12.6300   14.8580   22.0650 C.2    79  SER79       0.2619
     87  O         13.6960   15.1030   22.6520 O.2    79  SER79      -0.2717
     88  CB        10.5230   13.7310   22.8890 C.3    79  SER79       0.2103
     89  OG        10.6150   14.4220   24.1150 O.3    79  SER79      -0.2182
     90  N         12.0580   15.7010   21.2230 N.am   80  GLY80      -0.1942
     91  CA        12.6530   16.9890   20.9230 C.3    80  GLY80       0.2014
     92  C         12.0840   17.5550   19.6510 C.2    80  GLY80       0.2638
     93  O         10.8730   17.5090   19.4400 O.2    80  GLY80      -0.2714
     94  N         12.9600   18.0980   18.8090 N.am   81  ASN81      -0.1972
     95  CA        12.5460   18.7350   17.5640 C.3    81  ASN81       0.1688
     96  C         13.6500   18.6130   16.5140 C.2    81  ASN81       0.2292
     97  O         14.8030   18.9430   16.7840 O.2    81  ASN81      -0.2864
     98  CB        12.1580   20.2130   17.8070 C.3    81  ASN81       0.1181
     99  CG        11.3800   20.8310   16.6420 C.2    81  ASN81       0.2629
    100  OD1       11.6800   20.5930   15.4680 O.2    81  ASN81      -0.2716
    101  ND2       10.3720   21.6450   16.9710 N.am   81  ASN81      -0.0877
    102  N         16.3550   21.1430   15.5210 N.3    84  PHE84      -0.1241
    103  CA        17.5910   21.3090   16.2950 C.3    84  PHE84       0.1605
    104  C         18.8000   20.6170   15.6420 C.2    84  PHE84       0.2264
    105  O         19.9180   20.6750   16.1650 O.2    84  PHE84      -0.2867
    106  CB        17.4090   20.8690   17.7590 C.3    84  PHE84       0.0534
    107  CG        16.6040   21.8410   18.5940 C.ar   84  PHE84      -0.0203
    108  CD1       17.2230   22.9140   19.2300 C.ar   84  PHE84      -0.0042
    109  CD2       15.2380   21.6760   18.7500 C.ar   84  PHE84      -0.0042
    110  CE1       16.4800   23.8130   20.0040 C.ar   84  PHE84      -0.0003
    111  CE2       14.4830   22.5680   19.5140 C.ar   84  PHE84      -0.0003
    112  CZ        15.0980   23.6380   20.1370 C.ar   84  PHE84      -0.0000
    113  N         21.5750   18.0410   17.1790 N.3    87  ALA87      -0.1231
    114  CA        21.1220   17.9080   18.5580 C.3    87  ALA87       0.1694
    115  C         19.7310   17.2680   18.7410 C.2    87  ALA87       0.2592
    116  O         19.2920   17.0720   19.8760 O.2    87  ALA87      -0.2718
    117  CB        21.2120   19.2630   19.2970 C.3    87  ALA87       0.0304
    118  N         19.0500   16.9250   17.6450 N.am   88  TYR88      -0.1962
    119  CA        17.7080   16.3260   17.7290 C.3    88  TYR88       0.1771
    120  C         17.6670   15.0150   18.5410 C.2    88  TYR88       0.2620
    121  O         18.1940   13.9860   18.1210 O.2    88  TYR88      -0.2715
    122  CB        17.1070   16.1360   16.3260 C.3    88  TYR88       0.0574
    123  CG        15.8170   15.3390   16.2830 C.ar   88  TYR88      -0.0198
    124  CD1       14.8340   15.4930   17.2710 C.ar   88  TYR88      -0.0009
    125  CD2       15.5690   14.4470   15.2370 C.ar   88  TYR88      -0.0009
    126  CE1       13.6590   14.7580   17.2330 C.ar   88  TYR88       0.0417
    127  CE2       14.3880   13.7150   15.1830 C.ar   88  TYR88       0.0417
    128  CZ        13.4430   13.8670   16.1810 C.ar   88  TYR88       0.1957
    129  OH        12.2790   13.1410   16.1290 O.3    88  TYR88      -0.2866
    130  N         17.0240   15.0740   19.7050 N.am   89  GLY89      -0.1940
    131  CA        16.9050   13.9240   20.5830 C.3    89  GLY89       0.2014
    132  C         18.1940   13.5960   21.3190 C.2    89  GLY89       0.2638
    133  O         18.3610   12.4720   21.7870 O.2    89  GLY89      -0.2714
    134  N         19.0870   14.5810   21.4400 N.am   90  ARG90      -0.1977
    135  CA        20.4030   14.3950   22.0750 C.3    90  ARG90       0.1597
    136  C         20.3550   13.6660   23.4140 C.2    90  ARG90       0.2287
    137  O         21.2420   12.8610   23.7040 O.2    90  ARG90      -0.2864
    138  CB        21.1300   15.7310   22.2690 C.3    90  ARG90       0.0334
    139  CG        22.1430   16.1050   21.1850 C.3    90  ARG90       0.0492
    140  CD        23.4720   15.3410   21.3000 C.3    90  ARG90       0.2205
    141  NE        23.4530   14.1090   20.5090 N.pl3  90  ARG90      -0.0865
    142  CZ        23.9760   13.9730   19.2880 C.cat  90  ARG90       0.5346
    143  NH1       24.5820   14.9920   18.6880 N.pl3  90  ARG90       0.1354
    144  NH2       23.8950   12.8050   18.6610 N.pl3  90  ARG90       0.1354
    145  N          8.0840   16.6130   19.8620 N.3   109  LEU109     -0.1245
    146  CA         7.0280   17.2840   20.6270 C.3   109  LEU109      0.1561
    147  C          6.0940   16.2630   21.2970 C.2   109  LEU109      0.2260
    148  O          6.5710   15.3890   22.0280 O.2   109  LEU109     -0.2867
    149  CB         6.2780   18.2910   19.7300 C.3   109  LEU109      0.0270
    150  CG         7.1560   19.3360   19.0070 C.3   109  LEU109      0.0019
    151  CD1        6.3530   20.2480   18.0770 C.3   109  LEU109      0.0001
    152  CD2        7.9670   20.1920   19.9980 C.3   109  LEU109      0.0001
@<TRIPOS>BOND
     1   127   125   ar
     2   127   128   ar
     3   125   123   ar
     4   100    99    2
     5   102   103    1
     6   104   105    2
     7   104   103    1
     8   129   128    1
     9   128   126   ar
    10   123   122    1
    11   123   124   ar
    12   103   106    1
    13   122   119    1
    14    96    97    2
    15    96    95    1
    16    99   101   am
    17    99    98    1
    18   113   114    1
    19   126   124   ar
    20    95    98    1
    21    95    94    1
    22   118   119    1
    23   118   115   am
    24   119   120    1
    25   106   107    1
    26   151   150    1
    27   121   120    2
    28   120   130   am
    29   114   115    1
    30   114   117    1
    31   107   109   ar
    32   107   108   ar
    33   144   142    1
    34   143   142    1
    35   115   116    2
    36   109   111   ar
    37    94    92   am
    38   150   149    1
    39   150   152    1
    40   108   110   ar
    41   142   141    2
    42    93    92    2
    43   111   112   ar
    44    92    91    1
    45   130   131    1
    46   149   146    1
    47   145   146    1
    48   110   112   ar
    49   141   140    1
    50   131   132    1
    51   146   147    1
    52    91    90    1
    53   139   140    1
    54   139   138    1
    55    90    86   am
    56   147   148    2
    57   132   134   am
    58   132   133    2
    59   134   135    1
    60    86    85    1
    61    86    87    2
    62   135   138    1
    63   135   136    1
    64    85    88    1
    65    85    84    1
    66    88    89    1
    67    34    33    2
    68   136   137    2
    69    55    54    1
    70    71    70    2
    71    54    51    1
    72    33    32    1
    73    33    35   am
    74    32    29    1
    75    70    72   am
    76    70    69    1
    77    53    52    2
    78    31    30    2
    79    51    50    1
    80    51    52    1
    81    72    73    1
    82    50    45   am
    83    69    68    1
    84    52    56   am
    85    29    30    1
    86    29    28    1
    87    68    58   am
    88    30    36   am
    89    44    45    1
    90    44    47    1
    91    44    43    1
    92    56    57    1
    93    45    46    2
    94    75    74    2
    95    73    74    1
    96    36    37    1
    97    58    57    1
    98    58    59    2
    99    47    48    1
   100    57    60    1
   101    41    40    1
   102    37    40    1
   103    37    38    1
   104    28    21   am
   105    74    76   am
   106    43    49    1
   107    39    38    2
   108    40    42    1
   109    22    21    2
   110    64    62   ar
   111    64    66   ar
   112    16    15    2
   113    62    61   ar
   114    67    66    1
   115    21    20    1
   116    18    17    1
   117    17    14    1
   118    66    65   ar
   119    76    77    1
   120    61    60    1
   121    61    63   ar
   122    48    49    1
   123    65    63   ar
   124    15    14    1
   125    15    19   am
   126    77    78    1
   127    14    13    1
   128    20    19    1
   129    20    23    1
   130    23    24    1
   131     6     5    1
   132    12    11    1
   133    78    79    2
   134    78    80   am
   135    80    81    1
   136     5     2    1
   137     2     3    1
   138     2     1    1
   139    11     8    1
   140     7     3   am
   141     7     8    1
   142    24    25    1
   143    26    25   ar
   144    10     9    2
   145     3     4    2
   146     8     9    1
   147    25    27   ar
   148    81    82    1
   149    82    83    2
