@<TRIPOS>MOLECULE
tmp/3n3gA01.pdb
 112 110 0 0 0
SMALL
GASTEIGER

@<TRIPOS>ATOM
      1  N         20.1530   -5.1210   20.9870 N.3    19  GLN19      -0.1245
      2  CA        20.0560   -4.3190   22.2110 C.3    19  GLN19       0.1566
      3  C         19.4610   -5.0570   23.4160 C.2    19  GLN19       0.2260
      4  O         19.7000   -4.6700   24.5630 O.2    19  GLN19      -0.2867
      5  CB        19.3240   -3.0010   21.9440 C.3    19  GLN19       0.0367
      6  CG        17.8470   -3.1140   21.6890 C.3    19  GLN19       0.0905
      7  CD        17.2310   -1.7760   21.3160 C.2    19  GLN19       0.2608
      8  OE1       17.5750   -1.1640   20.2920 O.2    19  GLN19      -0.2717
      9  NE2       16.3050   -1.3200   22.1390 N.am   19  GLN19      -0.0878
     10  N         16.7600   -0.2910   26.3320 N.3    23  GLY23      -0.1225
     11  CA        16.3810    0.6860   25.3150 C.3    23  GLY23       0.1811
     12  C         17.5290    1.5760   24.8620 C.2    23  GLY23       0.2280
     13  O         17.4600    2.7960   24.9880 O.2    23  GLY23      -0.2866
     14  N         18.6440    1.8650   21.7340 N.3    25  CYS25      -0.1221
     15  CA        18.5560    2.0880   20.2770 C.3    25  CYS25       0.1808
     16  C         19.2810    3.3440   19.8130 C.2    25  CYS25       0.2601
     17  O         19.9350    3.3490   18.7800 O.2    25  CYS25      -0.2717
     18  CB        17.0940    2.1810   19.8510 C.3    25  CYS25       0.0970
     19  SG        16.1610    3.5330   20.6740 S.3    25  CYS25      -0.0800
     20  N         19.1350    4.4030   20.6010 N.am   26  TRP26      -0.1976
     21  CA        19.7440    5.7180   20.3630 C.3    26  TRP26       0.1640
     22  C         21.2650    5.6580   20.3750 C.2    26  TRP26       0.2290
     23  O         21.9180    6.3070   19.5620 O.2    26  TRP26      -0.2864
     24  CB        19.2620    6.7110   21.4330 C.3    26  TRP26       0.0576
     25  CG        19.5780    6.2940   22.8600 C.ar   26  TRP26       0.0006
     26  CD1       18.8870    5.4040   23.6330 C.ar   26  TRP26       0.0946
     27  CD2       20.6760    6.7500   23.6590 C.ar   26  TRP26       0.0152
     28  NE1       19.4890    5.2770   24.8660 N.ar   26  TRP26      -0.2442
     29  CE2       20.5850    6.1010   24.9080 C.ar   26  TRP26       0.0810
     30  CE3       21.7330    7.6450   23.4370 C.ar   26  TRP26       0.0012
     31  CZ2       21.5010    6.3260   25.9290 C.ar   26  TRP26       0.0191
     32  CZ3       22.6330    7.8680   24.4450 C.ar   26  TRP26       0.0001
     33  CH2       22.5180    7.2110   25.6780 C.ar   26  TRP26       0.0015
     34  N         16.5150    3.4400   29.3060 N.3    67  ASN67      -0.1225
     35  CA        15.1690    3.9840   29.1660 C.3    67  ASN67       0.1785
     36  C         15.1130    5.0880   28.1100 C.2    67  ASN67       0.2598
     37  O         14.1980    5.8990   28.0980 O.2    67  ASN67      -0.2718
     38  CB        14.6620    4.4900   30.5220 C.3    67  ASN67       0.1169
     39  CG        14.3120    3.3600   31.4810 C.2    67  ASN67       0.2627
     40  OD1       14.7870    3.3220   32.6200 O.2    67  ASN67      -0.2716
     41  ND2       13.4800    2.4390   31.0310 N.am   67  ASN67      -0.0877
     42  N         16.0910    5.1160   27.2160 N.am   68  GLY68      -0.1942
     43  CA        16.0670    6.0320   26.0770 C.3    68  GLY68       0.2014
     44  C         17.0120    7.2170   26.1420 C.2    68  GLY68       0.2639
     45  O         17.6320    7.4970   27.1630 O.2    68  GLY68      -0.2714
     46  N         17.1010    7.9240   25.0230 N.am   69  GLY69      -0.1939
     47  CA        18.0650    8.9930   24.8590 C.3    69  GLY69       0.2014
     48  C         18.0720    9.5130   23.4440 C.2    69  GLY69       0.2639
     49  O         17.2510    9.0940   22.6290 O.2    69  GLY69      -0.2714
     50  N         19.0060   10.4220   23.1570 N.am   70  PHE70      -0.1959
     51  CA        19.0570   11.1420   21.8730 C.3    70  PHE70       0.1771
     52  C         20.3920   10.9080   21.2060 C.2    70  PHE70       0.2619
     53  O         21.4220   10.8980   21.8790 O.2    70  PHE70      -0.2715
     54  CB        18.9190   12.6590   22.0760 C.3    70  PHE70       0.0574
     55  CG        17.7200   13.0780   22.8770 C.ar   70  PHE70      -0.0200
     56  CD1       17.7940   13.1810   24.2710 C.ar   70  PHE70      -0.0042
     57  CD2       16.5360   13.4120   22.2490 C.ar   70  PHE70      -0.0042
     58  CE1       16.6930   13.5820   25.0250 C.ar   70  PHE70      -0.0003
     59  CE2       15.4240   13.8210   22.9910 C.ar   70  PHE70      -0.0003
     60  CZ        15.5040   13.8970   24.3800 C.ar   70  PHE70      -0.0000
     61  N         20.3780   10.7500   19.8810 N.am   71  MET71      -0.1977
     62  CA        21.6130   10.5940   19.1130 C.3    71  MET71       0.1605
     63  C         22.4300   11.8790   19.1080 C.2    71  MET71       0.2287
     64  O         23.6540   11.8280   19.1360 O.2    71  MET71      -0.2864
     65  CB        21.3260   10.1740   17.6720 C.3    71  MET71       0.0413
     66  CG        20.7640    8.7750   17.5270 C.3    71  MET71       0.0598
     67  SD        19.0000    8.6310   17.8540 S.3    71  MET71      -0.1393
     68  CE        18.3630    9.2580   16.2930 C.3    71  MET71       0.0692
     69  N         15.1680    9.0630   14.0840 N.3   137  GLY137     -0.1225
     70  CA        14.1050    8.5410   14.9210 C.3   137  GLY137      0.1811
     71  C         12.9610    8.0900   14.0500 C.2   137  GLY137      0.2280
     72  O         12.6640    8.7120   13.0210 O.2   137  GLY137     -0.2866
     73  N          8.2840   10.3360   16.8490 N.3   162  VAL162     -0.1231
     74  CA         9.3070    9.3060   16.8240 C.3   162  VAL162      0.1692
     75  C          9.6620    8.8340   18.2390 C.2   162  VAL162      0.2592
     76  O          9.6540    9.6180   19.1860 O.2   162  VAL162     -0.2718
     77  CB        10.5510    9.8070   16.0590 C.3   162  VAL162      0.0266
     78  CG1       10.1530   10.2280   14.6410 C.3   162  VAL162      0.0020
     79  CG2       11.2340   10.9610   16.7840 C.3   162  VAL162      0.0020
     80  N          9.9580    7.5430   18.3710 N.am  163  ASN163     -0.1960
     81  CA        10.2040    6.9200   19.6780 C.3   163  ASN163      0.1819
     82  C         11.2770    5.8270   19.6440 C.2   163  ASN163      0.2621
     83  O         11.4700    5.1090   20.6300 O.2   163  ASN163     -0.2715
     84  CB         8.8910    6.3410   20.1980 C.3   163  ASN163      0.1195
     85  CG         8.1510    5.5650   19.1310 C.2   163  ASN163      0.2630
     86  OD1        8.6880    4.6020   18.5740 O.2   163  ASN163     -0.2716
     87  ND2        6.9210    5.9980   18.8080 N.am  163  ASN163     -0.0877
     88  N         11.9790    5.7120   18.5190 N.am  164  HIS164     -0.1959
     89  CA        12.9330    4.6400   18.3160 C.3   164  HIS164      0.1787
     90  C         14.0460    5.1220   17.3970 C.2   164  HIS164      0.2620
     91  O         13.7770    5.5830   16.2930 O.2   164  HIS164     -0.2715
     92  CB        12.2200    3.4110   17.7270 C.3   164  HIS164      0.0785
     93  CG        13.1150    2.2250   17.5450 C.ar  164  HIS164      0.0821
     94  ND1       13.7280    1.5870   18.6030 N.ar  164  HIS164     -0.2267
     95  CD2       13.5080    1.5670   16.4280 C.ar  164  HIS164      0.1154
     96  CE1       14.4700    0.5960   18.1450 C.ar  164  HIS164      0.1986
     97  NE2       14.3420    0.5500   16.8310 N.ar  164  HIS164     -0.2212
     98  N         15.2900    5.0150   17.8670 N.am  165  GLY165     -0.1954
     99  CA        16.4740    5.4700   17.1240 C.3   165  GLY165      0.1869
    100  C         17.0140    4.3900   16.2090 C.2   165  GLY165      0.2309
    101  O         17.2450    3.2750   16.6450 O.2   165  GLY165     -0.2863
    102  N         13.6390   13.8330   12.6920 N.3   211  PHE211     -0.1241
    103  CA        14.8180   14.2230   13.4510 C.3   211  PHE211      0.1605
    104  C         16.1030   13.5170   12.9950 C.2   211  PHE211      0.2264
    105  O         16.6570   12.7120   13.7330 O.2   211  PHE211     -0.2867
    106  CB        14.5480   13.9960   14.9420 C.3   211  PHE211      0.0534
    107  CG        13.4140   14.8480   15.4900 C.ar  211  PHE211     -0.0203
    108  CD1       13.6180   16.1820   15.8220 C.ar  211  PHE211     -0.0042
    109  CD2       12.1430   14.3150   15.6730 C.ar  211  PHE211     -0.0042
    110  CE1       12.5670   16.9610   16.3300 C.ar  211  PHE211     -0.0003
    111  CE2       11.1060   15.0950   16.1810 C.ar  211  PHE211     -0.0003
    112  CZ        11.3200   16.4140   16.5010 C.ar  211  PHE211     -0.0000
@<TRIPOS>BOND
     1   102   103    1
     2   104   103    1
     3   104   105    2
     4    72    71    2
     5   103   106    1
     6    71    70    1
     7    69    70    1
     8    78    77    1
     9   106   107    1
    10   107   109   ar
    11   107   108   ar
    12   109   111   ar
    13   108   110   ar
    14    77    79    1
    15    77    74    1
    16   111   112   ar
    17   100   101    2
    18   100    99    1
    19    91    90    2
    20    68    67    1
    21   110   112   ar
    22    95    97   ar
    23    95    93   ar
    24    74    73    1
    25    74    75    1
    26    97    96   ar
    27    99    98    1
    28    90    98   am
    29    90    89    1
    30    66    65    1
    31    66    67    1
    32    93    92    1
    33    93    94   ar
    34    65    62    1
    35    92    89    1
    36    96    94   ar
    37    75    80   am
    38    75    76    2
    39    89    88    1
    40    80    81    1
    41    88    82   am
    42    86    85    2
    43    17    16    2
    44    87    85   am
    45    63    62    1
    46    63    64    2
    47    62    61    1
    48    85    84    1
    49    23    22    2
    50    82    81    1
    51    82    83    2
    52    81    84    1
    53    16    15    1
    54    16    20   am
    55    18    15    1
    56    18    19    1
    57    61    52   am
    58    15    14    1
    59     8     7    2
    60    21    22    1
    61    21    20    1
    62    21    24    1
    63     1     2    1
    64    52    51    1
    65    52    53    2
    66     7     6    1
    67     7     9   am
    68    24    25    1
    69     6     5    1
    70    51    54    1
    71    51    50    1
    72     5     2    1
    73    54    55    1
    74     2     3    1
    75    57    55   ar
    76    57    59   ar
    77    49    48    2
    78    25    26   ar
    79    25    27   ar
    80    55    56   ar
    81    59    60   ar
    82    50    48   am
    83     3     4    2
    84    30    27   ar
    85    30    32   ar
    86    48    47    1
    87    26    28   ar
    88    27    29   ar
    89    56    58   ar
    90    60    58   ar
    91    32    33   ar
    92    47    46    1
    93    12    13    2
    94    12    11    1
    95    28    29   ar
    96    29    31   ar
    97    46    44   am
    98    11    10    1
    99    33    31   ar
   100    43    44    1
   101    43    42    1
   102    44    45    2
   103    42    36   am
   104    37    36    2
   105    36    35    1
   106    35    34    1
   107    35    38    1
   108    38    39    1
   109    41    39   am
   110    39    40    2
