@<TRIPOS>MOLECULE
tmp/3n3gA02.pdb
 104 106 0 0 0
SMALL
GASTEIGER

@<TRIPOS>ATOM
      1  N         22.4020   -6.3460   18.7970 N.3    18  TYR18      -0.1227
      2  CA        21.2120   -6.7610   19.5090 C.3    18  TYR18       0.1736
      3  C         21.1100   -6.0360   20.8570 C.2    18  TYR18       0.2595
      4  O         21.8980   -6.2860   21.7550 O.2    18  TYR18      -0.2718
      5  CB        21.2710   -8.2700   19.7050 C.3    18  TYR18       0.0548
      6  CG        20.1330   -8.8160   20.5160 C.ar   18  TYR18      -0.0200
      7  CD1       18.8360   -8.7790   20.0270 C.ar   18  TYR18      -0.0009
      8  CD2       20.3600   -9.3820   21.7720 C.ar   18  TYR18      -0.0009
      9  CE1       17.7890   -9.2800   20.7610 C.ar   18  TYR18       0.0417
     10  CE2       19.3290   -9.8960   22.5160 C.ar   18  TYR18       0.0417
     11  CZ        18.0450   -9.8390   22.0090 C.ar   18  TYR18       0.1957
     12  OH        17.0150  -10.3430   22.7450 O.3    18  TYR18      -0.2866
     13  N         20.1530   -5.1210   20.9870 N.am   19  GLN19      -0.1965
     14  CA        20.0560   -4.3190   22.2110 C.3    19  GLN19       0.1733
     15  C         19.4610   -5.0570   23.4160 C.2    19  GLN19       0.2616
     16  O         19.7000   -4.6700   24.5630 O.2    19  GLN19      -0.2715
     17  CB        19.3240   -3.0010   21.9440 C.3    19  GLN19       0.0408
     18  CG        17.8470   -3.1140   21.6890 C.3    19  GLN19       0.0908
     19  CD        17.2310   -1.7760   21.3160 C.2    19  GLN19       0.2608
     20  OE1       17.5750   -1.1640   20.2920 O.2    19  GLN19      -0.2717
     21  NE2       16.3050   -1.3200   22.1390 N.am   19  GLN19      -0.0878
     22  N         18.7360   -6.1420   23.1470 N.am   20  GLY20      -0.1955
     23  CA        18.0340   -6.8980   24.1690 C.3    20  GLY20       0.1869
     24  C         16.9420   -6.0870   24.8270 C.2    20  GLY20       0.2309
     25  O         16.2810   -5.2870   24.1860 O.2    20  GLY20      -0.2863
     26  N          7.3030   -4.5690   14.5060 N.3   146  PHE146     -0.1227
     27  CA         7.8490   -5.7830   15.1480 C.3   146  PHE146      0.1736
     28  C          7.7890   -7.0100   14.2260 C.2   146  PHE146      0.2595
     29  O          8.7530   -7.7870   14.1430 O.2   146  PHE146     -0.2718
     30  CB         7.0820   -6.1080   16.4320 C.3   146  PHE146      0.0547
     31  CG         7.3690   -5.1730   17.5810 C.ar  146  PHE146     -0.0202
     32  CD1        6.9290   -3.8470   17.5630 C.ar  146  PHE146     -0.0042
     33  CD2        8.0460   -5.6280   18.6980 C.ar  146  PHE146     -0.0042
     34  CE1        7.1890   -2.9960   18.6270 C.ar  146  PHE146     -0.0003
     35  CE2        8.3110   -4.7770   19.7740 C.ar  146  PHE146     -0.0003
     36  CZ         7.8760   -3.4610   19.7360 C.ar  146  PHE146     -0.0000
     37  N          6.6660   -7.1540   13.5230 N.am  147  LEU147     -0.1966
     38  CA         6.3840   -8.3260   12.7020 C.3   147  LEU147      0.1728
     39  C          6.9290   -8.2160   11.2800 C.2   147  LEU147      0.2616
     40  O          6.7820   -9.1510   10.4850 O.2   147  LEU147     -0.2715
     41  CB         4.8680   -8.5820   12.6440 C.3   147  LEU147      0.0311
     42  CG         4.1600   -8.9360   13.9530 C.3   147  LEU147      0.0022
     43  CD1        2.6560   -8.9680   13.7560 C.3   147  LEU147      0.0001
     44  CD2        4.6750  -10.2610   14.5000 C.3   147  LEU147      0.0001
     45  N          7.5550   -7.0860   10.9500 N.am  148  TYR148     -0.1960
     46  CA         8.0780   -6.8730    9.6030 C.3   148  TYR148      0.1771
     47  C          9.0460   -7.9910    9.1890 C.2   148  TYR148      0.2619
     48  O          9.9200   -8.3840    9.9650 O.2   148  TYR148     -0.2715
     49  CB         8.7650   -5.5060    9.5050 C.3   148  TYR148      0.0574
     50  CG         9.5640   -5.3120    8.2330 C.ar  148  TYR148     -0.0198
     51  CD1       10.9450   -5.5410    8.2220 C.ar  148  TYR148     -0.0009
     52  CD2        8.9440   -4.9320    7.0420 C.ar  148  TYR148     -0.0009
     53  CE1       11.6930   -5.3820    7.0630 C.ar  148  TYR148      0.0417
     54  CE2        9.6890   -4.7570    5.8650 C.ar  148  TYR148      0.0417
     55  CZ        11.0650   -4.9880    5.8870 C.ar  148  TYR148      0.1957
     56  OH        11.8300   -4.8370    4.7560 O.3   148  TYR148     -0.2866
     57  N          8.8670   -8.4920    7.9660 N.am  149  ARG149     -0.1977
     58  CA         9.7270   -9.5360    7.4060 C.3   149  ARG149      0.1597
     59  C         10.4660   -9.1260    6.1510 C.2   149  ARG149      0.2287
     60  O         11.6230   -9.4800    5.9860 O.2   149  ARG149     -0.2864
     61  CB         8.9130  -10.7890    7.0590 C.3   149  ARG149      0.0334
     62  CG         8.2490  -11.4600    8.2170 C.3   149  ARG149      0.0492
     63  CD         9.2450  -11.9090    9.2630 C.3   149  ARG149      0.2205
     64  NE        10.1540  -12.9700    8.8170 N.pl3 149  ARG149     -0.0865
     65  CZ        11.4860  -12.9760    8.9600 C.cat 149  ARG149      0.5346
     66  NH1       12.1450  -11.9620    9.5400 N.pl3 149  ARG149      0.1354
     67  NH2       12.1740  -14.0280    8.5150 N.pl3 149  ARG149      0.1354
     68  N         17.9190   -4.6110   16.6920 N.3   186  TRP186     -0.1241
     69  CA        17.1110   -5.6720   17.2660 C.3   186  TRP186      0.1605
     70  C         17.5880   -7.0710   16.8270 C.2   186  TRP186      0.2264
     71  O         16.7890   -8.0050   16.7560 O.2   186  TRP186     -0.2867
     72  CB        15.6410   -5.4590   16.8810 C.3   186  TRP186      0.0550
     73  CG        14.9150   -4.3370   17.5740 C.ar  186  TRP186      0.0003
     74  CD1       15.4020   -3.4830   18.5260 C.ar  186  TRP186      0.0946
     75  CD2       13.5440   -3.9730   17.3740 C.ar  186  TRP186      0.0152
     76  NE1       14.4240   -2.6110   18.9210 N.ar  186  TRP186     -0.2442
     77  CE2       13.2710   -2.8880   18.2330 C.ar  186  TRP186      0.0810
     78  CE3       12.5170   -4.4640   16.5510 C.ar  186  TRP186      0.0012
     79  CZ2       12.0130   -2.2800   18.2920 C.ar  186  TRP186      0.0191
     80  CZ3       11.2710   -3.8590   16.6080 C.ar  186  TRP186      0.0001
     81  CH2       11.0270   -2.7830   17.4790 C.ar  186  TRP186      0.0015
     82  N         17.8860  -11.3440   13.3300 N.3   189  ASN189     -0.1225
     83  CA        16.6620  -12.0100   12.8800 C.3   189  ASN189      0.1785
     84  C         15.4820  -11.0800   12.6490 C.2   189  ASN189      0.2597
     85  O         14.4610  -11.5010   12.1140 O.2   189  ASN189     -0.2718
     86  CB        16.2490  -13.0910   13.8750 C.3   189  ASN189      0.1169
     87  CG        17.3140  -14.1390   14.0690 C.2   189  ASN189      0.2627
     88  OD1       17.8300  -14.7040   13.1070 O.2   189  ASN189     -0.2716
     89  ND2       17.6590  -14.4010   15.3250 N.am  189  ASN189     -0.0877
     90  N         15.6040   -9.8240   13.0620 N.am  190  PHE190     -0.1962
     91  CA        14.5530   -8.8540   12.8070 C.3   190  PHE190      0.1771
     92  C         14.5330   -8.4760   11.3220 C.2   190  PHE190      0.2620
     93  O         15.5710   -8.2020   10.7440 O.2   190  PHE190     -0.2715
     94  CB        14.7650   -7.5860   13.6310 C.3   190  PHE190      0.0574
     95  CG        13.9420   -6.4220   13.1450 C.ar  190  PHE190     -0.0200
     96  CD1       12.6320   -6.2670   13.5640 C.ar  190  PHE190     -0.0042
     97  CD2       14.4670   -5.5080   12.2380 C.ar  190  PHE190     -0.0042
     98  CE1       11.8650   -5.2050   13.1030 C.ar  190  PHE190     -0.0003
     99  CE2       13.6990   -4.4440   11.7630 C.ar  190  PHE190     -0.0003
    100  CZ        12.3980   -4.3020   12.1940 C.ar  190  PHE190     -0.0000
    101  N         13.3470   -8.4370   10.7260 N.am  191  GLY191     -0.1954
    102  CA        13.1720   -7.8900    9.3800 C.3   191  GLY191      0.1869
    103  C         14.0100   -8.6360    8.3680 C.2   191  GLY191      0.2309
    104  O         14.0210   -9.8700    8.3650 O.2   191  GLY191     -0.2863
@<TRIPOS>BOND
     1    56    55    1
     2    54    55   ar
     3    54    52   ar
     4    55    53   ar
     5    60    59    2
     6    59    58    1
     7    52    50   ar
     8    61    58    1
     9    61    62    1
    10    53    51   ar
    11    58    57    1
    12    57    47   am
    13    62    63    1
    14    51    50   ar
    15    50    49    1
    16   104   103    2
    17   103   102    1
    18    67    65    1
    19    64    65    2
    20    64    63    1
    21    65    66    1
    22    47    46    1
    23    47    48    2
    24   102   101    1
    25    49    46    1
    26    46    45    1
    27    40    39    2
    28   101    92   am
    29    93    92    2
    30    45    39   am
    31    39    38    1
    32    92    91    1
    33    99   100   ar
    34    99    97   ar
    35    85    84    2
    36   100    98   ar
    37    97    95   ar
    38    41    38    1
    39    41    42    1
    40    84    83    1
    41    84    90   am
    42    38    37    1
    43    91    90    1
    44    91    94    1
    45    83    82    1
    46    83    86    1
    47    98    96   ar
    48    88    87    2
    49    95    96   ar
    50    95    94    1
    51    37    28   am
    52    43    42    1
    53    86    87    1
    54    42    44    1
    55    87    89   am
    56    29    28    2
    57    28    27    1
    58    26    27    1
    59    27    30    1
    60    30    31    1
    61    78    80   ar
    62    78    75   ar
    63    80    81   ar
    64    68    69    1
    65    71    70    2
    66    70    69    1
    67    72    69    1
    68    72    73    1
    69    75    73   ar
    70    75    77   ar
    71    81    79   ar
    72    32    31   ar
    73    32    34   ar
    74    73    74   ar
    75    31    33   ar
    76    77    79   ar
    77    77    76   ar
    78    74    76   ar
    79    34    36   ar
    80    33    35   ar
    81     1     2    1
    82     2     5    1
    83     2     3    1
    84     5     6    1
    85    36    35   ar
    86     7     6   ar
    87     7     9   ar
    88    20    19    2
    89     6     8   ar
    90     9    11   ar
    91     3    13   am
    92     3     4    2
    93    13    14    1
    94    19    18    1
    95    19    21   am
    96    18    17    1
    97     8    10   ar
    98    17    14    1
    99    11    10   ar
   100    11    12    1
   101    14    15    1
   102    22    15   am
   103    22    23    1
   104    15    16    2
   105    23    24    1
   106    25    24    2
