@<TRIPOS>MOLECULE
tmp/3n3hA00.pdb
 71 65 0 0 0
SMALL
GASTEIGER

@<TRIPOS>ATOM
      1  N        -31.1310  -29.5130  -10.1000 N.3    86  LEU86      -0.1245
      2  CA       -31.7150  -28.1790  -10.0990 C.3    86  LEU86       0.1561
      3  C        -31.8100  -27.5620   -8.7020 C.2    86  LEU86       0.2260
      4  O        -32.2560  -28.2150   -7.7620 O.2    86  LEU86      -0.2867
      5  CB       -33.1190  -28.2180  -10.7180 C.3    86  LEU86       0.0270
      6  CG       -33.2620  -28.7280  -12.1540 C.3    86  LEU86       0.0019
      7  CD1      -34.7380  -28.7790  -12.5390 C.3    86  LEU86       0.0001
      8  CD2      -32.4930  -27.8140  -13.0920 C.3    86  LEU86       0.0001
      9  N        -33.2690  -25.2090   -5.7140 N.3    88  ALA88      -0.1231
     10  CA       -34.6310  -24.8890   -5.1780 C.3    88  ALA88       0.1694
     11  C        -34.3610  -24.0370   -3.9170 C.2    88  ALA88       0.2592
     12  O        -33.1620  -24.0270   -3.5380 O.2    88  ALA88      -0.2718
     13  CB       -35.3820  -26.1500   -4.7490 C.3    88  ALA88       0.0304
     14  N        -35.3230  -23.2610   -3.3430 N.am   89  ASP89      -0.1974
     15  CA       -36.7270  -23.0870   -3.8900 C.3    89  ASP89       0.1709
     16  C        -36.9700  -21.6190   -3.9900 C.2    89  ASP89       0.2293
     17  O        -37.7680  -21.1290   -4.8210 O.2    89  ASP89      -0.2864
     18  CB       -37.8050  -23.7200   -2.9840 C.3    89  ASP89       0.1436
     19  CG       -37.9790  -25.1320   -3.2590 C.2    89  ASP89       0.3671
     20  OD1      -38.5090  -25.3360   -4.3530 O.co2  89  ASP89      -0.2456
     21  OD2      -37.5170  -26.0080   -2.4600 O.co2  89  ASP89      -0.2456
     22  N        -39.7540  -26.3210    1.2430 N.3   106  GLY106     -0.1210
     23  CA       -39.6610  -26.5790   -0.1810 C.3   106  GLY106      0.1956
     24  C        -40.3360  -25.5040   -1.0150 C.2   106  GLY106      0.2612
     25  O        -40.1790  -24.3120   -0.7480 O.2   106  GLY106     -0.2717
     26  N        -41.0920  -25.9290   -2.0220 N.am  107  GLY107     -0.1956
     27  CA       -41.7780  -24.9930   -2.8960 C.3   107  GLY107      0.1869
     28  C        -42.7960  -24.0800   -2.2320 C.2   107  GLY107      0.2309
     29  O        -43.2480  -23.1100   -2.8440 O.2   107  GLY107     -0.2863
     30  N        -37.1250  -22.3380   -8.2800 N.3   131  PHE131     -0.1241
     31  CA       -37.4430  -23.6650   -8.8180 C.3   131  PHE131      0.1605
     32  C        -38.8490  -23.6590   -9.3850 C.2   131  PHE131      0.2264
     33  O        -39.7580  -23.1820   -8.7370 O.2   131  PHE131     -0.2867
     34  CB       -37.3560  -24.7320   -7.7210 C.3   131  PHE131      0.0534
     35  CG       -37.6710  -26.1190   -8.2050 C.ar  131  PHE131     -0.0203
     36  CD1      -36.6800  -26.9180   -8.7690 C.ar  131  PHE131     -0.0042
     37  CD2      -38.9730  -26.6070   -8.1480 C.ar  131  PHE131     -0.0042
     38  CE1      -36.9840  -28.1890   -9.2720 C.ar  131  PHE131     -0.0003
     39  CE2      -39.2860  -27.8740   -8.6490 C.ar  131  PHE131     -0.0003
     40  CZ       -38.2860  -28.6640   -9.2110 C.ar  131  PHE131     -0.0000
     41  N        -42.1680  -25.1450   -9.8320 N.3   133  ASN133     -0.1240
     42  CA       -43.0830  -26.2000   -9.3940 C.3   133  ASN133      0.1653
     43  C        -44.2540  -26.2890  -10.3720 C.2   133  ASN133      0.2266
     44  O        -44.3440  -25.5060  -11.3160 O.2   133  ASN133     -0.2867
     45  CB       -43.6250  -25.9350   -7.9840 C.3   133  ASN133      0.1155
     46  CG       -42.5450  -25.9870   -6.9270 C.2   133  ASN133      0.2627
     47  OD1      -41.8710  -24.9970   -6.6740 O.2   133  ASN133     -0.2716
     48  ND2      -42.3650  -27.1500   -6.3130 N.am  133  ASN133     -0.0877
     49  N        -34.5810  -27.2470   -1.5280 N.3   217  GLY217     -0.1210
     50  CA       -35.3330  -28.4160   -1.9540 C.3   217  GLY217      0.1956
     51  C        -35.2870  -29.6650   -1.0950 C.2   217  GLY217      0.2612
     52  O        -34.4570  -29.7950   -0.1950 O.2   217  GLY217     -0.2717
     53  N        -36.1900  -30.5950   -1.3940 N.am  218  ALA218     -0.1965
     54  CA       -36.2800  -31.8530   -0.6650 C.3   218  ALA218      0.1728
     55  C        -35.3760  -32.9300   -1.2610 C.2   218  ALA218      0.2616
     56  O        -35.1950  -33.9850   -0.6590 O.2   218  ALA218     -0.2715
     57  CB       -37.7280  -32.3400   -0.6380 C.3   218  ALA218      0.0334
     58  N        -34.8170  -32.6740   -2.4420 N.am  219  GLN219     -0.1977
     59  CA       -33.9230  -33.6380   -3.0850 C.3   219  GLN219      0.1601
     60  C        -32.4860  -33.3160   -2.6800 C.2   219  GLN219      0.2287
     61  O        -32.1300  -32.1490   -2.5170 O.2   219  GLN219     -0.2864
     62  CB       -34.0400  -33.5620   -4.6130 C.3   219  GLN219      0.0394
     63  CG       -35.4320  -33.8250   -5.1770 C.3   219  GLN219      0.0908
     64  CD       -35.9160  -35.2440   -4.9240 C.2   219  GLN219      0.2608
     65  OE1      -35.2630  -36.2160   -5.3120 O.2   219  GLN219     -0.2717
     66  NE2      -37.0700  -35.3680   -4.2750 N.am  219  GLN219     -0.0878
     67  N        -30.3240  -30.2180   -3.8460 N.3   222  ALA222     -0.1245
     68  CA       -31.2010  -29.2760   -4.5400 C.3   222  ALA222      0.1562
     69  C        -31.2160  -28.1080   -3.5620 C.2   222  ALA222      0.2260
     70  O        -32.1750  -27.9180   -2.8180 O.2   222  ALA222     -0.2867
     71  CB       -32.6030  -29.8510   -4.6930 C.3   222  ALA222      0.0290
@<TRIPOS>BOND
     1     8     6    1
     2     7     6    1
     3     6     5    1
     4    44    43    2
     5     5     2    1
     6    43    42    1
     7     1     2    1
     8     2     3    1
     9    41    42    1
    10    42    45    1
    11    32    31    1
    12    32    33    2
    13    38    40   ar
    14    38    36   ar
    15    40    39   ar
    16    31    30    1
    17    31    34    1
    18    36    35   ar
    19     3     4    2
    20    39    37   ar
    21    35    37   ar
    22    35    34    1
    23    45    46    1
    24    46    47    2
    25    46    48   am
    26     9    10    1
    27    65    64    2
    28    10    13    1
    29    10    11    1
    30    63    64    1
    31    63    62    1
    32    64    66   am
    33    17    16    2
    34    71    68    1
    35    62    59    1
    36    68    67    1
    37    68    69    1
    38    20    19   ar
    39    16    15    1
    40    11    12    2
    41    11    14   am
    42    15    14    1
    43    15    18    1
    44    69    70    2
    45    19    18    1
    46    19    21   ar
    47    59    60    1
    48    59    58    1
    49    27    28    1
    50    27    26    1
    51    29    28    2
    52    60    61    2
    53    58    55   am
    54    26    24   am
    55    50    49    1
    56    50    51    1
    57    53    51   am
    58    53    54    1
    59    55    54    1
    60    55    56    2
    61    51    52    2
    62    24    25    2
    63    24    23    1
    64    54    57    1
    65    23    22    1
