@<TRIPOS>MOLECULE
tmp/3n3jA00.pdb
 148 143 0 0 0
SMALL
GASTEIGER

@<TRIPOS>ATOM
      1  N        -12.7610    6.3220   11.2270 N.3    90  GLN90      -0.1245
      2  CA       -12.4690    5.1710   10.3740 C.3    90  GLN90       0.1566
      3  C        -12.6860    3.8800   11.1180 C.2    90  GLN90       0.2260
      4  O        -12.7460    3.8790   12.3480 O.2    90  GLN90      -0.2867
      5  CB       -11.0150    5.2210    9.8600 C.3    90  GLN90       0.0367
      6  CG        -9.9290    5.3130   10.9800 C.3    90  GLN90       0.0905
      7  CD        -9.1370    4.0570   11.2080 C.2    90  GLN90       0.2608
      8  OE1       -9.6510    2.9490   11.1200 O.2    90  GLN90      -0.2717
      9  NE2       -7.8520    4.2340   11.5120 N.am   90  GLN90      -0.0878
     10  N        -11.2720   -0.4240   10.8450 N.3    92  HIS92      -0.1241
     11  CA       -10.4030   -1.3960   10.2120 C.3    92  HIS92       0.1621
     12  C        -10.4710   -2.6660   11.0330 C.2    92  HIS92       0.2264
     13  O        -11.1010   -2.7070   12.0820 O.2    92  HIS92      -0.2867
     14  CB        -8.9630   -0.8930   10.1900 C.3    92  HIS92       0.0745
     15  CG        -8.4250   -0.6480   11.5610 C.ar   92  HIS92       0.0817
     16  ND1       -8.5440    0.5740   12.1780 N.ar   92  HIS92      -0.2268
     17  CD2       -7.8200   -1.4700   12.4490 C.ar   92  HIS92       0.1154
     18  CE1       -8.0330    0.5010   13.3960 C.ar   92  HIS92       0.1986
     19  NE2       -7.5530   -0.7220   13.5660 N.ar   92  HIS92      -0.2212
     20  N         -8.1390   -6.3800   12.3320 N.3    94  HIS94      -0.1241
     21  CA        -6.9230   -7.1770   12.4750 C.3    94  HIS94       0.1621
     22  C         -7.3580   -8.6360   12.3910 C.2    94  HIS94       0.2264
     23  O         -8.4180   -8.9990   12.9080 O.2    94  HIS94      -0.2867
     24  CB        -6.2610   -6.9310   13.8190 C.3    94  HIS94       0.0745
     25  CG        -5.9920   -5.4840   14.0930 C.ar   94  HIS94       0.0817
     26  ND1       -4.7590   -4.8970   13.8910 N.ar   94  HIS94      -0.2268
     27  CD2       -6.8200   -4.4930   14.4960 C.ar   94  HIS94       0.1154
     28  CE1       -4.8350   -3.6140   14.2080 C.ar   94  HIS94       0.1986
     29  NE2       -6.0760   -3.3490   14.5710 N.ar   94  HIS94      -0.2212
     30  N        -12.0730   -2.6130   14.7720 N.3   117  HIS117     -0.1241
     31  CA       -11.8360   -1.3830   15.5260 C.3   117  HIS117      0.1621
     32  C        -12.5120   -0.2150   14.8650 C.2   117  HIS117      0.2264
     33  O        -12.1520    0.1190   13.7520 O.2   117  HIS117     -0.2867
     34  CB       -10.3360   -1.1160   15.6330 C.3   117  HIS117      0.0745
     35  CG        -9.6290   -2.1110   16.4930 C.ar  117  HIS117      0.0817
     36  ND1       -8.2650   -2.3140   16.4560 N.ar  117  HIS117     -0.2268
     37  CD2      -10.1110   -2.9380   17.4540 C.ar  117  HIS117      0.1154
     38  CE1       -7.9350   -3.2290   17.3410 C.ar  117  HIS117      0.1986
     39  NE2       -9.0400   -3.6350   17.9530 N.ar  117  HIS117     -0.2212
     40  N        -12.8170    3.6330   15.1780 N.3   119  VAL119     -0.1245
     41  CA       -11.9640    4.6430   15.8030 C.3   119  VAL119      0.1561
     42  C        -12.6960    5.9660   15.8140 C.2   119  VAL119      0.2260
     43  O        -13.1780    6.4130   14.7710 O.2   119  VAL119     -0.2867
     44  CB       -10.6600    4.7720   14.9920 C.3   119  VAL119      0.0252
     45  CG1       -9.7040    5.8070   15.6280 C.3   119  VAL119      0.0019
     46  CG2       -9.9870    3.4130   14.8310 C.3   119  VAL119      0.0019
     47  N         -8.6000   14.9920   14.6690 N.3   128  PHE128     -0.1227
     48  CA        -7.9260   13.7490   15.0280 C.3   128  PHE128      0.1736
     49  C         -6.4570   13.9520   15.3730 C.2   128  PHE128      0.2596
     50  O         -5.9660   13.3470   16.3460 O.2   128  PHE128     -0.2718
     51  CB        -8.0860   12.7770   13.8720 C.3   128  PHE128      0.0547
     52  CG        -7.4250   11.4480   14.0760 C.ar  128  PHE128     -0.0202
     53  CD1       -8.0360   10.4430   14.8070 C.ar  128  PHE128     -0.0042
     54  CD2       -6.1970   11.1990   13.4950 C.ar  128  PHE128     -0.0042
     55  CE1       -7.4190    9.2090   14.9860 C.ar  128  PHE128     -0.0003
     56  CE2       -5.5740    9.9620   13.6470 C.ar  128  PHE128     -0.0003
     57  CZ        -6.1860    8.9750   14.3900 C.ar  128  PHE128     -0.0000
     58  N         -5.7370   14.7560   14.5840 N.am  129  GLY129     -0.1957
     59  CA        -4.3200   14.9570   14.8270 C.3   129  GLY129      0.1869
     60  C         -4.0000   15.5490   16.1840 C.2   129  GLY129      0.2309
     61  O         -2.9990   15.1990   16.8040 O.2   129  GLY129     -0.2863
     62  N         -5.0200   12.8070   19.2210 N.3   132  VAL132     -0.1245
     63  CA        -4.1360   11.6800   19.5720 C.3   132  VAL132      0.1561
     64  C         -2.9920   12.1020   20.4980 C.2   132  VAL132      0.2260
     65  O         -2.2820   11.2370   21.0200 O.2   132  VAL132     -0.2867
     66  CB        -3.5280   10.9680   18.3330 C.3   132  VAL132      0.0252
     67  CG1       -4.6310   10.3660   17.4870 C.3   132  VAL132      0.0019
     68  CG2       -2.6250   11.8960   17.5070 C.3   132  VAL132      0.0019
     69  N         -8.9610    9.5830   22.0270 N.3   138  LEU138     -0.1245
     70  CA        -9.6630    8.6300   21.1790 C.3   138  LEU138      0.1561
     71  C        -10.5180    7.6680   21.9980 C.2   138  LEU138      0.2260
     72  O        -10.2270    7.3670   23.1690 O.2   138  LEU138     -0.2867
     73  CB        -8.6850    7.8100   20.3510 C.3   138  LEU138      0.0270
     74  CG        -7.7620    8.5040   19.3560 C.3   138  LEU138      0.0019
     75  CD1       -7.0710    7.4380   18.5100 C.3   138  LEU138      0.0001
     76  CD2       -8.4730    9.4980   18.4720 C.3   138  LEU138      0.0001
     77  N        -11.8940    3.7990   20.9960 N.3   140  VAL140     -0.1245
     78  CA       -11.9580    2.7430   19.9880 C.3   140  VAL140      0.1561
     79  C        -12.8940    1.6700   20.4900 C.2   140  VAL140      0.2260
     80  O        -12.7550    1.1770   21.6300 O.2   140  VAL140     -0.2867
     81  CB       -10.5840    2.1570   19.6420 C.3   140  VAL140      0.0252
     82  CG1      -10.7520    1.1270   18.5270 C.3   140  VAL140      0.0019
     83  CG2       -9.6340    3.2390   19.2100 C.3   140  VAL140      0.0019
     84  N         -2.9620    3.1420   21.0640 N.3   195  LEU195     -0.1231
     85  CA        -2.9570    2.5850   19.7170 C.3   195  LEU195      0.1693
     86  C         -2.2060    1.2670   19.7450 C.2   195  LEU195      0.2593
     87  O         -1.1980    1.1340   20.4470 O.2   195  LEU195     -0.2718
     88  CB        -2.2360    3.5110   18.7670 C.3   195  LEU195      0.0284
     89  CG        -2.7740    4.9230   18.6530 C.3   195  LEU195      0.0019
     90  CD1       -1.9810    5.7900   17.7210 C.3   195  LEU195      0.0001
     91  CD2       -4.2390    4.9100   18.2370 C.3   195  LEU195      0.0001
     92  N         -2.6670    0.2850   18.9830 N.am  196  THR196     -0.1939
     93  CA        -2.0080   -1.0200   18.9880 C.3   196  THR196      0.2028
     94  C         -0.9750   -1.1680   17.8510 C.2   196  THR196      0.2643
     95  O         -0.4050   -2.2320   17.6730 O.2   196  THR196     -0.2714
     96  CB        -3.0190   -2.1550   18.8320 C.3   196  THR196      0.1808
     97  OG1       -3.5970   -2.0490   17.5220 O.3   196  THR196     -0.2208
     98  CG2       -4.0870   -2.1080   19.9080 C.3   196  THR196      0.0379
     99  N         -0.7500   -0.1140   17.0810 N.am  197  THR197     -0.1937
    100  CA         0.3840   -0.0660   16.1510 C.3   197  THR197      0.2013
    101  C          1.1790    1.2020   16.4000 C.2   197  THR197      0.2484
    102  O          0.6840    2.1630   16.9950 O.2   197  THR197     -0.2729
    103  CB        -0.0140   -0.0350   14.6590 C.3   197  THR197      0.1807
    104  OG1       -0.4240    1.2930   14.2860 O.3   197  THR197     -0.2208
    105  CG2       -1.1280   -1.0140   14.3290 C.3   197  THR197      0.0379
    106  N          2.4320    1.2420   15.8910 N.am  198  PRO198     -0.2715
    107  CA         3.1560    2.5110   15.9990 C.3   198  PRO198      0.1521
    108  C          2.3020    3.6350   15.4280 C.2   198  PRO198      0.2440
    109  O          1.5930    3.4090   14.4460 O.2   198  PRO198     -0.2731
    110  CB         4.4180    2.2420   15.1790 C.3   198  PRO198      0.0310
    111  CG         4.6730    0.7430   15.4070 C.3   198  PRO198      0.0237
    112  CD         3.2650    0.1570   15.3310 C.3   198  PRO198      0.0939
    113  N          2.3350    4.8220   16.0310 N.am  199  PRO199     -0.2727
    114  CA         3.2290    5.2750   17.1030 C.3   199  PRO199      0.1402
    115  C          2.8480    4.8790   18.5500 C.2   199  PRO199      0.2269
    116  O          3.4670    5.3840   19.4900 O.2   199  PRO199     -0.2865
    117  CB         3.2440    6.8050   16.9140 C.3   199  PRO199      0.0296
    118  CG         1.9350    7.1130   16.3320 C.3   199  PRO199      0.0237
    119  CD         1.5670    5.9460   15.4520 C.3   199  PRO199      0.0939
    120  N          0.5720    5.5390   20.6640 N.3   201  LEU201     -0.1245
    121  CA         0.2540    6.6220   21.5710 C.3   201  LEU201      0.1561
    122  C         -0.7790    6.2110   22.6180 C.2   201  LEU201      0.2260
    123  O         -1.7550    5.4990   22.3280 O.2   201  LEU201     -0.2867
    124  CB        -0.2510    7.8390   20.7710 C.3   201  LEU201      0.0270
    125  CG         0.7520    8.3840   19.7490 C.3   201  LEU201      0.0019
    126  CD1        0.0990    9.4520   18.8440 C.3   201  LEU201      0.0001
    127  CD2        1.9630    8.9800   20.4440 C.3   201  LEU201      0.0001
    128  N         -6.0560    6.2930   24.1330 N.3   204  VAL204     -0.1245
    129  CA        -7.2900    5.5830   23.8000 C.3   204  VAL204      0.1561
    130  C         -8.0440    5.0920   25.0320 C.2   204  VAL204      0.2260
    131  O         -7.4680    4.4740   25.9150 O.2   204  VAL204     -0.2867
    132  CB        -7.0030    4.3480   22.9390 C.3   204  VAL204      0.0252
    133  CG1       -8.3090    3.6310   22.5610 C.3   204  VAL204      0.0019
    134  CG2       -6.2170    4.7600   21.6710 C.3   204  VAL204      0.0019
    135  N        -10.4400    2.2780   25.5530 N.3   206  TRP206     -0.1241
    136  CA       -10.8990    1.0820   24.8580 C.3   206  TRP206      0.1605
    137  C        -12.2370    0.6730   25.3840 C.2   206  TRP206      0.2264
    138  O        -12.4420    0.6180   26.5870 O.2   206  TRP206     -0.2867
    139  CB        -9.8900   -0.0670   25.0580 C.3   206  TRP206      0.0550
    140  CG        -8.7860    0.0650   24.0540 C.ar  206  TRP206      0.0003
    141  CD1       -7.5660    0.6520   24.2350 C.ar  206  TRP206      0.0946
    142  CD2       -8.8380   -0.3270   22.6740 C.ar  206  TRP206      0.0152
    143  NE1       -6.8690    0.6650   23.0540 N.ar  206  TRP206     -0.2442
    144  CE2       -7.6160    0.0460   22.0860 C.ar  206  TRP206      0.0810
    145  CE3       -9.8050   -0.9620   21.8810 C.ar  206  TRP206      0.0012
    146  CZ2       -7.3430   -0.1750   20.7370 C.ar  206  TRP206      0.0191
    147  CZ3       -9.5190   -1.2050   20.5580 C.ar  206  TRP206      0.0001
    148  CH2       -8.3030   -0.8280   20.0020 C.ar  206  TRP206      0.0015
@<TRIPOS>BOND
     1     5     2    1
     2     5     6    1
     3    14    11    1
     4    14    15    1
     5    11    10    1
     6    11    12    1
     7     2     3    1
     8     2     1    1
     9     6     7    1
    10    12    13    2
    11     3     4    2
    12     8     7    2
    13     7     9   am
    14    15    16   ar
    15    15    17   ar
    16    16    18   ar
    17    20    21    1
    18    22    21    1
    19    22    23    2
    20    17    19   ar
    21    21    24    1
    22    18    19   ar
    23    54    56   ar
    24    54    52   ar
    25    56    57   ar
    26    33    32    2
    27    24    25    1
    28    51    52    1
    29    51    48    1
    30    26    25   ar
    31    26    28   ar
    32    52    53   ar
    33    25    27   ar
    34    28    29   ar
    35   104   103    1
    36   105   103    1
    37    57    55   ar
    38   109   108    2
    39    27    29   ar
    40    58    59    1
    41    58    49   am
    42   103   100    1
    43    47    48    1
    44    43    42    2
    45    30    31    1
    46    53    55   ar
    47    59    60    1
    48    46    44    1
    49    32    31    1
    50    44    45    1
    51    44    41    1
    52    48    49    1
    53    40    41    1
    54   110   111    1
    55   110   107    1
    56   112   111    1
    57   112   106    1
    58    49    50    2
    59   108   107    1
    60   108   113   am
    61   119   113    1
    62   119   118    1
    63    31    34    1
    64    34    35    1
    65    41    42    1
    66   106   107    1
    67   106   101   am
    68   113   114    1
    69   100   101    1
    70   100    99    1
    71    60    61    2
    72   118   117    1
    73   101   102    2
    74    36    35   ar
    75    36    38   ar
    76    35    37   ar
    77   117   114    1
    78    99    94   am
    79   114   115    1
    80    38    39   ar
    81    37    39   ar
    82    67    66    1
    83    68    66    1
    84    97    96    1
    85    95    94    2
    86    90    89    1
    87    94    93    1
    88    91    89    1
    89    66    63    1
    90    76    74    1
    91    75    74    1
    92    82    81    1
    93   115   116    2
    94    89    88    1
    95    88    85    1
    96    96    93    1
    97    96    98    1
    98   126   125    1
    99    92    93    1
   100    92    86   am
   101    83    81    1
   102    62    63    1
   103    74    73    1
   104    63    64    1
   105    81    78    1
   106    85    86    1
   107    85    84    1
   108    86    87    2
   109   125   127    1
   110   125   124    1
   111    78    79    1
   112    78    77    1
   113   148   147   ar
   114   148   146   ar
   115    73    70    1
   116    79    80    2
   117    64    65    2
   118   147   145   ar
   119   120   121    1
   120   146   144   ar
   121   124   121    1
   122    70    71    1
   123    70    69    1
   124   121   122    1
   125   134   132    1
   126   145   142   ar
   127    71    72    2
   128   144   142   ar
   129   144   143   ar
   130   123   122    2
   131   133   132    1
   132   142   140   ar
   133   132   129    1
   134   143   141   ar
   135   129   128    1
   136   129   130    1
   137   140   141   ar
   138   140   139    1
   139   136   139    1
   140   136   137    1
   141   136   135    1
   142   130   131    2
   143   137   138    2
