@<TRIPOS>MOLECULE
tmp/3n3lA00.pdb
 146 140 0 0 0
SMALL
GASTEIGER

@<TRIPOS>ATOM
      1  N         -6.9160   76.1940   21.6500 N.3     3  TYR3       -0.1241
      2  CA        -5.6120   76.2490   20.9960 C.3     3  TYR3        0.1605
      3  C         -5.6180   75.3260   19.7820 C.2     3  TYR3        0.2264
      4  O         -5.0630   75.6560   18.7290 O.2     3  TYR3       -0.2867
      5  CB        -4.4920   75.8150   21.9570 C.3     3  TYR3        0.0534
      6  CG        -3.9450   76.9140   22.8460 C.ar    3  TYR3       -0.0201
      7  CD1       -4.7410   77.5220   23.8050 C.ar    3  TYR3       -0.0009
      8  CD2       -2.6310   77.3440   22.7180 C.ar    3  TYR3       -0.0009
      9  CE1       -4.2450   78.5270   24.6090 C.ar    3  TYR3        0.0417
     10  CE2       -2.1260   78.3460   23.5160 C.ar    3  TYR3        0.0417
     11  CZ        -2.9350   78.9370   24.4620 C.ar    3  TYR3        0.1957
     12  OH        -2.4430   79.9450   25.2670 O.3     3  TYR3       -0.2866
     13  N          5.5060   73.9230   19.4260 N.3    50  LYS50      -0.1231
     14  CA         4.0680   73.7730   19.6240 C.3    50  LYS50       0.1693
     15  C          3.3680   75.1210   19.5340 C.2    50  LYS50       0.2592
     16  O          2.1450   75.2020   19.6070 O.2    50  LYS50      -0.2718
     17  CB         3.8000   73.1400   20.9830 C.3    50  LYS50       0.0285
     18  CG         4.8560   72.1400   21.3870 C.3    50  LYS50       0.0035
     19  CD         4.2510   70.9910   22.1520 C.3    50  LYS50       0.0206
     20  CE         5.3060   69.9490   22.4740 C.3    50  LYS50       0.1093
     21  NZ         4.6860   68.7170   23.0530 N.3    50  LYS50      -0.1314
     22  N          4.1650   76.1750   19.3940 N.am   51  TYR51      -0.1962
     23  CA         3.6660   77.5410   19.2690 C.3    51  TYR51       0.1771
     24  C          2.7860   78.0060   20.4220 C.2    51  TYR51       0.2620
     25  O          1.9780   78.9080   20.2440 O.2    51  TYR51      -0.2715
     26  CB         2.8940   77.7020   17.9500 C.3    51  TYR51       0.0574
     27  CG         3.5480   77.0130   16.7730 C.ar   51  TYR51      -0.0198
     28  CD1        3.0660   75.7940   16.3050 C.ar   51  TYR51      -0.0009
     29  CD2        4.6810   77.5480   16.1650 C.ar   51  TYR51      -0.0009
     30  CE1        3.6960   75.1220   15.2690 C.ar   51  TYR51       0.0417
     31  CE2        5.3200   76.8790   15.1280 C.ar   51  TYR51       0.0417
     32  CZ         4.8240   75.6650   14.6900 C.ar   51  TYR51       0.1957
     33  OH         5.4840   74.9700   13.7050 O.3    51  TYR51      -0.2866
     34  N          2.9410   77.4160   21.6000 N.am   52  ASN52      -0.1958
     35  CA         2.1220   77.8190   22.7360 C.3    52  ASN52       0.1819
     36  C          2.2300   79.2960   23.0500 C.2    52  ASN52       0.2621
     37  O          1.2570   79.9110   23.4770 O.2    52  ASN52      -0.2715
     38  CB         2.4780   77.0070   23.9710 C.3    52  ASN52       0.1195
     39  CG         2.0250   75.5710   23.8610 C.2    52  ASN52       0.2630
     40  OD1        0.8500   75.3060   23.5970 O.2    52  ASN52      -0.2716
     41  ND2        2.9520   74.6310   24.0620 N.am   52  ASN52      -0.0877
     42  N          3.4020   79.8800   22.8520 N.am   53  ARG53      -0.1977
     43  CA         3.5290   81.3060   23.1180 C.3    53  ARG53       0.1597
     44  C          2.8070   82.1060   22.0360 C.2    53  ARG53       0.2287
     45  O          1.9270   82.9160   22.3390 O.2    53  ARG53      -0.2864
     46  CB         4.9970   81.7060   23.1830 C.3    53  ARG53       0.0334
     47  CG         5.6850   81.1870   24.4240 C.3    53  ARG53       0.0492
     48  CD         7.1650   81.3830   24.3140 C.3    53  ARG53       0.2205
     49  NE         7.9150   80.7590   25.3930 N.pl3  53  ARG53      -0.0865
     50  CZ         7.9490   79.4540   25.6400 C.cat  53  ARG53       0.5346
     51  NH1        7.2620   78.6010   24.8900 N.pl3  53  ARG53       0.1354
     52  NH2        8.6970   79.0010   26.6340 N.pl3  53  ARG53       0.1354
     53  N         -0.8610   81.9120   22.2880 N.3    56  THR56      -0.1218
     54  CA        -1.4480   82.6250   23.4200 C.3    56  THR56       0.1862
     55  C         -1.8320   84.0100   22.9470 C.2    56  THR56       0.2287
     56  O         -2.8120   84.5720   23.4190 O.2    56  THR56      -0.2866
     57  CB        -0.4790   82.8070   24.6390 C.3    56  THR56       0.1770
     58  OG1       -0.1970   81.5460   25.2590 O.3    56  THR56      -0.2211
     59  CG2       -1.1070   83.7300   25.6800 C.3    56  THR56       0.0375
     60  N         11.5260   84.0590   20.2530 N.3    89  GLN89      -0.1245
     61  CA        12.0430   82.8490   20.8720 C.3    89  GLN89       0.1566
     62  C         13.1130   82.1670   20.0040 C.2    89  GLN89       0.2260
     63  O         14.1700   81.7880   20.5160 O.2    89  GLN89      -0.2867
     64  CB        10.9140   81.8730   21.1760 C.3    89  GLN89       0.0367
     65  CG        11.3850   80.6860   21.9930 C.3    89  GLN89       0.0905
     66  CD        10.3020   79.6670   22.1780 C.2    89  GLN89       0.2608
     67  OE1       10.3950   78.7960   23.0360 O.2    89  GLN89      -0.2717
     68  NE2        9.2590   79.7630   21.3640 N.am   89  GLN89      -0.0878
     69  N          7.8580   84.3920   28.1750 N.3   198  SER198     -0.1202
     70  CA         6.9980   83.2320   27.9560 C.3   198  SER198      0.2020
     71  C          5.5470   83.4310   28.3680 C.2   198  SER198      0.2618
     72  O          4.6480   82.9210   27.7120 O.2   198  SER198     -0.2717
     73  CB         7.5410   82.0020   28.6850 C.3   198  SER198      0.2103
     74  OG         8.7820   81.5980   28.1630 O.3   198  SER198     -0.2182
     75  N          5.3040   84.1560   29.4520 N.am  199  PHE199     -0.1975
     76  CA         3.9300   84.3380   29.8870 C.3   199  PHE199      0.1639
     77  C          3.4280   85.7690   29.8410 C.2   199  PHE199      0.2290
     78  O          2.2970   86.0160   29.4310 O.2   199  PHE199     -0.2864
     79  CB         3.7430   83.7420   31.2910 C.3   199  PHE199      0.0560
     80  CG         3.9350   82.2550   31.3330 C.ar  199  PHE199     -0.0200
     81  CD1        5.1720   81.7110   31.6230 C.ar  199  PHE199     -0.0042
     82  CD2        2.9080   81.4030   30.9670 C.ar  199  PHE199     -0.0042
     83  CE1        5.3840   80.3430   31.5410 C.ar  199  PHE199     -0.0003
     84  CE2        3.1170   80.0360   30.8830 C.ar  199  PHE199     -0.0003
     85  CZ         4.3560   79.5080   31.1670 C.ar  199  PHE199     -0.0000
     86  N          3.3310   87.4060   25.7920 N.3   202  PRO202     -0.2116
     87  CA         2.2310   86.9790   24.9320 C.3   202  PRO202      0.1372
     88  C          0.9110   87.6670   25.2860 C.2   202  PRO202      0.2244
     89  O          0.1890   88.1380   24.4070 O.2   202  PRO202     -0.2868
     90  CB         2.1840   85.4680   25.1530 C.3   202  PRO202      0.0268
     91  CG         3.5830   85.1160   25.5400 C.3   202  PRO202      0.0207
     92  CD         3.9460   86.2570   26.4720 C.3   202  PRO202      0.0892
     93  N          5.9080   76.9400   35.9570 N.3   232  PHE232     -0.1241
     94  CA         6.1930   76.2760   34.6950 C.3   232  PHE232      0.1605
     95  C          7.6290   75.7410   34.6550 C.2   232  PHE232      0.2264
     96  O          7.8640   74.5810   34.3240 O.2   232  PHE232     -0.2867
     97  CB         5.9830   77.2500   33.5410 C.3   232  PHE232      0.0534
     98  CG         6.4270   76.7160   32.2260 C.ar  232  PHE232     -0.0203
     99  CD1        5.6430   75.8160   31.5330 C.ar  232  PHE232     -0.0042
    100  CD2        7.6510   77.0830   31.6990 C.ar  232  PHE232     -0.0042
    101  CE1        6.0630   75.2930   30.3350 C.ar  232  PHE232     -0.0003
    102  CE2        8.0800   76.5630   30.5010 C.ar  232  PHE232     -0.0003
    103  CZ         7.2840   75.6640   29.8180 C.ar  232  PHE232     -0.0000
    104  N         10.7170   64.0110   25.7700 N.3   250  LYS250     -0.1245
    105  CA        12.0630   64.5470   25.9580 C.3   250  LYS250      0.1561
    106  C         12.9160   63.6740   26.8740 C.2   250  LYS250      0.2260
    107  O         12.4070   63.0340   27.7930 O.2   250  LYS250     -0.2867
    108  CB        11.9840   65.9650   26.5440 C.3   250  LYS250      0.0271
    109  CG        11.1410   66.9560   25.7310 C.3   250  LYS250      0.0035
    110  CD        11.1590   68.3540   26.3550 C.3   250  LYS250      0.0206
    111  CE        10.3650   69.3680   25.5330 C.3   250  LYS250      0.1093
    112  NZ        10.3880   70.7260   26.1610 N.3   250  LYS250     -0.1314
    113  N         -4.5340   79.2920   30.5960 N.3   337  LEU337     -0.1245
    114  CA        -3.0950   79.0460   30.7120 C.3   337  LEU337      0.1561
    115  C         -2.7460   78.0850   31.8390 C.2   337  LEU337      0.2260
    116  O         -1.9210   77.1810   31.6710 O.2   337  LEU337     -0.2867
    117  CB        -2.3320   80.3500   30.9380 C.3   337  LEU337      0.0270
    118  CG        -2.0250   81.1740   29.6960 C.3   337  LEU337      0.0019
    119  CD1       -1.3440   82.4850   30.0860 C.3   337  LEU337      0.0001
    120  CD2       -1.1540   80.3450   28.7760 C.3   337  LEU337      0.0001
    121  N         -3.0910   74.6480   31.1430 N.3   340  LYS340     -0.1231
    122  CA        -2.1980   74.2360   30.0830 C.3   340  LYS340      0.1693
    123  C         -0.8890   73.7700   30.7200 C.2   340  LYS340      0.2591
    124  O         -0.2750   72.7970   30.2800 O.2   340  LYS340     -0.2718
    125  CB        -1.9560   75.4330   29.1600 C.3   340  LYS340      0.0285
    126  CG        -1.2540   75.1400   27.8540 C.3   340  LYS340      0.0035
    127  CD        -2.2560   74.8790   26.7540 C.3   340  LYS340      0.0206
    128  CE        -1.5760   74.8240   25.4000 C.3   340  LYS340      0.1093
    129  NZ        -2.5400   74.4400   24.3360 N.3   340  LYS340     -0.1314
    130  N         -0.4770   74.4600   31.7780 N.am  341  ILE341     -0.1980
    131  CA         0.7590   74.1120   32.4550 C.3   341  ILE341      0.1595
    132  C          0.5720   73.1450   33.6180 C.2   341  ILE341      0.2287
    133  O          1.4380   72.3150   33.8680 O.2   341  ILE341     -0.2864
    134  CB         1.5130   75.3860   32.9290 C.3   341  ILE341      0.0276
    135  CG1        0.6350   76.2230   33.8560 C.3   341  ILE341      0.0022
    136  CG2        1.8960   76.2290   31.7220 C.3   341  ILE341      0.0022
    137  CD1        1.2920   77.5100   34.2850 C.3   341  ILE341      0.0001
    138  N         -0.3340   70.1870   34.3190 N.3   343  LYS343     -0.1245
    139  CA        -0.6620   68.8880   33.7340 C.3   343  LYS343      0.1561
    140  C         -1.0790   67.8650   34.8060 C.2   343  LYS343      0.2260
    141  O         -0.9880   68.2010   36.0130 O.2   343  LYS343     -0.2867
    142  CB         0.5490   68.3670   32.9350 C.3   343  LYS343      0.0271
    143  CG         1.2750   69.4600   32.1290 C.3   343  LYS343      0.0035
    144  CD         2.4240   68.9320   31.2610 C.3   343  LYS343      0.0206
    145  CE         3.3500   70.0650   30.7790 C.3   343  LYS343      0.1093
    146  NZ         2.6500   71.1900   30.0920 N.3   343  LYS343     -0.1314
@<TRIPOS>BOND
     1    33    32    1
     2    32    31   ar
     3    32    30   ar
     4    31    29   ar
     5    30    28   ar
     6    29    27   ar
     7    28    27   ar
     8    27    26    1
     9    26    23    1
    10     4     3    2
    11    23    22    1
    12    23    24    1
    13    22    15   am
    14    13    14    1
    15    15    16    2
    16    15    14    1
    17    14    17    1
    18     3     2    1
    19    62    63    2
    20    62    61    1
    21    25    24    2
    22    60    61    1
    23    24    34   am
    24    61    64    1
    25    17    18    1
    26     2     1    1
    27     2     5    1
    28    64    65    1
    29    68    66   am
    30    18    19    1
    31    34    35    1
    32     5     6    1
    33    65    66    1
    34    44    45    2
    35    44    43    1
    36    19    20    1
    37    66    67    2
    38    53    54    1
    39    20    21    1
    40     8     6   ar
    41     8    10   ar
    42    35    36    1
    43    35    38    1
    44     6     7   ar
    45    42    36   am
    46    42    43    1
    47    55    56    2
    48    55    54    1
    49    36    37    2
    50    43    46    1
    51    46    47    1
    52    54    57    1
    53    10    11   ar
    54    40    39    2
    55     7     9   ar
    56    39    38    1
    57    39    41   am
    58    48    47    1
    59    48    49    1
    60   129   128    1
    61    89    88    2
    62    11     9   ar
    63    11    12    1
    64    57    58    1
    65    57    59    1
    66    51    50    1
    67    87    90    1
    68    87    88    1
    69    87    86    1
    70    90    91    1
    71    49    50    2
    72   128   127    1
    73   111   112    1
    74   111   110    1
    75    91    92    1
    76    50    52    1
    77   109   110    1
    78   109   108    1
    79   104   105    1
    80    86    92    1
    81   105   108    1
    82   105   106    1
    83   127   126    1
    84   106   107    2
    85    72    71    2
    86   126   125    1
    87    70    69    1
    88    70    71    1
    89    70    73    1
    90    74    73    1
    91    71    75   am
    92   120   118    1
    93   125   122    1
    94    78    77    2
    95    75    76    1
    96   118   119    1
    97   118   117    1
    98   103   101   ar
    99   103   102   ar
   100    77    76    1
   101    76    79    1
   102   122   123    1
   103   122   121    1
   104   146   145    1
   105   124   123    2
   106   101    99   ar
   107   102   100   ar
   108   113   114    1
   109   114   117    1
   110   114   115    1
   111   123   130   am
   112   145   144    1
   113    84    82   ar
   114    84    85   ar
   115    82    80   ar
   116    85    83   ar
   117   144   143    1
   118    79    80    1
   119    80    81   ar
   120    99    98   ar
   121    83    81   ar
   122   116   115    2
   123   100    98   ar
   124   136   134    1
   125   130   131    1
   126   143   142    1
   127    98    97    1
   128   131   134    1
   129   131   132    1
   130   134   135    1
   131   142   139    1
   132    97    94    1
   133   132   133    2
   134   139   138    1
   135   139   140    1
   136   135   137    1
   137    96    95    2
   138    95    94    1
   139    94    93    1
   140   140   141    2
