@<TRIPOS>MOLECULE
tmp/3n3tB00.pdb
 205 192 0 0 0
SMALL
GASTEIGER

@<TRIPOS>ATOM
      1  N         12.2340   31.2810   98.7310 N.3    24  GLN24      -0.1245
      2  CA        11.1820   32.2850   98.7950 C.3    24  GLN24       0.1566
      3  C          9.7940   31.6680   98.7580 C.2    24  GLN24       0.2260
      4  O          9.4410   30.9390   97.8150 O.2    24  GLN24      -0.2867
      5  CB        11.2860   33.3470   97.6900 C.3    24  GLN24       0.0367
      6  CG        10.2800   34.5210   97.9190 C.3    24  GLN24       0.0905
      7  CD        10.4410   35.6440   96.9140 C.2    24  GLN24       0.2608
      8  OE1       10.8320   35.3910   95.7710 O.2    24  GLN24      -0.2717
      9  NE2       10.1300   36.8950   97.3220 N.am   24  GLN24      -0.0878
     10  N         10.7670   28.8090   96.1840 N.3    38  GLU38      -0.1231
     11  CA        11.7940   28.8010   95.1510 C.3    38  GLU38       0.1699
     12  C         13.1400   28.7320   95.8220 C.2    38  GLU38       0.2592
     13  O         13.4340   29.5740   96.6610 O.2    38  GLU38      -0.2718
     14  CB        11.7250   30.0460   94.2710 C.3    38  GLU38       0.0402
     15  CG        12.7180   29.9380   93.1350 C.3    38  GLU38       0.1161
     16  CD        12.6860   31.0830   92.1610 C.2    38  GLU38       0.3649
     17  OE1       11.7570   31.9210   92.2320 O.co2  38  GLU38      -0.2457
     18  OE2       13.6110   31.1470   91.3260 O.co2  38  GLU38      -0.2457
     19  N         13.9470   27.7300   95.4820 N.am   39  ALA39      -0.1966
     20  CA        15.3560   27.7350   95.9120 C.3    39  ALA39       0.1728
     21  C         16.1250   28.8240   95.1880 C.2    39  ALA39       0.2616
     22  O         16.0030   28.9780   93.9680 O.2    39  ALA39      -0.2715
     23  CB        15.9950   26.4110   95.6640 C.3    39  ALA39       0.0334
     24  N         16.8820   29.6180   95.9490 N.am   40  LEU40      -0.1963
     25  CA        17.7600   30.6590   95.3640 C.3    40  LEU40       0.1728
     26  C         19.1480   30.5590   95.9670 C.2    40  LEU40       0.2616
     27  O         19.2800   30.6010   97.1650 O.2    40  LEU40      -0.2715
     28  CB        17.1710   32.0650   95.5910 C.3    40  LEU40       0.0311
     29  CG        15.8210   32.3050   94.9050 C.3    40  LEU40       0.0022
     30  CD1       15.0350   33.4450   95.5800 C.3    40  LEU40       0.0001
     31  CD2       15.9460   32.5110   93.3520 C.3    40  LEU40       0.0001
     32  N         20.1690   30.3980   95.1410 N.am   41  VAL41      -0.1963
     33  CA        21.5240   30.1520   95.6370 C.3    41  VAL41       0.1727
     34  C         22.1260   31.4710   96.0990 C.2    41  VAL41       0.2616
     35  O         21.7750   32.5420   95.5650 O.2    41  VAL41      -0.2715
     36  CB        22.4290   29.4200   94.5660 C.3    41  VAL41       0.0290
     37  CG1       22.7160   30.3090   93.3640 C.3    41  VAL41       0.0023
     38  CG2       23.7310   28.9140   95.1720 C.3    41  VAL41       0.0023
     39  N         22.9800   31.4070   97.1210 N.am   42  ARG42      -0.1977
     40  CA        23.8420   32.5400   97.5070 C.3    42  ARG42       0.1597
     41  C         25.2230   31.9920   97.7850 C.2    42  ARG42       0.2287
     42  O         25.4020   30.8040   98.0780 O.2    42  ARG42      -0.2864
     43  CB        23.3630   33.2720   98.7800 C.3    42  ARG42       0.0334
     44  CG        21.8440   33.4790   98.9430 C.3    42  ARG42       0.0492
     45  CD        21.4750   34.7710   98.3620 C.3    42  ARG42       0.2205
     46  NE        20.0520   35.1090   98.4490 N.pl3  42  ARG42      -0.0865
     47  CZ        19.2330   35.1550   97.3950 C.cat  42  ARG42       0.5346
     48  NH1       19.6650   34.7590   96.2020 N.pl3  42  ARG42       0.1354
     49  NH2       17.9790   35.5660   97.5300 N.pl3  42  ARG42       0.1354
     50  N         23.2980   35.9350   93.4020 N.3    52  PRO52      -0.2102
     51  CA        23.4040   35.2120   92.1260 C.3    52  PRO52       0.1504
     52  C         23.6490   36.0750   90.8590 C.2    52  PRO52       0.2576
     53  O         24.3820   35.6570   89.9640 O.2    52  PRO52      -0.2718
     54  CB        22.0590   34.4460   92.0280 C.3    52  PRO52       0.0282
     55  CG        21.1520   35.0800   92.9930 C.3    52  PRO52       0.0208
     56  CD        22.0390   35.6160   94.1010 C.3    52  PRO52       0.0893
     57  N         23.0540   37.2530   90.7680 N.am   53  SER53      -0.1953
     58  CA        23.2400   38.0580   89.5700 C.3    53  SER53       0.1924
     59  C         24.7250   38.4210   89.3580 C.2    53  SER53       0.2314
     60  O         25.1200   38.7830   88.2560 O.2    53  SER53      -0.2863
     61  CB        22.3550   39.3000   89.5930 C.3    53  SER53       0.2116
     62  OG        22.8540   40.2200   90.5300 O.3    53  SER53      -0.2180
     63  N         25.9300   33.8560   88.5200 N.3    56  ILE56      -0.1245
     64  CA        25.1640   32.9450   87.6850 C.3    56  ILE56       0.1561
     65  C         25.4200   33.1580   86.1990 C.2    56  ILE56       0.2260
     66  O         25.7180   32.1850   85.5190 O.2    56  ILE56      -0.2867
     67  CB        23.6570   32.9550   88.0330 C.3    56  ILE56       0.0252
     68  CG1       23.4130   32.2670   89.3900 C.3    56  ILE56       0.0019
     69  CG2       22.8190   32.3330   86.9000 C.3    56  ILE56       0.0019
     70  CD1       23.9480   30.8280   89.5430 C.3    56  ILE56       0.0001
     71  N         26.9580   30.3250   83.7470 N.3    60  GLU60      -0.1245
     72  CA        26.2210   29.9500   82.5350 C.3    60  GLU60       0.1567
     73  C         27.1270   29.8720   81.3040 C.2    60  GLU60       0.2260
     74  O         26.9060   29.0480   80.4190 O.2    60  GLU60      -0.2867
     75  CB        25.1370   30.9840   82.2500 C.3    60  GLU60       0.0388
     76  CG        23.9630   30.9850   83.2050 C.3    60  GLU60       0.1160
     77  CD        22.6640   30.5760   82.5360 C.2    60  GLU60       0.3649
     78  OE1       21.6460   31.2460   82.8060 O.co2  60  GLU60      -0.2457
     79  OE2       22.6540   29.6090   81.7290 O.co2  60  GLU60      -0.2457
     80  N         27.8750   26.2310   85.6180 N.3    65  ILE65      -0.1245
     81  CA        26.4670   26.1840   86.0090 C.3    65  ILE65       0.1561
     82  C         25.9770   24.7430   86.2690 C.2    65  ILE65       0.2260
     83  O         25.1420   24.5380   87.1400 O.2    65  ILE65      -0.2867
     84  CB        25.5420   26.9840   85.0060 C.3    65  ILE65       0.0252
     85  CG1       24.1670   27.3050   85.6120 C.3    65  ILE65       0.0019
     86  CG2       25.3180   26.2080   83.7130 C.3    65  ILE65       0.0019
     87  CD1       24.1570   28.1500   86.8720 C.3    65  ILE65       0.0001
     88  N         27.2750   23.3190   89.7580 N.3    68  LEU68      -0.1231
     89  CA        26.5890   24.0980   90.7740 C.3    68  LEU68       0.1693
     90  C         25.1140   23.7070   90.8470 C.2    68  LEU68       0.2592
     91  O         24.5330   23.5490   91.9160 O.2    68  LEU68      -0.2718
     92  CB        26.7590   25.5900   90.4630 C.3    68  LEU68       0.0284
     93  CG        25.8470   26.7090   90.9790 C.3    68  LEU68       0.0019
     94  CD1       25.2650   26.4350   92.3240 C.3    68  LEU68       0.0001
     95  CD2       26.6860   27.9710   91.0490 C.3    68  LEU68       0.0001
     96  N         24.5190   23.5400   89.6870 N.am   69  SER69      -0.1952
     97  CA        23.1570   23.1480   89.6100 C.3    69  SER69       0.1924
     98  C         22.9570   21.7080   90.0970 C.2    69  SER69       0.2314
     99  O         21.8880   21.3630   90.6200 O.2    69  SER69      -0.2863
    100  CB        22.6960   23.3730   88.1920 C.3    69  SER69       0.2116
    101  OG        21.5070   22.6950   87.9950 O.3    69  SER69      -0.2180
    102  N         22.8210   22.4010   93.8720 N.3    72  VAL72      -0.1245
    103  CA        21.5120   22.9660   94.2290 C.3    72  VAL72       0.1561
    104  C         20.4250   21.8750   94.2560 C.2    72  VAL72       0.2260
    105  O         19.6430   21.7920   95.2070 O.2    72  VAL72      -0.2867
    106  CB        21.1230   24.1300   93.2950 C.3    72  VAL72       0.0252
    107  CG1       19.6850   24.6010   93.5680 C.3    72  VAL72       0.0019
    108  CG2       22.1210   25.2840   93.4530 C.3    72  VAL72       0.0019
    109  N         15.9370   26.5530   89.8440 N.3    98  ASN98      -0.1225
    110  CA        16.2850   27.1640   88.5640 C.3    98  ASN98       0.1785
    111  C         17.3210   26.3290   87.8160 C.2    98  ASN98       0.2597
    112  O         18.3800   25.9800   88.3650 O.2    98  ASN98      -0.2718
    113  CB        16.8070   28.6070   88.7670 C.3    98  ASN98       0.1169
    114  CG        15.7420   29.5530   89.3060 C.2    98  ASN98       0.2627
    115  OD1       14.7800   29.8920   88.6220 O.2    98  ASN98      -0.2716
    116  ND2       15.9220   29.9900   90.5370 N.am   98  ASN98      -0.0877
    117  N         17.0050   26.0410   86.5550 N.am   99  ILE99      -0.1966
    118  CA        17.8410   25.2490   85.6510 C.3    99  ILE99       0.1727
    119  C         18.3370   26.1050   84.4850 C.2    99  ILE99       0.2616
    120  O         17.6130   26.9270   83.9510 O.2    99  ILE99      -0.2715
    121  CB        17.0660   24.0500   84.9700 C.3    99  ILE99       0.0290
    122  CG1       16.3200   23.1590   85.9450 C.3    99  ILE99       0.0022
    123  CG2       18.0340   23.1850   84.1700 C.3    99  ILE99       0.0023
    124  CD1       17.0710   22.8370   87.2130 C.3    99  ILE99       0.0001
    125  N         19.5650   25.8560   84.0570 N.am  100  SER100     -0.1950
    126  CA        20.1450   26.5080   82.8790 C.3   100  SER100      0.1924
    127  C         19.9260   25.6320   81.6420 C.2   100  SER100      0.2314
    128  O         19.8180   24.4110   81.7450 O.2   100  SER100     -0.2863
    129  CB        21.6390   26.7240   83.1350 C.3   100  SER100      0.2116
    130  OG        22.3960   26.7400   81.9440 O.3   100  SER100     -0.2180
    131  N         10.2600   30.2280   83.4850 N.3   158  ASP158     -0.1225
    132  CA        10.6530   31.3310   84.3380 C.3   158  ASP158      0.1805
    133  C         10.7740   32.6430   83.5240 C.2   158  ASP158      0.2597
    134  O         11.1420   32.6180   82.3510 O.2   158  ASP158     -0.2718
    135  CB        11.9830   30.9640   85.0030 C.3   158  ASP158      0.1424
    136  CG        12.2650   31.7620   86.2710 C.2   158  ASP158      0.3668
    137  OD1       11.6450   32.8160   86.5210 O.co2 158  ASP158     -0.2456
    138  OD2       13.1450   31.3270   87.0250 O.co2 158  ASP158     -0.2456
    139  N         10.4530   33.7850   84.1320 N.am  159  ASP159     -0.1974
    140  CA        10.6430   35.0850   83.4500 C.3   159  ASP159      0.1709
    141  C          9.8150   35.2000   82.1990 C.2   159  ASP159      0.2293
    142  O         10.1450   35.9430   81.2950 O.2   159  ASP159     -0.2864
    143  CB        12.1090   35.3120   83.0890 C.3   159  ASP159      0.1436
    144  CG        13.0220   35.1360   84.2860 C.2   159  ASP159      0.3671
    145  OD1       12.6040   35.4890   85.4260 O.co2 159  ASP159     -0.2456
    146  OD2       14.1470   34.6240   84.0980 O.co2 159  ASP159     -0.2456
    147  N          8.9440   39.6470   86.9040 N.3   182  GLN182     -0.1245
    148  CA         8.6960   40.6850   87.8930 C.3   182  GLN182      0.1566
    149  C          8.7140   42.0930   87.3000 C.2   182  GLN182      0.2260
    150  O          8.1650   43.0010   87.8830 O.2   182  GLN182     -0.2867
    151  CB         9.7320   40.5800   89.0130 C.3   182  GLN182      0.0367
    152  CG        11.0990   41.0350   88.5990 C.3   182  GLN182      0.0905
    153  CD        12.1750   40.3220   89.3470 C.2   182  GLN182      0.2608
    154  OE1       12.4560   39.1560   89.0750 O.2   182  GLN182     -0.2717
    155  NE2       12.7990   41.0120   90.3000 N.am  182  GLN182     -0.0878
    156  N          5.7960   36.7430   89.8070 N.3   214  GLU214     -0.1231
    157  CA         6.9600   37.0640   90.6280 C.3   214  GLU214      0.1699
    158  C          7.0770   38.5400   90.9380 C.2   214  GLU214      0.2592
    159  O          6.7820   39.3830   90.1080 O.2   214  GLU214     -0.2718
    160  CB         8.2740   36.6280   89.9960 C.3   214  GLU214      0.0402
    161  CG         8.2170   35.6470   88.8680 C.3   214  GLU214      0.1161
    162  CD         9.6200   35.1780   88.4350 C.2   214  GLU214      0.3649
    163  OE1       10.5030   35.0090   89.3050 O.co2 214  GLU214     -0.2457
    164  OE2        9.8630   34.9820   87.2170 O.co2 214  GLU214     -0.2457
    165  N          7.5660   38.8530   92.1280 N.am  215  GLY215     -0.1957
    166  CA         7.9610   40.2190   92.4470 C.3   215  GLY215      0.1869
    167  C          6.8040   41.0740   92.9100 C.2   215  GLY215      0.2309
    168  O          6.8370   42.2780   92.7000 O.2   215  GLY215     -0.2863
    169  N          5.1110   43.4220   95.0590 N.3   217  GLU217     -0.1245
    170  CA         5.6730   44.3330   96.0510 C.3   217  GLU217      0.1567
    171  C          4.6110   45.1290   96.7730 C.2   217  GLU217      0.2260
    172  O          4.8880   45.6640   97.8380 O.2   217  GLU217     -0.2867
    173  CB         6.7200   45.2700   95.4380 C.3   217  GLU217      0.0388
    174  CG         8.0980   44.6380   95.3260 C.3   217  GLU217      0.1160
    175  CD         9.0890   45.4200   94.4510 C.2   217  GLU217      0.3649
    176  OE1        8.6580   46.2390   93.6030 O.co2 217  GLU217     -0.2457
    177  OE2       10.3150   45.2040   94.5990 O.co2 217  GLU217     -0.2457
    178  N          4.7280   35.1710   94.4160 N.3   234  GLN234     -0.1230
    179  CA         5.9870   35.1780   95.1120 C.3   234  GLN234      0.1701
    180  C          6.3440   36.6720   95.1600 C.2   234  GLN234      0.2632
    181  O          6.2240   37.3660   94.1330 O.2   234  GLN234     -0.2714
    182  CB         6.9220   34.4320   94.2220 C.3   234  GLN234      0.0381
    183  CG         8.2920   34.2220   94.6470 C.3   234  GLN234      0.0905
    184  CD         9.0360   33.3990   93.6050 C.2   234  GLN234      0.2608
    185  OE1        8.4100   32.7730   92.7250 O.2   234  GLN234     -0.2717
    186  NE2       10.3680   33.3920   93.6850 N.am  234  GLN234     -0.0878
    187  N          6.7120   37.2030   96.3270 N.am  235  GLY235     -0.1718
    188  CA         7.2080   38.5950   96.3620 C.2   235  GLY235      0.1480
    189  C          7.5870   39.1190   97.7320 C.2   235  GLY235      0.2820
    190  O          7.1720   38.5590   98.7510 O.2   235  GLY235     -0.2669
    191  N          8.3860   40.1820   97.7700 N.am  236  ASN236     -0.1937
    192  CA         8.7940   40.7660   99.0520 C.3   236  ASN236      0.1691
    193  C          7.6260   41.2350   99.9370 C.2   236  ASN236      0.2292
    194  O          7.7500   41.2700  101.1720 O.2   236  ASN236     -0.2864
    195  CB         9.8440   41.8610   98.8490 C.3   236  ASN236      0.1181
    196  CG        11.1400   41.3120   98.2240 C.2   236  ASN236      0.2629
    197  OD1       11.3220   40.1040   98.1220 O.2   236  ASN236     -0.2716
    198  ND2       12.0130   42.1920   97.7940 N.am  236  ASN236     -0.0877
    199  N         13.2970   36.1720  100.0730 N.3   240  PRO240     -0.2116
    200  CA        13.9610   34.8960  100.2490 C.3   240  PRO240      0.1372
    201  C         14.4840   34.7400  101.6820 C.2   240  PRO240      0.2244
    202  O         15.0040   35.6950  102.2540 O.2   240  PRO240     -0.2868
    203  CB        15.1310   34.9770   99.2640 C.3   240  PRO240      0.0268
    204  CG        14.6790   35.9480   98.2220 C.3   240  PRO240      0.0207
    205  CD        13.8730   36.9510   98.9520 C.3   240  PRO240      0.0892
@<TRIPOS>BOND
     1    74    73    2
     2   142   141    2
     3    73    72    1
     4   127   128    2
     5   127   126    1
     6    79    77   ar
     7   130   129    1
     8   141   140    1
     9    75    72    1
    10    75    76    1
    11   134   133    2
    12    72    71    1
    13    77    78   ar
    14    77    76    1
    15   126   129    1
    16   126   125    1
    17   143   140    1
    18   143   144    1
    19   140   139    1
    20   131   132    1
    21   133   139   am
    22   133   132    1
    23    86    84    1
    24   120   119    2
    25   125   119   am
    26   146   144   ar
    27   123   121    1
    28   144   145   ar
    29   132   135    1
    30   119   118    1
    31   121   118    1
    32   121   122    1
    33   135   136    1
    34    84    85    1
    35    84    81    1
    36    66    65    2
    37    85    87    1
    38    80    81    1
    39   118   117    1
    40   122   124    1
    41    81    82    1
    42    65    64    1
    43    82    83    2
    44   136   137   ar
    45   136   138   ar
    46   117   111   am
    47    69    67    1
    48   147   148    1
    49   164   162   ar
    50   149   150    2
    51   149   148    1
    52    64    67    1
    53    64    63    1
    54   111   112    2
    55   111   110    1
    56   148   151    1
    57   101   100    1
    58    67    68    1
    59   100    97    1
    60    60    59    2
    61   162   161    1
    62   162   163   ar
    63   110   113    1
    64   110   109    1
    65   152   151    1
    66   152   153    1
    67   115   114    2
    68   113   114    1
    69   161   160    1
    70   154   153    2
    71   114   116   am
    72   153   155   am
    73    59    58    1
    74    68    70    1
    75    58    61    1
    76    58    57    1
    77    61    62    1
    78    97    96    1
    79    97    98    1
    80    96    90   am
    81    88    89    1
    82   156   157    1
    83    53    52    2
    84   160   157    1
    85    98    99    2
    86   159   158    2
    87    92    89    1
    88    92    93    1
    89   157   158    1
    90    57    52   am
    91    89    90    1
    92    90    91    2
    93    52    51    1
    94   158   165   am
    95    93    95    1
    96    93    94    1
    97    18    16   ar
    98    54    51    1
    99    54    55    1
   100    51    50    1
   101   165   166    1
   102    16    17   ar
   103    16    15    1
   104   166   167    1
   105   168   167    2
   106   185   184    2
   107    55    56    1
   108    15    14    1
   109   106   108    1
   110   106   107    1
   111   106   103    1
   112    31    29    1
   113    37    36    1
   114    50    56    1
   115   176   175   ar
   116   184   186   am
   117   184   183    1
   118   102   103    1
   119    22    21    2
   120   181   180    2
   121   182   183    1
   122   182   179    1
   123   103   104    1
   124   104   105    2
   125    14    11    1
   126   178   179    1
   127   175   177   ar
   128   175   174    1
   129    36    38    1
   130    36    33    1
   131    29    30    1
   132    29    28    1
   133   169   170    1
   134   179   180    1
   135    32    33    1
   136    32    26   am
   137    11    12    1
   138    11    10    1
   139   180   187    1
   140    21    20    1
   141    21    24   am
   142   174   173    1
   143    25    28    1
   144    25    24    1
   145    25    26    1
   146   173   170    1
   147    19    12   am
   148    19    20    1
   149    35    34    2
   150    33    34    1
   151    23    20    1
   152     8     7    2
   153    12    13    2
   154    26    27    2
   155   170   171    1
   156    34    39   am
   157    48    47    1
   158   187   188    2
   159   188   189    1
   160   171   172    2
   161     7     9   am
   162     7     6    1
   163    39    40    1
   164    47    49    1
   165    47    46    2
   166    40    41    1
   167    40    43    1
   168     5     6    1
   169     5     2    1
   170   189   191   am
   171   189   190    2
   172   191   192    1
   173    41    42    2
   174   198   196   am
   175     4     3    2
   176   197   196    2
   177   204   205    1
   178   204   203    1
   179   196   195    1
   180    45    46    1
   181    45    44    1
   182     1     2    1
   183     3     2    1
   184    43    44    1
   185   195   192    1
   186   205   199    1
   187   192   193    1
   188   203   200    1
   189   193   194    2
   190   199   200    1
   191   200   201    1
   192   201   202    2
