@<TRIPOS>MOLECULE
tmp/3n3xA00.pdb
 168 161 0 0 0
SMALL
GASTEIGER

@<TRIPOS>ATOM
      1  N         10.1990  -29.1230   -3.1850 N.3   166  TYR166     -0.1241
      2  CA        10.9550  -28.0820   -3.8900 C.3   166  TYR166      0.1605
      3  C         10.5640  -26.6880   -3.3820 C.2   166  TYR166      0.2264
      4  O         11.4250  -25.8370   -3.1360 O.2   166  TYR166     -0.2867
      5  CB        10.7250  -28.1650   -5.4010 C.3   166  TYR166      0.0534
      6  CG        11.3740  -27.0290   -6.1710 C.ar  166  TYR166     -0.0201
      7  CD1       12.7350  -27.0430   -6.4500 C.ar  166  TYR166     -0.0009
      8  CD2       10.6300  -25.9350   -6.6050 C.ar  166  TYR166     -0.0009
      9  CE1       13.3440  -25.9980   -7.1490 C.ar  166  TYR166      0.0417
     10  CE2       11.2260  -24.8860   -7.3110 C.ar  166  TYR166      0.0417
     11  CZ        12.5870  -24.9240   -7.5740 C.ar  166  TYR166      0.1957
     12  OH        13.1990  -23.8960   -8.2690 O.3   166  TYR166     -0.2866
     13  N         11.8550  -26.0150    0.1370 N.3   169  GLN169     -0.1231
     14  CA        13.2810  -25.6700    0.0230 C.3   169  GLN169      0.1698
     15  C         13.5080  -24.2450   -0.4780 C.2   169  GLN169      0.2592
     16  O         14.4250  -23.5620   -0.0190 O.2   169  GLN169     -0.2718
     17  CB        14.0180  -26.6580   -0.8910 C.3   169  GLN169      0.0381
     18  CG        14.1140  -28.0780   -0.3370 C.3   169  GLN169      0.0905
     19  CD        14.3940  -29.1310   -1.4170 C.2   169  GLN169      0.2608
     20  OE1       14.5640  -30.3100   -1.1080 O.2   169  GLN169     -0.2717
     21  NE2       14.4350  -28.7090   -2.6820 N.am  169  GLN169     -0.0878
     22  N         12.6710  -23.8050   -1.4140 N.am  170  GLN170     -0.1979
     23  CA        12.7890  -22.4600   -1.9710 C.3   170  GLN170      0.1601
     24  C         12.5210  -21.4180   -0.8920 C.2   170  GLN170      0.2287
     25  O         13.2010  -20.3990   -0.8330 O.2   170  GLN170     -0.2864
     26  CB        11.8390  -22.2660   -3.1440 C.3   170  GLN170      0.0394
     27  CG        12.2680  -23.0040   -4.4060 C.3   170  GLN170      0.0908
     28  CD        13.5440  -22.4530   -5.0150 C.2   170  GLN170      0.2608
     29  OE1       14.5920  -23.1230   -5.0260 O.2   170  GLN170     -0.2717
     30  NE2       13.4640  -21.2390   -5.5480 N.am  170  GLN170     -0.0878
     31  N         15.4610  -21.1790    1.5310 N.3   173  GLU173     -0.1231
     32  CA        16.5170  -20.3570    0.9600 C.3   173  GLU173      0.1699
     33  C         16.2220  -18.8710    1.1510 C.2   173  GLU173      0.2592
     34  O         17.1380  -18.0400    1.1340 O.2   173  GLU173     -0.2718
     35  CB        16.6770  -20.6640   -0.5220 C.3   173  GLU173      0.0402
     36  CG        17.1470  -22.0940   -0.7870 C.3   173  GLU173      0.1161
     37  CD        17.5060  -22.3450   -2.2330 C.2   173  GLU173      0.3649
     38  OE1       17.7410  -21.3630   -2.9730 O.co2 173  GLU173     -0.2457
     39  OE2       17.5680  -23.5320   -2.6310 O.co2 173  GLU173     -0.2457
     40  N         14.9380  -18.5620    1.3290 N.am  174  ARG174     -0.1980
     41  CA        14.4640  -17.1910    1.4930 C.3   174  ARG174      0.1597
     42  C         14.1310  -16.9110    2.9620 C.2   174  ARG174      0.2287
     43  O         13.2240  -16.1270    3.2690 O.2   174  ARG174     -0.2864
     44  CB        13.2250  -16.9670    0.6170 C.3   174  ARG174      0.0334
     45  CG        13.4670  -16.9610   -0.8900 C.3   174  ARG174      0.0492
     46  CD        12.2020  -17.3990   -1.6640 C.3   174  ARG174      0.2205
     47  NE        12.3130  -17.1780   -3.1030 N.pl3 174  ARG174     -0.0865
     48  CZ        13.0350  -17.9450   -3.9220 C.cat 174  ARG174      0.5346
     49  NH1       13.7150  -18.9880   -3.4410 N.pl3 174  ARG174      0.1354
     50  NH2       13.0930  -17.6630   -5.2170 N.pl3 174  ARG174      0.1354
     51  N         15.9460  -13.3380    3.3150 N.3   177  ARG177     -0.1245
     52  CA        15.8250  -12.4840    2.1540 C.3   177  ARG177      0.1563
     53  C         14.7100  -12.9680    1.2140 C.2   177  ARG177      0.2260
     54  O         14.7480  -14.0760    0.7500 O.2   177  ARG177     -0.2867
     55  CB        17.1570  -12.4250    1.4160 C.3   177  ARG177      0.0307
     56  CG        17.1310  -11.6280    0.1810 C.3   177  ARG177      0.0489
     57  CD        18.4520  -11.5600   -0.4970 C.3   177  ARG177      0.2205
     58  NE        18.7910  -12.7820   -1.2150 N.pl3 177  ARG177     -0.0865
     59  CZ        20.0010  -13.0690   -1.6840 C.cat 177  ARG177      0.5346
     60  NH1       20.9750  -12.2240   -1.4990 N.pl3 177  ARG177      0.1354
     61  NH2       20.2440  -14.1800   -2.3290 N.pl3 177  ARG177      0.1354
     62  N         12.6130  -13.2810   -2.2570 N.3   179  GLU179     -0.1231
     63  CA        12.8780  -13.2580   -3.6820 C.3   179  GLU179      0.1699
     64  C         11.6330  -13.7740   -4.3850 C.2   179  GLU179      0.2592
     65  O         10.9450  -14.6530   -3.8550 O.2   179  GLU179     -0.2718
     66  CB        14.0940  -14.1300   -4.0180 C.3   179  GLU179      0.0402
     67  CG        14.5040  -14.1080   -5.4920 C.3   179  GLU179      0.1161
     68  CD        15.9000  -14.7100   -5.5830 C.2   179  GLU179      0.3649
     69  OE1       16.2710  -15.2260   -6.6590 O.co2 179  GLU179     -0.2457
     70  OE2       16.6200  -14.6780   -4.5670 O.co2 179  GLU179     -0.2457
     71  N         11.3350  -13.2190   -5.5620 N.am  180  VAL180     -0.1966
     72  CA        10.2110  -13.7030   -6.3700 C.3   180  VAL180      0.1712
     73  C         10.3510  -15.2140   -6.6010 C.2   180  VAL180      0.2458
     74  O         11.4750  -15.7310   -6.6590 O.2   180  VAL180     -0.2730
     75  CB        10.0940  -12.9710   -7.7260 C.3   180  VAL180      0.0289
     76  CG1        9.6280  -11.5290   -7.5220 C.3   180  VAL180      0.0023
     77  CG2       11.4230  -13.0350   -8.5070 C.3   180  VAL180      0.0023
     78  N          9.2200  -15.9280   -6.6970 N.am  181  PRO181     -0.2716
     79  CA         9.2960  -17.3810   -6.8990 C.3   181  PRO181      0.1536
     80  C          9.9780  -17.7410   -8.2130 C.2   181  PRO181      0.2599
     81  O          9.8040  -17.0280   -9.2080 O.2   181  PRO181     -0.2715
     82  CB         7.8210  -17.8140   -6.9370 C.3   181  PRO181      0.0310
     83  CG         7.0530  -16.5910   -7.2120 C.3   181  PRO181      0.0237
     84  CD         7.8280  -15.4540   -6.6170 C.3   181  PRO181      0.0939
     85  N         10.7410  -18.8360   -8.2140 N.am  182  SER182     -0.1936
     86  CA        11.3340  -19.3430   -9.4530 C.3   182  SER182      0.2055
     87  C         10.2360  -19.7430  -10.4310 C.2   182  SER182      0.2644
     88  O          9.1040  -20.0260  -10.0270 O.2   182  SER182     -0.2714
     89  CB        12.2400  -20.5390   -9.1620 C.3   182  SER182      0.2130
     90  OG        11.9070  -21.7750   -8.5460 O.3   182  SER182     -0.2179
     91  N         10.5720  -19.7560  -11.7210 N.am  183  SER183     -0.1935
     92  CA         9.6400  -20.2160  -12.7460 C.3   183  SER183      0.2055
     93  C          9.1900  -21.6600  -12.4610 C.2   183  SER183      0.2642
     94  O          8.0320  -22.0040  -12.7010 O.2   183  SER183     -0.2714
     95  CB        10.2590  -20.0870  -14.1430 C.3   183  SER183      0.2130
     96  OG        10.4500  -18.7150  -14.4960 O.3   183  SER183     -0.2179
     97  N         10.0990  -22.4780  -11.9190 N.am  184  ALA184     -0.1977
     98  CA         9.7840  -23.8520  -11.5030 C.3   184  ALA184      0.1597
     99  C          8.7090  -23.8660  -10.4160 C.2   184  ALA184      0.2287
    100  O          7.7720  -24.6760  -10.4580 O.2   184  ALA184     -0.2864
    101  CB        11.0370  -24.5600  -11.0060 C.3   184  ALA184      0.0319
    102  N          5.0720  -25.6940  -10.7370 N.3   188  LEU188     -0.1245
    103  CA         4.6020  -26.7030   -9.7890 C.3   188  LEU188      0.1561
    104  C          3.2620  -26.3230   -9.1660 C.2   188  LEU188      0.2260
    105  O          2.3540  -27.1510   -9.0940 O.2   188  LEU188     -0.2867
    106  CB         5.6390  -26.9460   -8.6940 C.3   188  LEU188      0.0270
    107  CG         6.9220  -27.6480   -9.1350 C.3   188  LEU188      0.0019
    108  CD1        7.9160  -27.6100   -8.0150 C.3   188  LEU188      0.0001
    109  CD2        6.6270  -29.1030   -9.5710 C.3   188  LEU188      0.0001
    110  N          8.4470  -26.6570  -15.8290 N.3   216  VAL216     -0.1231
    111  CA         9.7220  -25.9380  -15.9310 C.3   216  VAL216      0.1692
    112  C         10.6330  -26.4020  -14.7870 C.2   216  VAL216      0.2592
    113  O         10.2020  -26.4510  -13.6360 O.2   216  VAL216     -0.2718
    114  CB         9.5090  -24.4050  -15.8590 C.3   216  VAL216      0.0266
    115  CG1       10.8400  -23.6590  -15.9490 C.3   216  VAL216      0.0020
    116  CG2        8.5570  -23.9390  -16.9540 C.3   216  VAL216      0.0020
    117  N         11.8810  -26.7550  -15.0980 N.am  217  ASP217     -0.1960
    118  CA        12.8040  -27.2620  -14.0660 C.3   217  ASP217      0.1840
    119  C         13.6180  -26.1600  -13.3690 C.2   217  ASP217      0.2623
    120  O         13.4640  -24.9750  -13.6820 O.2   217  ASP217     -0.2715
    121  CB        13.7180  -28.3760  -14.6230 C.3   217  ASP217      0.1450
    122  CG        14.7070  -27.8750  -15.6760 C.2   217  ASP217      0.3671
    123  OD1       15.0420  -26.6720  -15.6930 O.co2 217  ASP217     -0.2456
    124  OD2       15.1630  -28.7030  -16.4930 O.co2 217  ASP217     -0.2456
    125  N         14.4780  -26.5730  -12.4020 N.am  218  SER218     -0.1936
    126  CA        15.2990  -25.6430  -11.6050 C.3   218  SER218      0.2055
    127  C         16.2080  -24.7790  -12.4670 C.2   218  SER218      0.2642
    128  O         16.3840  -23.5890  -12.1770 O.2   218  SER218     -0.2714
    129  CB        16.0950  -26.3960  -10.5240 C.3   218  SER218      0.2130
    130  OG        17.3450  -27.0530  -10.5540 O.3   218  SER218     -0.2179
    131  N         16.7780  -25.3420  -13.5470 N.am  219  LYS219     -0.1977
    132  CA        17.6450  -24.6000  -14.4540 C.3   219  LYS219      0.1596
    133  C         16.8310  -23.6840  -15.3770 C.2   219  LYS219      0.2287
    134  O         17.3960  -22.9340  -16.1750 O.2   219  LYS219     -0.2864
    135  CB        18.5200  -25.5690  -15.2610 C.3   219  LYS219      0.0298
    136  CG        19.6360  -26.2330  -14.4510 C.3   219  LYS219      0.0038
    137  CD        20.9490  -25.4630  -14.5670 C.3   219  LYS219      0.0206
    138  CE        22.0700  -26.1390  -13.7880 C.3   219  LYS219      0.1093
    139  NZ        22.0750  -25.7560  -12.3460 N.3   219  LYS219     -0.1314
    140  N         11.5570  -37.5380  -11.0130 N.3   231  ASN231     -0.1225
    141  CA        11.9660  -36.9440   -9.7460 C.3   231  ASN231      0.1785
    142  C         10.8330  -36.1510   -9.0830 C.2   231  ASN231      0.2597
    143  O         10.7260  -36.1160   -7.8540 O.2   231  ASN231     -0.2718
    144  CB        13.2010  -36.0600   -9.9520 C.3   231  ASN231      0.1169
    145  CG        14.5030  -36.8490   -9.9160 C.2   231  ASN231      0.2627
    146  OD1       14.6710  -37.7670   -9.1050 O.2   231  ASN231     -0.2716
    147  ND2       15.4370  -36.4870  -10.7920 N.am  231  ASN231     -0.0877
    148  N          9.9260  -35.5670   -9.8600 N.am  232  VAL232     -0.1980
    149  CA         8.7300  -34.8340   -9.3650 C.3   232  VAL232      0.1595
    150  C          7.9640  -35.7220   -8.4290 C.2   232  VAL232      0.2287
    151  O          7.5590  -35.3510   -7.3360 O.2   232  VAL232     -0.2864
    152  CB         7.6490  -34.4650  -10.4320 C.3   232  VAL232      0.0276
    153  CG1        6.5570  -33.6120   -9.7940 C.3   232  VAL232      0.0022
    154  CG2        8.2820  -33.7510  -11.6120 C.3   232  VAL232      0.0022
    155  N         10.3810  -37.6540   -5.3890 N.3   235  SER235     -0.1202
    156  CA        11.0550  -36.8410   -4.3790 C.3   235  SER235      0.2020
    157  C         10.3170  -35.5560   -3.9960 C.2   235  SER235      0.2618
    158  O         10.3730  -35.1280   -2.8380 O.2   235  SER235     -0.2717
    159  CB        12.4810  -36.5220   -4.8390 C.3   235  SER235      0.2103
    160  OG        13.1690  -37.7090   -5.2250 O.3   235  SER235     -0.2182
    161  N          9.7040  -34.9340   -4.9970 N.am  236  ASN236     -0.1974
    162  CA         9.1010  -33.5950   -4.8480 C.3   236  ASN236      0.1688
    163  C          7.6890  -33.5090   -4.2570 C.2   236  ASN236      0.2292
    164  O          7.5220  -33.0660   -3.1210 O.2   236  ASN236     -0.2864
    165  CB         9.1280  -32.9060   -6.2140 C.3   236  ASN236      0.1181
    166  CG         8.9950  -31.3910   -6.1450 C.2   236  ASN236      0.2629
    167  OD1        8.6310  -30.8380   -5.0990 O.2   236  ASN236     -0.2716
    168  ND2        9.2890  -30.7220   -7.2510 N.am  236  ASN236     -0.0877
@<TRIPOS>BOND
     1   116   114    1
     2   124   122   ar
     3   134   133    2
     4   115   114    1
     5   111   114    1
     6   111   110    1
     7   111   112    1
     8   123   122   ar
     9   122   121    1
    10   133   132    1
    11   135   132    1
    12   135   136    1
    13   117   112   am
    14   117   118    1
    15   112   113    2
    16   121   118    1
    17   137   136    1
    18   137   138    1
    19    96    95    1
    20   132   131    1
    21    95    92    1
    22   118   119    1
    23   138   139    1
    24   120   119    2
    25   131   127   am
    26   119   125   am
    27    92    93    1
    28    92    91    1
    29    94    93    2
    30   127   128    2
    31   127   126    1
    32    93    97   am
    33   125   126    1
    34    97    98    1
    35    91    87   am
    36   154   152    1
    37   126   129    1
    38    98   101    1
    39    98    99    1
    40   140   141    1
    41   147   145   am
    42   102   103    1
    43   130   129    1
    44   100    99    2
    45   152   153    1
    46   152   149    1
    47    87    88    2
    48    87    86    1
    49   144   145    1
    50   144   141    1
    51   145   146    2
    52   148   149    1
    53   148   142   am
    54   103   104    1
    55   103   106    1
    56   141   142    1
    57   109   107    1
    58    86    89    1
    59    86    85    1
    60   149   150    1
    61    81    80    2
    62   104   105    2
    63    89    90    1
    64   107   106    1
    65   107   108    1
    66   142   143    2
    67    77    75    1
    68   150   151    2
    69    12    11    1
    70    85    80   am
    71    80    79    1
    72    75    76    1
    73    75    72    1
    74    11    10   ar
    75    11     9   ar
    76    10     8   ar
    77   168   166   am
    78    83    82    1
    79    83    84    1
    80     9     7   ar
    81    82    79    1
    82    79    78    1
    83    78    84    1
    84    78    73   am
    85    74    73    2
    86    69    68   ar
    87     8     6   ar
    88    73    72    1
    89     7     6   ar
    90    72    71    1
    91   165   166    1
    92   165   162    1
    93     6     5    1
    94   166   167    2
    95    68    67    1
    96    68    70   ar
    97    71    64   am
    98    30    28   am
    99    67    66    1
   100     5     2    1
   101   155   156    1
   102   160   159    1
   103    50    48    1
   104    29    28    2
   105    28    27    1
   106   161   162    1
   107   161   157   am
   108   162   163    1
   109   159   156    1
   110    27    26    1
   111    64    65    2
   112    64    63    1
   113   156   157    1
   114   163   164    2
   115    66    63    1
   116   157   158    2
   117    48    49    1
   118    48    47    2
   119     2     3    1
   120     2     1    1
   121    63    62    1
   122     3     4    2
   123    26    23    1
   124    47    46    1
   125    38    37   ar
   126    21    19   am
   127    39    37   ar
   128    61    59    1
   129    37    36    1
   130    23    22    1
   131    23    24    1
   132    59    60    1
   133    59    58    2
   134    46    45    1
   135    19    20    2
   136    19    18    1
   137    22    15   am
   138    58    57    1
   139    24    25    2
   140    17    18    1
   141    17    14    1
   142    45    44    1
   143    36    35    1
   144    35    32    1
   145    57    56    1
   146    15    16    2
   147    15    14    1
   148    14    13    1
   149    56    55    1
   150    44    41    1
   151    54    53    2
   152    32    33    1
   153    32    31    1
   154    34    33    2
   155    33    40   am
   156    53    52    1
   157    40    41    1
   158    55    52    1
   159    41    42    1
   160    52    51    1
   161    42    43    2
