@<TRIPOS>MOLECULE
tmp/3n42C00.pdb
 86 80 0 0 0
SMALL
GASTEIGER

@<TRIPOS>ATOM
      1  N         -8.7000   36.0310  -17.2260 N.3    16  PRO16      -0.2116
      2  CA        -9.1060   37.3660  -17.6980 C.3    16  PRO16       0.1372
      3  C         -7.9100   38.1830  -18.1890 C.2    16  PRO16       0.2244
      4  O         -6.9030   38.2890  -17.4870 O.2    16  PRO16      -0.2868
      5  CB        -9.7780   38.0020  -16.4680 C.3    16  PRO16       0.0268
      6  CG        -9.7360   36.9520  -15.3760 C.3    16  PRO16       0.0207
      7  CD        -8.6660   35.9820  -15.7530 C.3    16  PRO16       0.0892
      8  N        -11.7310   44.1880  -20.2610 N.3    32  GLU32      -0.1245
      9  CA       -11.3570   42.8890  -19.7010 C.3    32  GLU32       0.1567
     10  C        -12.0280   41.8070  -20.5490 C.2    32  GLU32       0.2260
     11  O        -13.2470   41.8410  -20.7340 O.2    32  GLU32      -0.2867
     12  CB       -11.7610   42.7770  -18.2150 C.3    32  GLU32       0.0388
     13  CG       -11.2810   41.5070  -17.5290 C.3    32  GLU32       0.1160
     14  CD       -11.7600   41.3270  -16.1020 C.2    32  GLU32       0.3649
     15  OE1      -11.2100   41.9960  -15.1990 O.co2  32  GLU32      -0.2457
     16  OE2      -12.6660   40.4930  -15.8810 O.co2  32  GLU32      -0.2457
     17  N        -12.3400   37.5070  -21.3010 N.3    34  GLU34      -0.1245
     18  CA       -12.1490   36.1630  -20.7590 C.3    34  GLU34       0.1567
     19  C        -12.8500   35.1200  -21.6240 C.2    34  GLU34       0.2260
     20  O        -14.0500   35.2430  -21.8850 O.2    34  GLU34      -0.2867
     21  CB       -12.6640   36.0910  -19.3110 C.3    34  GLU34       0.0388
     22  CG       -12.1670   34.8840  -18.5300 C.3    34  GLU34       0.1160
     23  CD       -13.0320   34.4680  -17.3550 C.2    34  GLU34       0.3649
     24  OE1      -13.3790   35.3380  -16.5220 O.co2  34  GLU34      -0.2457
     25  OE2      -13.3390   33.2590  -17.2510 O.co2  34  GLU34      -0.2457
     26  N        -16.3990   36.5180  -22.6570 N.3   136  ARG136     -0.1245
     27  CA       -16.9470   37.4630  -21.6830 C.3   136  ARG136      0.1563
     28  C        -16.1500   38.7640  -21.7950 C.2   136  ARG136      0.2260
     29  O        -14.9220   38.7360  -21.7060 O.2   136  ARG136     -0.2867
     30  CB       -16.8660   36.8900  -20.2520 C.3   136  ARG136      0.0307
     31  CG       -17.3800   37.8460  -19.1690 C.3   136  ARG136      0.0489
     32  CD       -17.0820   37.3750  -17.7530 C.3   136  ARG136      0.2205
     33  NE       -15.6470   37.3190  -17.4560 N.pl3 136  ARG136     -0.0865
     34  CZ       -14.9240   38.3370  -16.9960 C.cat 136  ARG136      0.5346
     35  NH1      -15.4870   39.5210  -16.7860 N.pl3 136  ARG136      0.1354
     36  NH2      -13.6300   38.1820  -16.7520 N.pl3 136  ARG136      0.1354
     37  N        -15.8890   42.8240  -20.3270 N.3   138  LEU138     -0.1245
     38  CA       -16.2780   43.8420  -19.3550 C.3   138  LEU138      0.1561
     39  C        -16.3530   45.1500  -20.1560 C.2   138  LEU138      0.2260
     40  O        -15.3330   45.8050  -20.3940 O.2   138  LEU138     -0.2867
     41  CB       -15.2570   43.9180  -18.2080 C.3   138  LEU138      0.0270
     42  CG       -15.7750   44.4680  -16.8890 C.3   138  LEU138      0.0019
     43  CD1      -15.6310   43.4560  -15.7730 C.3   138  LEU138      0.0001
     44  CD2      -15.0730   45.7570  -16.5330 C.3   138  LEU138      0.0001
     45  N        -18.7050   48.9310  -17.7460 N.3   141  GLY141     -0.1210
     46  CA       -19.0030   48.5080  -16.3810 C.3   141  GLY141      0.1956
     47  C        -19.9390   47.3190  -16.2620 C.2   141  GLY141      0.2612
     48  O        -20.3510   46.9720  -15.1510 O.2   141  GLY141     -0.2717
     49  N        -20.2750   46.6800  -17.4010 N.am  142  ASN142     -0.1960
     50  CA       -21.1700   45.5230  -17.4710 C.3   142  ASN142      0.1819
     51  C        -20.5330   44.3680  -18.2400 C.2   142  ASN142      0.2621
     52  O        -19.7800   44.6010  -19.1870 O.2   142  ASN142     -0.2715
     53  CB       -22.5000   45.9110  -18.1210 C.3   142  ASN142      0.1195
     54  CG       -23.3030   46.9020  -17.3200 C.2   142  ASN142      0.2630
     55  OD1      -24.0320   46.5410  -16.3900 O.2   142  ASN142     -0.2716
     56  ND2      -23.1920   48.1750  -17.6700 N.am  142  ASN142     -0.0877
     57  N        -20.8460   43.1250  -17.8380 N.am  143  ASN143     -0.1972
     58  CA       -20.3280   41.9240  -18.4890 C.3   143  ASN143      0.1688
     59  C        -21.2200   41.4970  -19.6510 C.2   143  ASN143      0.2292
     60  O        -22.4060   41.2190  -19.4530 O.2   143  ASN143     -0.2864
     61  CB       -20.1520   40.7810  -17.4850 C.3   143  ASN143      0.1181
     62  CG       -18.8800   40.8370  -16.6750 C.2   143  ASN143      0.2629
     63  OD1      -17.7820   41.0930  -17.1890 O.2   143  ASN143     -0.2716
     64  ND2      -19.0090   40.5650  -15.3850 N.am  143  ASN143     -0.0877
     65  N         -4.0800   38.2160   -7.5120 N.3   314  PHE314     -0.1241
     66  CA        -3.8330   39.6120   -7.1560 C.3   314  PHE314      0.1605
     67  C         -3.3920   39.7430   -5.6880 C.2   314  PHE314      0.2264
     68  O         -4.1930   40.0820   -4.8120 O.2   314  PHE314     -0.2867
     69  CB        -5.0470   40.5000   -7.5060 C.3   314  PHE314      0.0534
     70  CG        -5.4010   40.4960   -8.9760 C.ar  314  PHE314     -0.0203
     71  CD1       -4.7220   41.3100   -9.8740 C.ar  314  PHE314     -0.0042
     72  CD2       -6.4070   39.6710   -9.4630 C.ar  314  PHE314     -0.0042
     73  CE1       -5.0350   41.2890  -11.2360 C.ar  314  PHE314     -0.0003
     74  CE2       -6.7270   39.6590  -10.8240 C.ar  314  PHE314     -0.0003
     75  CZ        -6.0410   40.4710  -11.7000 C.ar  314  PHE314     -0.0000
     76  N         -6.2510   44.5130  -11.4310 N.3   342  ARG342     -0.1245
     77  CA        -7.5910   43.9200  -11.3530 C.3   342  ARG342      0.1563
     78  C         -8.7010   44.8690  -11.8430 C.2   342  ARG342      0.2260
     79  O         -9.5880   44.4280  -12.5760 O.2   342  ARG342     -0.2867
     80  CB        -7.8790   43.4430   -9.9190 C.3   342  ARG342      0.0307
     81  CG        -9.0530   42.4770   -9.8100 C.3   342  ARG342      0.0489
     82  CD        -9.6840   42.5260   -8.4350 C.3   342  ARG342      0.2205
     83  NE        -9.7570   41.1940   -7.8350 N.pl3 342  ARG342     -0.0865
     84  CZ        -9.8710   40.9580   -6.5310 C.cat 342  ARG342      0.5346
     85  NH1       -9.9140   41.9650   -5.6670 N.pl3 342  ARG342      0.1354
     86  NH2       -9.9300   39.7120   -6.0800 N.pl3 342  ARG342      0.1354
@<TRIPOS>BOND
     1    26    27    1
     2    20    19    2
     3    28    29    2
     4    28    27    1
     5    27    30    1
     6    19    18    1
     7    17    18    1
     8    18    21    1
     9    11    10    2
    10    10     9    1
    11    40    39    2
    12    37    38    1
    13     8     9    1
    14    30    31    1
    15    39    38    1
    16     9    12    1
    17    59    60    2
    18    59    58    1
    19    38    41    1
    20    21    22    1
    21    52    51    2
    22    31    32    1
    23    22    23    1
    24    58    57    1
    25    58    61    1
    26    51    57   am
    27    51    50    1
    28    12    13    1
    29    41    42    1
    30     3     2    1
    31     3     4    2
    32    53    50    1
    33    53    54    1
    34    32    33    1
    35    45    46    1
    36     2     1    1
    37     2     5    1
    38    56    54   am
    39    13    14    1
    40    61    62    1
    41    50    49    1
    42    33    34    2
    43    49    47   am
    44    23    25   ar
    45    23    24   ar
    46    54    55    2
    47     1     7    1
    48    63    62    2
    49    34    35    1
    50    34    36    1
    51    42    44    1
    52    42    43    1
    53    62    64   am
    54     5     6    1
    55    46    47    1
    56    47    48    2
    57    14    16   ar
    58    14    15   ar
    59     7     6    1
    60    79    78    2
    61    78    77    1
    62    75    73   ar
    63    75    74   ar
    64    76    77    1
    65    77    80    1
    66    73    71   ar
    67    74    72   ar
    68    80    81    1
    69    71    70   ar
    70    81    82    1
    71    72    70   ar
    72    70    69    1
    73    82    83    1
    74    83    84    2
    75    65    66    1
    76    69    66    1
    77    66    67    1
    78    84    86    1
    79    84    85    1
    80    67    68    2
