@<TRIPOS>MOLECULE
tmp/3n45A00.pdb
 154 144 0 0 0
SMALL
GASTEIGER

@<TRIPOS>ATOM
      1  N         -7.6260   76.6150   19.3140 N.3     3  TYR3       -0.1241
      2  CA        -6.3730   76.6780   18.5820 C.3     3  TYR3        0.1605
      3  C         -6.4380   75.8570   17.2920 C.2     3  TYR3        0.2264
      4  O         -5.9470   76.2910   16.2480 O.2     3  TYR3       -0.2867
      5  CB        -5.2100   76.1760   19.4520 C.3     3  TYR3        0.0534
      6  CG        -4.7260   77.1770   20.4860 C.ar    3  TYR3       -0.0201
      7  CD1       -5.5190   77.5240   21.5690 C.ar    3  TYR3       -0.0009
      8  CD2       -3.4820   77.7950   20.3610 C.ar    3  TYR3       -0.0009
      9  CE1       -5.0980   78.4570   22.4970 C.ar    3  TYR3        0.0417
     10  CE2       -3.0480   78.7340   21.2910 C.ar    3  TYR3        0.0417
     11  CZ        -3.8650   79.0600   22.3550 C.ar    3  TYR3        0.1957
     12  OH        -3.4560   79.9940   23.2790 O.3     3  TYR3       -0.2866
     13  N          7.3090   73.9160   13.8190 N.3    49  GLY49      -0.1210
     14  CA         6.8790   73.8780   15.2010 C.3    49  GLY49       0.1956
     15  C          5.3740   73.7470   15.2660 C.2    49  GLY49       0.2611
     16  O          4.7320   73.4150   14.2680 O.2    49  GLY49      -0.2717
     17  N          4.8200   74.0180   16.4430 N.am   50  LYS50      -0.1979
     18  CA         3.3830   73.9390   16.6840 C.3    50  LYS50       0.1596
     19  C          2.7000   75.2830   16.4720 C.2    50  LYS50       0.2287
     20  O          1.4740   75.3570   16.4110 O.2    50  LYS50      -0.2864
     21  CB         3.1280   73.4650   18.1150 C.3    50  LYS50       0.0298
     22  CG         3.6960   72.0900   18.4090 C.3    50  LYS50       0.0038
     23  CD         3.0850   71.0600   17.4910 C.3    50  LYS50       0.0206
     24  CE         3.5780   69.6640   17.8110 C.3    50  LYS50       0.1093
     25  NZ         2.8710   68.6650   16.9650 N.3    50  LYS50      -0.1314
     26  N          2.1480   77.5810   18.4420 N.3    52  ASN52      -0.1225
     27  CA         1.2460   77.9820   19.5100 C.3    52  ASN52       0.1785
     28  C          1.3840   79.4070   20.0400 C.2    52  ASN52       0.2597
     29  O          0.3900   80.0140   20.4430 O.2    52  ASN52      -0.2718
     30  CB         1.3110   76.9600   20.6500 C.3    52  ASN52       0.1169
     31  CG         0.7110   75.6230   20.2450 C.2    52  ASN52       0.2627
     32  OD1       -0.3320   75.5800   19.5830 O.2    52  ASN52      -0.2716
     33  ND2        1.3490   74.5330   20.6450 N.am   52  ASN52      -0.0877
     34  N          2.5910   79.9610   20.0440 N.am   53  ARG53      -0.1979
     35  CA         2.7410   81.3300   20.5360 C.3    53  ARG53       0.1597
     36  C          2.0490   82.2790   19.5500 C.2    53  ARG53       0.2287
     37  O          1.3020   83.1750   19.9480 O.2    53  ARG53      -0.2864
     38  CB         4.2260   81.6680   20.7000 C.3    53  ARG53       0.0334
     39  CG         4.9090   80.7550   21.7250 C.3    53  ARG53       0.0492
     40  CD         6.4220   80.9120   21.7320 C.3    53  ARG53       0.2205
     41  NE         7.0660   80.0390   22.7150 N.pl3  53  ARG53      -0.0865
     42  CZ         7.1440   78.7100   22.6140 C.cat  53  ARG53       0.5346
     43  NH1        6.6220   78.0820   21.5690 N.pl3  53  ARG53       0.1354
     44  NH2        7.7470   78.0040   23.5600 N.pl3  53  ARG53       0.1354
     45  N         -1.6490   81.9480   19.6840 N.3    56  THR56      -0.1218
     46  CA        -2.2290   82.5700   20.8610 C.3    56  THR56       0.1862
     47  C         -2.6920   83.9850   20.5270 C.2    56  THR56       0.2287
     48  O         -3.7450   84.4200   20.9890 O.2    56  THR56      -0.2866
     49  CB        -1.2210   82.5890   22.0300 C.3    56  THR56       0.1770
     50  OG1       -1.0010   81.2470   22.4800 O.3    56  THR56      -0.2211
     51  CG2       -1.7440   83.4260   23.1820 C.3    56  THR56       0.0375
     52  N          7.0790   84.2650   25.6090 N.3   198  SER198     -0.1202
     53  CA         6.1970   83.1480   25.2860 C.3   198  SER198      0.2020
     54  C          4.7590   83.2980   25.7540 C.2   198  SER198      0.2618
     55  O          3.8510   82.7410   25.1440 O.2   198  SER198     -0.2717
     56  CB         6.7590   81.8290   25.8240 C.3   198  SER198      0.2103
     57  OG         7.9310   81.4690   25.1170 O.3   198  SER198     -0.2182
     58  N          4.5370   84.0610   26.8170 N.am  199  PHE199     -0.1975
     59  CA         3.1820   84.1970   27.3160 C.3   199  PHE199      0.1639
     60  C          2.6030   85.6010   27.4020 C.2   199  PHE199      0.2290
     61  O          1.4780   85.8200   26.9500 O.2   199  PHE199     -0.2864
     62  CB         3.0620   83.4690   28.6610 C.3   199  PHE199      0.0560
     63  CG         3.3020   81.9980   28.5480 C.ar  199  PHE199     -0.0200
     64  CD1        4.5860   81.4860   28.5980 C.ar  199  PHE199     -0.0042
     65  CD2        2.2490   81.1320   28.2920 C.ar  199  PHE199     -0.0042
     66  CE1        4.8170   80.1380   28.3880 C.ar  199  PHE199     -0.0003
     67  CE2        2.4730   79.7830   28.0820 C.ar  199  PHE199     -0.0003
     68  CZ         3.7610   79.2870   28.1280 C.ar  199  PHE199     -0.0000
     69  N          5.9320   76.7250   32.3840 N.3   232  PHE232     -0.1241
     70  CA         6.3400   76.2300   31.0740 C.3   232  PHE232      0.1605
     71  C          7.8440   75.9700   30.9760 C.2   232  PHE232      0.2264
     72  O          8.2610   74.9680   30.3890 O.2   232  PHE232     -0.2867
     73  CB         5.8910   77.1900   29.9650 C.3   232  PHE232      0.0534
     74  CG         6.1340   76.6580   28.5720 C.ar  232  PHE232     -0.0203
     75  CD1        7.3380   76.8800   27.9280 C.ar  232  PHE232     -0.0042
     76  CD2        5.1600   75.9130   27.9230 C.ar  232  PHE232     -0.0042
     77  CE1        7.5710   76.3620   26.6390 C.ar  232  PHE232     -0.0003
     78  CE2        5.3790   75.3930   26.6430 C.ar  232  PHE232     -0.0003
     79  CZ         6.5890   75.6230   26.0050 C.ar  232  PHE232     -0.0000
     80  N          8.6860   72.8570   32.9450 N.3   235  GLN235     -0.1231
     81  CA         8.3350   71.6960   32.1480 C.3   235  GLN235      0.1698
     82  C          9.3750   71.5240   31.0240 C.2   235  GLN235      0.2592
     83  O          9.7230   70.4010   30.6610 O.2   235  GLN235     -0.2718
     84  CB         6.9280   71.8530   31.5590 C.3   235  GLN235      0.0381
     85  CG         6.5350   70.7730   30.5610 C.3   235  GLN235      0.0905
     86  CD         5.1170   70.9530   30.0550 C.2   235  GLN235      0.2608
     87  OE1        4.7810   71.9670   29.4370 O.2   235  GLN235     -0.2717
     88  NE2        4.2790   69.9680   30.3150 N.am  235  GLN235     -0.0878
     89  N          9.8720   72.6290   30.4760 N.am  236  ASP236     -0.1974
     90  CA        10.8780   72.5430   29.4110 C.3   236  ASP236      0.1709
     91  C         12.1490   71.8970   29.9650 C.2   236  ASP236      0.2293
     92  O         12.7650   71.0510   29.3120 O.2   236  ASP236     -0.2864
     93  CB        11.2210   73.9340   28.8530 C.3   236  ASP236      0.1436
     94  CG        12.2480   73.8740   27.7140 C.2   236  ASP236      0.3671
     95  OD1       11.9330   73.2810   26.6620 O.co2 236  ASP236     -0.2456
     96  OD2       13.3700   74.4030   27.8690 O.co2 236  ASP236     -0.2456
     97  N         11.5710   68.0830   30.4510 N.3   239  LEU239     -0.1245
     98  CA        11.6140   67.3860   29.1650 C.3   239  LEU239      0.1561
     99  C         13.0010   67.3380   28.5290 C.2   239  LEU239      0.2260
    100  O         13.2710   66.4730   27.6930 O.2   239  LEU239     -0.2867
    101  CB        10.6300   68.0400   28.1850 C.3   239  LEU239      0.0270
    102  CG         9.1480   67.9910   28.5660 C.3   239  LEU239      0.0019
    103  CD1        8.3320   68.8360   27.5970 C.3   239  LEU239      0.0001
    104  CD2        8.6780   66.5560   28.5710 C.3   239  LEU239      0.0001
    105  N          9.6530   65.7610   21.6610 N.3   248  THR248     -0.1218
    106  CA        10.2050   67.1000   21.8480 C.3   248  THR248      0.1862
    107  C         10.8760   67.6430   20.5970 C.2   248  THR248      0.2287
    108  O         10.8800   68.8480   20.3730 O.2   248  THR248     -0.2866
    109  CB        11.2390   67.1510   22.9880 C.3   248  THR248      0.1770
    110  OG1       12.3600   66.3310   22.6490 O.3   248  THR248     -0.2211
    111  CG2       10.6150   66.6740   24.2930 C.3   248  THR248      0.0375
    112  N         14.0000   67.6900   20.0330 N.3   250  LYS250     -0.1245
    113  CA        15.2890   68.2850   20.3440 C.3   250  LYS250      0.1561
    114  C         16.0720   67.4640   21.3660 C.2   250  LYS250      0.2260
    115  O         15.4910   66.8180   22.2390 O.2   250  LYS250     -0.2867
    116  CB        15.0900   69.7220   20.8430 C.3   250  LYS250      0.0271
    117  CG        14.1930   69.8530   22.0690 C.3   250  LYS250      0.0035
    118  CD        13.8610   71.3210   22.3940 C.3   250  LYS250      0.0206
    119  CE        13.1020   71.4070   23.7150 C.3   250  LYS250      0.1093
    120  NZ        12.7670   72.7800   24.1540 N.3   250  LYS250     -0.1314
    121  N         -5.1810   78.8060   26.7630 N.3   337  LEU337     -0.1245
    122  CA        -3.7240   78.7820   26.7940 C.3   337  LEU337      0.1561
    123  C         -3.2520   77.7100   27.7790 C.2   337  LEU337      0.2260
    124  O         -2.3590   76.9230   27.4720 O.2   337  LEU337     -0.2867
    125  CB        -3.1990   80.1630   27.2000 C.3   337  LEU337      0.0270
    126  CG        -1.6960   80.4420   27.2000 C.3   337  LEU337      0.0019
    127  CD1       -1.0980   80.1850   25.8160 C.3   337  LEU337      0.0001
    128  CD2       -1.4830   81.8900   27.6160 C.3   337  LEU337      0.0001
    129  N         -3.3700   74.2140   26.6410 N.3   340  LYS340     -0.1231
    130  CA        -2.3230   73.9360   25.6720 C.3   340  LYS340      0.1693
    131  C         -0.9810   73.5930   26.3130 C.2   340  LYS340      0.2591
    132  O         -0.2090   72.8270   25.7480 O.2   340  LYS340     -0.2718
    133  CB        -2.1500   75.1350   24.7420 C.3   340  LYS340      0.0285
    134  CG        -3.0440   75.0950   23.5190 C.3   340  LYS340      0.0035
    135  CD        -2.7030   73.8670   22.6970 C.3   340  LYS340      0.0206
    136  CE        -3.2730   73.9410   21.3060 C.3   340  LYS340      0.1093
    137  NZ        -2.9220   72.7140   20.5500 N.3   340  LYS340     -0.1314
    138  N         -0.6960   74.1520   27.4860 N.am  341  ILE341     -0.1980
    139  CA         0.5880   73.8670   28.1130 C.3   341  ILE341      0.1595
    140  C          0.5450   72.7720   29.1670 C.2   341  ILE341      0.2287
    141  O          1.5700   72.1620   29.4710 O.2   341  ILE341     -0.2864
    142  CB         1.2150   75.1270   28.7180 C.3   341  ILE341      0.0276
    143  CG1        0.3700   75.6460   29.8690 C.3   341  ILE341      0.0022
    144  CG2        1.3540   76.2000   27.6480 C.3   341  ILE341      0.0022
    145  CD1        0.9660   76.8790   30.5230 C.3   341  ILE341      0.0001
    146  N         -0.3980   69.3290   29.6210 N.3   343  LYS343     -0.1245
    147  CA        -0.7630   68.0670   28.9830 C.3   343  LYS343      0.1561
    148  C         -1.7440   68.2460   27.8210 C.2   343  LYS343      0.2260
    149  O         -2.0500   69.4050   27.4720 O.2   343  LYS343     -0.2867
    150  CB        -1.3700   67.1120   30.0170 C.3   343  LYS343      0.0271
    151  CG        -1.3160   65.6450   29.6000 C.3   343  LYS343      0.0035
    152  CD        -2.1460   64.7590   30.5170 C.3   343  LYS343      0.0206
    153  CE        -3.6330   65.0730   30.3830 C.3   343  LYS343      0.1093
    154  NZ        -4.4730   64.1800   31.2350 N.3   343  LYS343     -0.1314
@<TRIPOS>BOND
     1    13    14    1
     2    16    15    2
     3    14    15    1
     4    15    17   am
     5     4     3    2
     6    20    19    2
     7    17    18    1
     8    19    18    1
     9    18    21    1
    10    25    24    1
    11     3     2    1
    12    23    24    1
    13    23    22    1
    14    21    22    1
    15    26    27    1
    16     2     1    1
    17     2     5    1
    18     5     6    1
    19    27    28    1
    20    27    30    1
    21    36    37    2
    22    36    35    1
    23    32    31    2
    24    45    46    1
    25   112   113    1
    26    28    34   am
    27    28    29    2
    28    34    35    1
    29    31    33   am
    30    31    30    1
    31   113   116    1
    32   113   114    1
    33     8     6   ar
    34     8    10   ar
    35   108   107    2
    36     6     7   ar
    37    47    46    1
    38    47    48    2
    39    35    38    1
    40   137   136    1
    41   107   106    1
    42    38    39    1
    43   116   117    1
    44    46    49    1
    45    10    11   ar
    46   136   135    1
    47   114   115    2
    48    43    42    1
    49     7     9   ar
    50   105   106    1
    51    39    40    1
    52    40    41    1
    53   106   109    1
    54    49    50    1
    55    49    51    1
    56   117   118    1
    57    11     9   ar
    58    11    12    1
    59   118   119    1
    60    42    41    2
    61    42    44    1
    62   110   109    1
    63   135   134    1
    64   109   111    1
    65   134   133    1
    66   119   120    1
    67   133   130    1
    68    57    56    1
    69    55    54    2
    70    53    52    1
    71    53    54    1
    72    53    56    1
    73   130   131    1
    74   130   129    1
    75   132   131    2
    76    54    58   am
    77   127   126    1
    78    79    77   ar
    79    79    78   ar
    80   131   138   am
    81    77    75   ar
    82    78    76   ar
    83    95    94   ar
    84   121   122    1
    85   122   125    1
    86   122   123    1
    87    58    59    1
    88    61    60    2
    89   126   125    1
    90   126   128    1
    91    59    60    1
    92    59    62    1
    93   149   148    2
    94   124   123    2
    95   138   139    1
    96   103   102    1
    97   144   142    1
    98   100    99    2
    99    94    96   ar
   100    94    93    1
   101   148   147    1
   102    76    74   ar
   103    75    74   ar
   104    67    68   ar
   105    67    65   ar
   106   139   142    1
   107   139   140    1
   108    68    66   ar
   109   101   102    1
   110   101    98    1
   111    65    63   ar
   112    66    64   ar
   113    99    98    1
   114    63    64   ar
   115    63    62    1
   116   102   104    1
   117    74    73    1
   118   142   143    1
   119    93    90    1
   120   147   146    1
   121   147   150    1
   122    98    97    1
   123   140   141    2
   124    92    91    2
   125    90    91    1
   126    90    89    1
   127    87    86    2
   128   151   150    1
   129   151   152    1
   130   143   145    1
   131    73    70    1
   132    86    88   am
   133    86    85    1
   134   153   152    1
   135   153   154    1
   136    72    71    2
   137    89    82   am
   138    85    84    1
   139    83    82    2
   140    71    70    1
   141    82    81    1
   142    70    69    1
   143    84    81    1
   144    81    80    1
