@<TRIPOS>MOLECULE
tmp/3n49A00.pdb
 109 103 0 0 0
SMALL
GASTEIGER

@<TRIPOS>ATOM
      1  N         -6.3120   75.1470   23.3220 N.3     3  TYR3       -0.1241
      2  CA        -5.0270   75.1910   22.6430 C.3     3  TYR3        0.1605
      3  C         -5.0030   74.2280   21.4660 C.2     3  TYR3        0.2264
      4  O         -4.7100   74.6250   20.3400 O.2     3  TYR3       -0.2867
      5  CB        -3.8940   74.8350   23.6120 C.3     3  TYR3        0.0534
      6  CG        -3.5010   75.9500   24.5570 C.ar    3  TYR3       -0.0201
      7  CD1       -4.4380   76.5370   25.4000 C.ar    3  TYR3       -0.0009
      8  CD2       -2.1880   76.4080   24.6150 C.ar    3  TYR3       -0.0009
      9  CE1       -4.0800   77.5470   26.2740 C.ar    3  TYR3        0.0417
     10  CE2       -1.8210   77.4190   25.4860 C.ar    3  TYR3        0.0417
     11  CZ        -2.7730   77.9820   26.3120 C.ar    3  TYR3        0.1957
     12  OH        -2.4240   78.9800   27.1880 O.3     3  TYR3       -0.2866
     13  N          6.4920   73.1750   21.0310 N.3    50  LYS50      -0.1245
     14  CA         5.0640   73.0180   21.3040 C.3    50  LYS50       0.1561
     15  C          4.2890   74.3040   21.0490 C.2    50  LYS50       0.2260
     16  O          3.0570   74.3020   21.0010 O.2    50  LYS50      -0.2867
     17  CB         4.8540   72.5550   22.7400 C.3    50  LYS50       0.0271
     18  CG         5.5310   71.2360   23.0510 C.3    50  LYS50       0.0035
     19  CD         5.6180   71.0160   24.5490 C.3    50  LYS50       0.0206
     20  CE         6.5190   69.8380   24.8670 C.3    50  LYS50       0.1093
     21  NZ         6.9370   69.8080   26.2970 N.3    50  LYS50      -0.1314
     22  N          3.6440   76.7500   22.9120 N.3    52  ASN52      -0.1225
     23  CA         2.7460   77.1670   23.9740 C.3    52  ASN52       0.1785
     24  C          2.7880   78.6570   24.2750 C.2    52  ASN52       0.2597
     25  O          1.7500   79.2760   24.4610 O.2    52  ASN52      -0.2718
     26  CB         3.0220   76.3850   25.2560 C.3    52  ASN52       0.1169
     27  CG         2.6690   74.9200   25.1300 C.2    52  ASN52       0.2627
     28  OD1        1.6140   74.5690   24.6010 O.2    52  ASN52      -0.2716
     29  ND2        3.5550   74.0530   25.6240 N.am   52  ASN52      -0.0877
     30  N          3.9770   79.2370   24.3230 N.am   53  ARG53      -0.1979
     31  CA         4.0870   80.6580   24.6110 C.3    53  ARG53       0.1597
     32  C          3.4200   81.5030   23.5310 C.2    53  ARG53       0.2287
     33  O          2.6930   82.4370   23.8400 O.2    53  ARG53      -0.2864
     34  CB         5.5530   81.0620   24.7540 C.3    53  ARG53       0.0334
     35  CG         6.2900   80.3040   25.8580 C.3    53  ARG53       0.0492
     36  CD         7.7400   80.7190   25.9100 C.3    53  ARG53       0.2205
     37  NE         8.4690   80.0010   26.9350 N.pl3  53  ARG53      -0.0865
     38  CZ         8.6020   78.6820   26.9620 C.cat  53  ARG53       0.5346
     39  NH1        8.0500   77.9360   26.0070 N.pl3  53  ARG53       0.1354
     40  NH2        9.2760   78.1070   27.9500 N.pl3  53  ARG53       0.1354
     41  N         -0.2300   81.0870   23.7320 N.3    56  THR56      -0.1218
     42  CA        -0.7840   81.7790   24.8800 C.3    56  THR56       0.1862
     43  C         -1.1210   83.2160   24.5300 C.2    56  THR56       0.2287
     44  O         -1.9570   83.8390   25.1880 O.2    56  THR56      -0.2866
     45  CB         0.1880   81.7720   26.0720 C.3    56  THR56       0.1770
     46  OG1        0.3800   80.4290   26.5190 O.3    56  THR56      -0.2211
     47  CG2       -0.3590   82.6040   27.2230 C.3    56  THR56       0.0375
     48  N          8.5300   83.8370   29.4380 N.3   198  SER198     -0.1202
     49  CA         7.6440   82.6920   29.2470 C.3   198  SER198      0.2020
     50  C          6.1990   82.8850   29.7120 C.2   198  SER198      0.2618
     51  O          5.2700   82.3720   29.0870 O.2   198  SER198     -0.2717
     52  CB         8.2240   81.4540   29.9330 C.3   198  SER198      0.2103
     53  OG         9.4410   81.0670   29.3280 O.3   198  SER198     -0.2182
     54  N          6.0130   83.6390   30.7900 N.am  199  PHE199     -0.1975
     55  CA         4.6840   83.8330   31.3440 C.3   199  PHE199      0.1639
     56  C          4.1260   85.2530   31.3170 C.2   199  PHE199      0.2290
     57  O          2.9540   85.4650   30.9940 O.2   199  PHE199     -0.2864
     58  CB         4.6640   83.2400   32.7610 C.3   199  PHE199      0.0560
     59  CG         4.8020   81.7470   32.7660 C.ar  199  PHE199     -0.0200
     60  CD1        6.0490   81.1410   32.7590 C.ar  199  PHE199     -0.0042
     61  CD2        3.6730   80.9480   32.6340 C.ar  199  PHE199     -0.0042
     62  CE1        6.1680   79.7710   32.6170 C.ar  199  PHE199     -0.0003
     63  CE2        3.7830   79.5800   32.4900 C.ar  199  PHE199     -0.0003
     64  CZ         5.0320   78.9870   32.4750 C.ar  199  PHE199     -0.0000
     65  N          6.5580   76.6540   37.4770 N.3   232  PHE232     -0.1241
     66  CA         6.7940   75.9200   36.2410 C.3   232  PHE232      0.1605
     67  C          8.2130   75.3620   36.1700 C.2   232  PHE232      0.2264
     68  O          8.4060   74.1850   35.8800 O.2   232  PHE232     -0.2867
     69  CB         6.5610   76.8390   35.0480 C.3   232  PHE232      0.0534
     70  CG         7.0450   76.2770   33.7510 C.ar  232  PHE232     -0.0203
     71  CD1        6.3770   75.2290   33.1420 C.ar  232  PHE232     -0.0042
     72  CD2        8.1680   76.8010   33.1340 C.ar  232  PHE232     -0.0042
     73  CE1        6.8130   74.7150   31.9350 C.ar  232  PHE232     -0.0003
     74  CE2        8.6140   76.2920   31.9250 C.ar  232  PHE232     -0.0003
     75  CZ         7.9350   75.2460   31.3260 C.ar  232  PHE232     -0.0000
     76  N         11.4060   63.1720   27.2940 N.3   250  LYS250     -0.1245
     77  CA        12.8140   63.5390   27.2950 C.3   250  LYS250      0.1561
     78  C         13.5140   63.0750   28.5670 C.2   250  LYS250      0.2260
     79  O         12.8760   62.8700   29.5980 O.2   250  LYS250     -0.2867
     80  CB        12.9500   65.0560   27.1290 C.3   250  LYS250      0.0271
     81  CG        12.0060   65.8680   28.0080 C.3   250  LYS250      0.0035
     82  CD        11.9840   67.3430   27.6070 C.3   250  LYS250      0.0206
     83  CE        10.9920   68.1300   28.4610 C.3   250  LYS250      0.1093
     84  NZ        10.9230   69.5730   28.0980 N.3   250  LYS250     -0.1314
     85  N         -4.2620   79.0940   31.9920 N.3   337  LEU337     -0.1245
     86  CA        -2.8290   78.8820   31.9070 C.3   337  LEU337      0.1561
     87  C         -2.3220   78.0150   33.0590 C.2   337  LEU337      0.2260
     88  O         -1.4840   77.1350   32.8540 O.2   337  LEU337     -0.2867
     89  CB        -2.1110   80.2270   31.9050 C.3   337  LEU337      0.0270
     90  CG        -0.6040   80.1970   31.7150 C.3   337  LEU337      0.0019
     91  CD1       -0.2420   79.7370   30.3100 C.3   337  LEU337      0.0001
     92  CD2       -0.0850   81.5800   31.9710 C.3   337  LEU337      0.0001
     93  N         -2.8570   74.2590   32.6980 N.3   340  LYS340     -0.1231
     94  CA        -1.9360   73.6090   31.7820 C.3   340  LYS340      0.1693
     95  C         -0.5830   73.3400   32.4510 C.2   340  LYS340      0.2591
     96  O          0.1040   72.3910   32.0920 O.2   340  LYS340     -0.2718
     97  CB        -1.7140   74.4810   30.5490 C.3   340  LYS340      0.0285
     98  CG        -2.9310   74.6870   29.6730 C.3   340  LYS340      0.0035
     99  CD        -3.1840   73.5040   28.7730 C.3   340  LYS340      0.0206
    100  CE        -4.3180   73.8090   27.8120 C.3   340  LYS340      0.1093
    101  NZ        -4.6090   72.6720   26.8770 N.3   340  LYS340     -0.1314
    102  N         -0.2070   74.1690   33.4210 N.am  341  ILE341     -0.1980
    103  CA         1.0760   74.0230   34.1100 C.3   341  ILE341      0.1595
    104  C          1.0450   73.0770   35.3090 C.2   341  ILE341      0.2287
    105  O          1.9200   72.2260   35.4590 O.2   341  ILE341     -0.2864
    106  CB         1.6140   75.4010   34.6040 C.3   341  ILE341      0.0276
    107  CG1        1.8080   76.3490   33.4210 C.3   341  ILE341      0.0022
    108  CG2        2.9280   75.2160   35.3510 C.3   341  ILE341      0.0022
    109  CD1        2.6190   75.7530   32.2970 C.3   341  ILE341      0.0001
@<TRIPOS>BOND
     1     4     3    2
     2    16    15    2
     3    13    14    1
     4    15    14    1
     5    14    17    1
     6     3     2    1
     7     2     1    1
     8     2     5    1
     9    17    18    1
    10    22    23    1
    11    18    19    1
    12    32    33    2
    13    32    31    1
    14     5     6    1
    15    41    42    1
    16    23    24    1
    17    23    26    1
    18    24    30   am
    19    24    25    2
    20    30    31    1
    21    43    42    1
    22    43    44    2
    23    19    20    1
    24     6     8   ar
    25     6     7   ar
    26    28    27    2
    27    31    34    1
    28     8    10   ar
    29    34    35    1
    30    20    21    1
    31    42    45    1
    32    27    26    1
    33    27    29   am
    34     7     9   ar
    35    10    11   ar
    36    35    36    1
    37    36    37    1
    38    39    38    1
    39    45    46    1
    40    45    47    1
    41     9    11   ar
    42    11    12    1
    43   101   100    1
    44    37    38    2
    45    38    40    1
    46    80    77    1
    47    80    81    1
    48    76    77    1
    49    77    78    1
    50    82    81    1
    51    82    83    1
    52   100    99    1
    53    84    83    1
    54    78    79    2
    55    99    98    1
    56    51    50    2
    57    49    48    1
    58    49    50    1
    59    49    52    1
    60    53    52    1
    61    98    97    1
    62    50    54   am
    63    91    90    1
    64    97    94    1
    65    54    55    1
    66    57    56    2
    67    56    55    1
    68    75    74   ar
    69    75    73   ar
    70    55    58    1
    71    90    89    1
    72    90    92    1
    73    94    95    1
    74    94    93    1
    75    89    86    1
    76    86    85    1
    77    86    87    1
    78    74    72   ar
    79    73    71   ar
    80    96    95    2
    81   109   107    1
    82    95   102   am
    83    64    63   ar
    84    64    62   ar
    85    63    61   ar
    86    62    60   ar
    87    61    59   ar
    88    60    59   ar
    89    58    59    1
    90    88    87    2
    91    72    70   ar
    92    71    70   ar
    93   102   103    1
    94   107   106    1
    95    70    69    1
    96   103   106    1
    97   103   104    1
    98   106   108    1
    99    69    66    1
   100   104   105    2
   101    68    67    2
   102    67    66    1
   103    66    65    1
