@<TRIPOS>MOLECULE
tmp/3n4bA00.pdb
 145 140 0 0 0
SMALL
GASTEIGER

@<TRIPOS>ATOM
      1  N         -8.4170    0.6570    5.9230 N.3    65  ASN65      -0.1240
      2  CA        -9.2790    1.5500    6.7000 C.3    65  ASN65       0.1653
      3  C        -10.4550    1.9880    5.8360 C.2    65  ASN65       0.2266
      4  O        -10.2640    2.4180    4.6920 O.2    65  ASN65      -0.2867
      5  CB        -8.5460    2.8060    7.1610 C.3    65  ASN65       0.1155
      6  CG        -7.4830    2.5140    8.1860 C.2    65  ASN65       0.2627
      7  OD1       -7.3760    1.3960    8.6630 O.2    65  ASN65      -0.2716
      8  ND2       -6.6500    3.5190    8.4900 N.am   65  ASN65      -0.0877
      9  N        -12.6340    6.3310   11.2860 N.3    90  GLN90      -0.1245
     10  CA       -12.4000    5.1790   10.4220 C.3    90  GLN90       0.1566
     11  C        -12.6420    3.8940   11.1680 C.2    90  GLN90       0.2260
     12  O        -12.6650    3.8960   12.3990 O.2    90  GLN90      -0.2867
     13  CB       -10.9510    5.1760    9.8960 C.3    90  GLN90       0.0367
     14  CG        -9.8750    5.3210   10.9900 C.3    90  GLN90       0.0905
     15  CD        -9.1110    4.0500   11.2820 C.2    90  GLN90       0.2608
     16  OE1       -9.6370    2.9350   11.1720 O.2    90  GLN90      -0.2717
     17  NE2       -7.8510    4.2190   11.6730 N.am   90  GLN90      -0.0878
     18  N        -11.2420   -0.4060   10.9010 N.3    92  HIS92      -0.1241
     19  CA       -10.3670   -1.3690   10.2910 C.3    92  HIS92       0.1621
     20  C        -10.3840   -2.6270   11.1220 C.2    92  HIS92       0.2264
     21  O        -11.0590   -2.6930   12.1570 O.2    92  HIS92      -0.2867
     22  CB        -8.9280   -0.8400   10.2480 C.3    92  HIS92       0.0745
     23  CG        -8.3640   -0.5900   11.6150 C.ar   92  HIS92       0.0817
     24  ND1       -8.5130    0.6150   12.2710 N.ar   92  HIS92      -0.2268
     25  CD2       -7.7110   -1.4120   12.4720 C.ar   92  HIS92       0.1154
     26  CE1       -7.9650    0.5230   13.4750 C.ar   92  HIS92       0.1986
     27  NE2       -7.4580   -0.6880   13.6120 N.ar   92  HIS92      -0.2212
     28  N         -8.0190   -6.3130   12.4240 N.3    94  HIS94      -0.1241
     29  CA        -6.8040   -7.1330   12.5220 C.3    94  HIS94       0.1621
     30  C         -7.2350   -8.5900   12.3910 C.2    94  HIS94       0.2264
     31  O         -8.3070   -8.9570   12.8930 O.2    94  HIS94      -0.2867
     32  CB        -6.1530   -6.9060   13.8770 C.3    94  HIS94       0.0745
     33  CG        -5.8750   -5.4660   14.1460 C.ar   94  HIS94       0.0817
     34  ND1       -4.6440   -4.8770   13.8880 N.ar   94  HIS94      -0.2268
     35  CD2       -6.6920   -4.4720   14.5690 C.ar   94  HIS94       0.1154
     36  CE1       -4.7130   -3.5910   14.2020 C.ar   94  HIS94       0.1986
     37  NE2       -5.9510   -3.3160   14.5810 N.ar   94  HIS94      -0.2212
     38  N        -11.9850   -2.6350   14.7850 N.3   117  HIS117     -0.1241
     39  CA       -11.7620   -1.3990   15.5470 C.3   117  HIS117      0.1621
     40  C        -12.4150   -0.2120   14.8830 C.2   117  HIS117      0.2264
     41  O        -12.0370    0.1680   13.7620 O.2   117  HIS117     -0.2867
     42  CB       -10.2550   -1.1430   15.6130 C.3   117  HIS117      0.0745
     43  CG        -9.5450   -2.0980   16.5150 C.ar  117  HIS117      0.0817
     44  ND1       -8.1750   -2.3180   16.4700 N.ar  117  HIS117     -0.2268
     45  CD2      -10.0270   -2.9120   17.4870 C.ar  117  HIS117      0.1154
     46  CE1       -7.8540   -3.2030   17.3980 C.ar  117  HIS117      0.1986
     47  NE2       -8.9590   -3.5860   18.0200 N.ar  117  HIS117     -0.2212
     48  N        -12.7050    3.5460   15.2140 N.3   119  VAL119     -0.1245
     49  CA       -11.8620    4.5570   15.8600 C.3   119  VAL119      0.1561
     50  C        -12.5690    5.9030   15.9170 C.2   119  VAL119      0.2260
     51  O        -13.0300    6.4030   14.8860 O.2   119  VAL119     -0.2867
     52  CB       -10.5610    4.7300   15.0630 C.3   119  VAL119      0.0252
     53  CG1       -9.6520    5.7800   15.7380 C.3   119  VAL119      0.0019
     54  CG2       -9.8370    3.3800   14.8660 C.3   119  VAL119      0.0019
     55  N         -8.1730   15.0060   14.7440 N.3   128  PHE128     -0.1241
     56  CA        -7.6480   13.7080   15.1340 C.3   128  PHE128      0.1605
     57  C         -6.1820   13.8160   15.5310 C.2   128  PHE128      0.2264
     58  O         -5.7530   13.1940   16.5070 O.2   128  PHE128     -0.2867
     59  CB        -7.8130   12.7280   13.9670 C.3   128  PHE128      0.0534
     60  CG        -7.2040   11.3730   14.2210 C.ar  128  PHE128     -0.0203
     61  CD1       -7.9030   10.4200   14.9550 C.ar  128  PHE128     -0.0042
     62  CD2       -5.9400   11.0660   13.7520 C.ar  128  PHE128     -0.0042
     63  CE1       -7.3670    9.1500   15.2020 C.ar  128  PHE128     -0.0003
     64  CE2       -5.3770    9.8070   13.9810 C.ar  128  PHE128     -0.0003
     65  CZ        -6.0980    8.8430   14.7180 C.ar  128  PHE128     -0.0000
     66  N         -4.7850   12.5180   19.3840 N.3   132  VAL132     -0.1245
     67  CA        -3.8890   11.4140   19.7460 C.3   132  VAL132      0.1561
     68  C         -2.7680   11.8300   20.6980 C.2   132  VAL132      0.2260
     69  O         -2.0520   10.9740   21.1970 O.2   132  VAL132     -0.2867
     70  CB        -3.2420   10.7370   18.5050 C.3   132  VAL132      0.0252
     71  CG1       -4.3470   10.1570   17.6130 C.3   132  VAL132      0.0019
     72  CG2       -2.3620   11.7220   17.7220 C.3   132  VAL132      0.0019
     73  N         -8.8870    9.5160   22.2140 N.3   138  LEU138     -0.1245
     74  CA        -9.5450    8.5610   21.3170 C.3   138  LEU138      0.1561
     75  C        -10.4420    7.6200   22.1140 C.2   138  LEU138      0.2260
     76  O        -10.1930    7.3420   23.3040 O.2   138  LEU138     -0.2867
     77  CB        -8.5010    7.7260   20.5550 C.3   138  LEU138      0.0270
     78  CG        -8.0900    8.1950   19.1500 C.3   138  LEU138      0.0019
     79  CD1       -7.6830    9.6400   19.1340 C.3   138  LEU138      0.0001
     80  CD2       -6.9980    7.2770   18.5540 C.3   138  LEU138      0.0001
     81  N        -11.7700    3.7580   21.0940 N.3   140  VAL140     -0.1245
     82  CA       -11.8870    2.7390   20.0590 C.3   140  VAL140      0.1561
     83  C        -12.8460    1.6630   20.5330 C.2   140  VAL140      0.2260
     84  O        -12.6840    1.1140   21.6320 O.2   140  VAL140     -0.2867
     85  CB       -10.5310    2.1090   19.7060 C.3   140  VAL140      0.0252
     86  CG1      -10.7150    1.1520   18.5130 C.3   140  VAL140      0.0019
     87  CG2       -9.5350    3.2050   19.3510 C.3   140  VAL140      0.0019
     88  N         -2.8790    3.1500   21.1770 N.3   195  LEU195     -0.1231
     89  CA        -2.9210    2.6010   19.8270 C.3   195  LEU195      0.1693
     90  C         -2.1980    1.2730   19.8370 C.2   195  LEU195      0.2593
     91  O         -1.1670    1.1160   20.5270 O.2   195  LEU195     -0.2718
     92  CB        -2.2140    3.5480   18.8450 C.3   195  LEU195      0.0284
     93  CG        -2.7580    4.9840   18.8060 C.3   195  LEU195      0.0019
     94  CD1       -1.8570    5.8200   17.8920 C.3   195  LEU195      0.0001
     95  CD2       -4.2020    5.0320   18.3190 C.3   195  LEU195      0.0001
     96  N         -2.6670    0.3070   19.0470 N.am  196  THR196     -0.1939
     97  CA        -1.9870   -1.0020   19.0520 C.3   196  THR196      0.2028
     98  C         -0.9300   -1.1430   17.9470 C.2   196  THR196      0.2643
     99  O         -0.3460   -2.2210   17.7640 O.2   196  THR196     -0.2714
    100  CB        -2.9570   -2.1570   18.8840 C.3   196  THR196      0.1808
    101  OG1       -3.5290   -2.0580   17.5790 O.3   196  THR196     -0.2208
    102  CG2       -4.0510   -2.1340   19.9750 C.3   196  THR196      0.0379
    103  N         -0.6910   -0.0620   17.2150 N.am  197  THR197     -0.1937
    104  CA         0.4150   -0.0120   16.2550 C.3   197  THR197      0.2013
    105  C          1.2160    1.2420   16.5320 C.2   197  THR197      0.2484
    106  O          0.7300    2.1750   17.1580 O.2   197  THR197     -0.2729
    107  CB        -0.0440    0.0860   14.7670 C.3   197  THR197      0.1807
    108  OG1       -0.5120    1.4110   14.4780 O.3   197  THR197     -0.2208
    109  CG2       -1.1280   -0.9590   14.4310 C.3   197  THR197      0.0379
    110  N          2.4560    1.2800   16.0470 N.am  198  PRO198     -0.2715
    111  CA         3.1750    2.5430   16.1650 C.3   198  PRO198      0.1521
    112  C          2.3100    3.6870   15.6320 C.2   198  PRO198      0.2440
    113  O          1.5680    3.4800   14.6570 O.2   198  PRO198     -0.2731
    114  CB         4.4240    2.2940   15.2930 C.3   198  PRO198      0.0310
    115  CG         4.6680    0.8250   15.4800 C.3   198  PRO198      0.0237
    116  CD         3.2850    0.2130   15.4580 C.3   198  PRO198      0.0939
    117  N          2.3920    4.8720   16.2400 N.am  199  PRO199     -0.2727
    118  CA         3.3300    5.2620   17.3120 C.3   199  PRO199      0.1402
    119  C          2.9360    4.8340   18.7440 C.2   199  PRO199      0.2269
    120  O          3.5840    5.2930   19.6740 O.2   199  PRO199     -0.2865
    121  CB         3.3710    6.7890   17.1820 C.3   199  PRO199      0.0296
    122  CG         2.0100    7.1510   16.6630 C.3   199  PRO199      0.0237
    123  CD         1.5990    6.0180   15.7470 C.3   199  PRO199      0.0939
    124  N          0.6920    5.4980   20.8370 N.3   201  LEU201     -0.1245
    125  CA         0.3830    6.5890   21.7580 C.3   201  LEU201      0.1561
    126  C         -0.6800    6.1720   22.7670 C.2   201  LEU201      0.2260
    127  O         -1.6560    5.4980   22.4250 O.2   201  LEU201     -0.2867
    128  CB        -0.0690    7.8300   20.9740 C.3   201  LEU201      0.0270
    129  CG         1.0270    8.4140   20.0630 C.3   201  LEU201      0.0019
    130  CD1        0.4520    9.4450   19.1240 C.3   201  LEU201      0.0001
    131  CD2        2.1790    9.0010   20.9010 C.3   201  LEU201      0.0001
    132  N        -10.3580    2.2610   25.6100 N.3   206  TRP206     -0.1241
    133  CA       -10.8020    1.0520   24.9220 C.3   206  TRP206      0.1605
    134  C        -12.1560    0.6220   25.4240 C.2   206  TRP206      0.2264
    135  O        -12.3740    0.5500   26.6410 O.2   206  TRP206     -0.2867
    136  CB        -9.7780   -0.0920   25.1390 C.3   206  TRP206      0.0550
    137  CG        -8.6900    0.0350   24.1140 C.ar  206  TRP206      0.0003
    138  CD1       -7.4560    0.6060   24.2830 C.ar  206  TRP206      0.0946
    139  CD2       -8.7750   -0.3480   22.7340 C.ar  206  TRP206      0.0152
    140  NE1       -6.7730    0.6080   23.0810 N.ar  206  TRP206     -0.2442
    141  CE2       -7.5550    0.0140   22.1220 C.ar  206  TRP206      0.0810
    142  CE3       -9.7670   -0.9760   21.9570 C.ar  206  TRP206      0.0012
    143  CZ2       -7.2890   -0.2440   20.7770 C.ar  206  TRP206      0.0191
    144  CZ3       -9.5100   -1.2260   20.6160 C.ar  206  TRP206      0.0001
    145  CH2       -8.2740   -0.8610   20.0400 C.ar  206  TRP206      0.0015
@<TRIPOS>BOND
     1     4     3    2
     2     3     2    1
     3     1     2    1
     4     2     5    1
     5     5     6    1
     6     6     8   am
     7     6     7    2
     8    13    10    1
     9    13    14    1
    10    22    19    1
    11    22    23    1
    12    19    18    1
    13    19    20    1
    14    10    11    1
    15    10     9    1
    16    14    15    1
    17    20    21    2
    18    11    12    2
    19    16    15    2
    20    15    17   am
    21    23    24   ar
    22    23    25   ar
    23    24    26   ar
    24    30    29    1
    25    30    31    2
    26    28    29    1
    27    25    27   ar
    28    29    32    1
    29    26    27   ar
    30    62    64   ar
    31    62    60   ar
    32    41    40    2
    33    32    33    1
    34    34    33   ar
    35    34    36   ar
    36    59    60    1
    37    59    56    1
    38    64    65   ar
    39    33    35   ar
    40    36    37   ar
    41    60    61   ar
    42   109   107    1
    43   108   107    1
    44    35    37   ar
    45   113   112    2
    46    65    63   ar
    47    55    56    1
    48   107   104    1
    49    38    39    1
    50    54    52    1
    51    40    39    1
    52    51    50    2
    53    61    63   ar
    54    52    53    1
    55    52    49    1
    56    56    57    1
    57    48    49    1
    58   114   115    1
    59   114   111    1
    60   116   115    1
    61   116   110    1
    62    57    58    2
    63    39    42    1
    64    42    43    1
    65   112   111    1
    66   112   117   am
    67   123   117    1
    68   123   122    1
    69    49    50    1
    70   110   111    1
    71   110   105   am
    72   117   118    1
    73   104   105    1
    74   104   103    1
    75    44    43   ar
    76    44    46   ar
    77    43    45   ar
    78   105   106    2
    79   122   121    1
    80   121   118    1
    81   103    98   am
    82   118   119    1
    83    46    47   ar
    84    45    47   ar
    85   101   100    1
    86    71    70    1
    87    72    70    1
    88    99    98    2
    89    94    93    1
    90    98    97    1
    91    95    93    1
    92    70    67    1
    93    86    85    1
    94    80    78    1
    95   119   120    2
    96    93    92    1
    97    92    89    1
    98   100    97    1
    99   100   102    1
   100    96    97    1
   101    96    90   am
   102   130   129    1
   103    79    78    1
   104    78    77    1
   105    87    85    1
   106    66    67    1
   107    85    82    1
   108    67    68    1
   109    89    90    1
   110    89    88    1
   111    90    91    2
   112   145   144   ar
   113   145   143   ar
   114    82    83    1
   115    82    81    1
   116   129   131    1
   117   129   128    1
   118    83    84    2
   119    77    74    1
   120   144   142   ar
   121    68    69    2
   122   143   141   ar
   123   124   125    1
   124   128   125    1
   125    74    75    1
   126    74    73    1
   127   125   126    1
   128   142   139   ar
   129    75    76    2
   130   141   139   ar
   131   141   140   ar
   132   127   126    2
   133   139   137   ar
   134   140   138   ar
   135   137   138   ar
   136   137   136    1
   137   133   136    1
   138   133   134    1
   139   133   132    1
   140   134   135    2
