@<TRIPOS>MOLECULE
tmp/3n4cB00.pdb
 118 116 0 0 0
SMALL
GASTEIGER

@<TRIPOS>ATOM
      1  N         -0.0860   32.0900   28.9890 N.3    19  GLN19      -0.1245
      2  CA        -0.5230   30.8840   28.2320 C.3    19  GLN19       0.1566
      3  C         -1.7500   30.2110   28.8720 C.2    19  GLN19       0.2260
      4  O         -2.4890   29.4960   28.1940 O.2    19  GLN19      -0.2867
      5  CB         0.6100   29.8590   28.0670 C.3    19  GLN19       0.0367
      6  CG         0.9390   29.0790   29.2690 C.3    19  GLN19       0.0905
      7  CD         2.2020   28.2230   29.1360 C.2    19  GLN19       0.2608
      8  OE1        3.2570   28.6920   28.7180 O.2    19  GLN19      -0.2717
      9  NE2        2.1020   26.9790   29.5370 N.am   19  GLN19      -0.0878
     10  N         -0.8120   24.1240   27.3910 N.3    23  GLY23      -0.1225
     11  CA         0.6290   23.8730   27.2900 C.3    23  GLY23       0.1811
     12  C          1.2520   24.3320   25.9780 C.2    23  GLY23       0.2280
     13  O          1.8130   23.5190   25.2290 O.2    23  GLY23      -0.2866
     14  N          3.6720   26.6460   25.4780 N.3    25  CYS25      -0.1221
     15  CA         4.8980   27.4050   25.7660 C.3    25  CYS25       0.1808
     16  C          5.8400   27.3760   24.5550 C.2    25  CYS25       0.2601
     17  O          6.4740   28.3820   24.2330 O.2    25  CYS25      -0.2717
     18  CB         5.5950   26.8730   27.0410 C.3    25  CYS25       0.0970
     19  SG         6.0970   25.1060   26.8890 S.3    25  CYS25      -0.0800
     20  N          5.9210   26.1990   23.9380 N.am   26  TRP26      -0.1976
     21  CA         6.6200   25.9600   22.6660 C.3    26  TRP26       0.1640
     22  C          6.1820   26.9310   21.5360 C.2    26  TRP26       0.2290
     23  O          7.0170   27.4280   20.8220 O.2    26  TRP26      -0.2864
     24  CB         6.4150   24.5110   22.2270 C.3    26  TRP26       0.0576
     25  CG         4.9360   24.1710   21.9100 C.ar   26  TRP26       0.0006
     26  CD1        3.9710   23.8350   22.7860 C.ar   26  TRP26       0.0946
     27  CD2        4.3290   24.1560   20.6210 C.ar   26  TRP26       0.0152
     28  NE1        2.7930   23.6550   22.1450 N.ar   26  TRP26      -0.2442
     29  CE2        2.9780   23.8260   20.8050 C.ar   26  TRP26       0.0810
     30  CE3        4.7890   24.4290   19.3370 C.ar   26  TRP26       0.0012
     31  CZ2        2.0780   23.7250   19.7500 C.ar   26  TRP26       0.0191
     32  CZ3        3.8800   24.3620   18.2820 C.ar   26  TRP26       0.0001
     33  CH2        2.5490   23.9910   18.4970 C.ar   26  TRP26       0.0015
     34  N         -2.2070   22.3100   22.8960 N.3    66  CYS66      -0.1221
     35  CA        -2.1740   22.5420   24.3600 C.3    66  CYS66       0.1808
     36  C         -1.5020   21.4660   25.2140 C.2    66  CYS66       0.2601
     37  O         -1.2360   21.6970   26.3820 O.2    66  CYS66      -0.2717
     38  CB        -3.5840   22.7950   24.8900 C.3    66  CYS66       0.0970
     39  SG        -4.3420   24.3150   24.3640 S.3    66  CYS66      -0.0800
     40  N         -1.2110   20.3040   24.6410 N.am   67  ASN67      -0.1960
     41  CA        -0.4580   19.2530   25.3270 C.3    67  ASN67       0.1819
     42  C          1.0530   19.1870   24.8950 C.2    67  ASN67       0.2622
     43  O          1.7070   18.1650   25.0100 O.2    67  ASN67      -0.2715
     44  CB        -1.1600   17.8910   25.1350 C.3    67  ASN67       0.1195
     45  CG        -2.4490   17.7520   25.9660 C.2    67  ASN67       0.2630
     46  OD1       -3.5760   17.9750   25.4630 O.2    67  ASN67      -0.2716
     47  ND2       -2.2890   17.4180   27.2470 N.am   67  ASN67      -0.0877
     48  N          1.5950   20.2900   24.4060 N.am   68  GLY68      -0.1940
     49  CA         3.0350   20.3960   24.1270 C.3    68  GLY68       0.2014
     50  C          3.4210   20.2860   22.6610 C.2    68  GLY68       0.2639
     51  O          2.6030   20.0050   21.8160 O.2    68  GLY68      -0.2714
     52  N          4.7030   20.4760   22.3870 N.am   69  GLY69      -0.1939
     53  CA         5.2140   20.6310   21.0190 C.3    69  GLY69       0.2014
     54  C          6.6560   21.1190   21.0400 C.2    69  GLY69       0.2639
     55  O          7.2550   21.2390   22.1110 O.2    69  GLY69      -0.2714
     56  N          7.2040   21.3770   19.8530 N.am   70  PHE70      -0.1959
     57  CA         8.6240   21.7520   19.6760 C.3    70  PHE70       0.1771
     58  C          8.7050   23.0410   18.8940 C.2    70  PHE70       0.2619
     59  O          7.9240   23.2690   17.9810 O.2    70  PHE70      -0.2715
     60  CB         9.4180   20.7060   18.8630 C.3    70  PHE70       0.0574
     61  CG         9.2560   19.2870   19.3490 C.ar   70  PHE70      -0.0200
     62  CD1        8.2000   18.5070   18.9010 C.ar   70  PHE70      -0.0042
     63  CD2       10.1920   18.7210   20.2170 C.ar   70  PHE70      -0.0042
     64  CE1        8.0330   17.1820   19.3490 C.ar   70  PHE70      -0.0003
     65  CE2       10.0460   17.3940   20.6720 C.ar   70  PHE70      -0.0003
     66  CZ         8.9540   16.6240   20.2340 C.ar   70  PHE70      -0.0000
     67  N          9.7040   23.8470   19.2350 N.am   71  MET71      -0.1977
     68  CA         9.9390   25.0960   18.5910 C.3    71  MET71       0.1605
     69  C         10.4590   24.8780   17.1950 C.2    71  MET71       0.2287
     70  O          9.9660   25.4880   16.2710 O.2    71  MET71      -0.2864
     71  CB        10.9140   25.9440   19.4310 C.3    71  MET71       0.0413
     72  CG        10.2730   26.4820   20.6910 C.3    71  MET71       0.0598
     73  SD        10.2400   25.4170   22.1450 S.3    71  MET71      -0.1393
     74  CE        11.9700   25.4820   22.5860 C.3    71  MET71       0.0692
     75  N         14.5850   25.1700   25.6400 N.3   137  GLY137     -0.1225
     76  CA        13.8740   24.4540   26.7040 C.3   137  GLY137      0.1811
     77  C         14.6530   24.5540   28.0050 C.2   137  GLY137      0.2280
     78  O         15.8920   24.5240   28.0220 O.2   137  GLY137     -0.2866
     79  N         14.6940   18.9000   29.9870 N.3   162  VAL162     -0.1231
     80  CA        13.8780   20.0930   29.7610 C.3   162  VAL162      0.1692
     81  C         12.4330   19.7360   29.4760 C.2   162  VAL162      0.2592
     82  O         12.1240   18.7770   28.7670 O.2   162  VAL162     -0.2718
     83  CB        14.4630   21.0120   28.6400 C.3   162  VAL162      0.0266
     84  CG1       15.9190   21.2310   28.8750 C.3   162  VAL162      0.0020
     85  CG2       14.2270   20.4460   27.2030 C.3   162  VAL162      0.0020
     86  N         11.5270   20.5160   30.0380 N.am  163  ASN163     -0.1960
     87  CA        10.0920   20.2710   29.8520 C.3   163  ASN163      0.1819
     88  C          9.3030   21.5160   29.4340 C.2   163  ASN163      0.2621
     89  O          8.0960   21.4390   29.3320 O.2   163  ASN163     -0.2715
     90  CB         9.4840   19.7190   31.1630 C.3   163  ASN163      0.1195
     91  CG         9.3930   20.8020   32.2800 C.2   163  ASN163      0.2630
     92  OD1       10.2840   21.6390   32.4010 O.2   163  ASN163     -0.2716
     93  ND2        8.2880   20.7970   33.0660 N.am  163  ASN163     -0.0877
     94  N          9.9750   22.6470   29.2130 N.am  164  HIS164     -0.1959
     95  CA         9.3040   23.9390   29.1120 C.3   164  HIS164      0.1787
     96  C          9.9910   24.9010   28.1310 C.2   164  HIS164      0.2620
     97  O         11.1450   25.2680   28.3160 O.2   164  HIS164     -0.2715
     98  CB         9.2390   24.5650   30.5150 C.3   164  HIS164      0.0785
     99  CG         8.4890   25.8640   30.5780 C.ar  164  HIS164      0.0821
    100  ND1        7.1580   25.9740   30.2410 N.ar  164  HIS164     -0.2267
    101  CD2        8.8830   27.1030   30.9570 C.ar  164  HIS164      0.1154
    102  CE1        6.7720   27.2280   30.3790 C.ar  164  HIS164      0.1986
    103  NE2        7.7950   27.9340   30.8260 N.ar  164  HIS164     -0.2212
    104  N          9.2390   25.3670   27.1360 N.am  165  GLY165     -0.1954
    105  CA         9.7450   26.2380   26.0880 C.3   165  GLY165      0.1869
    106  C          9.7270   27.6960   26.5130 C.2   165  GLY165      0.2309
    107  O          8.6950   28.2270   26.8950 O.2   165  GLY165     -0.2863
    108  N         18.7170   22.4140   24.1470 N.3   211  PHE211     -0.1241
    109  CA        18.1060   22.4570   22.8140 C.3   211  PHE211      0.1605
    110  C         17.7540   23.8570   22.3060 C.2   211  PHE211      0.2264
    111  O         16.5830   24.2290   22.2410 O.2   211  PHE211     -0.2867
    112  CB        16.9120   21.5410   22.8330 C.3   211  PHE211      0.0534
    113  CG        17.2700   20.1060   23.2290 C.ar  211  PHE211     -0.0203
    114  CD1       16.7880   19.5480   24.4040 C.ar  211  PHE211     -0.0042
    115  CD2       18.0900   19.3340   22.4230 C.ar  211  PHE211     -0.0042
    116  CE1       17.1050   18.2110   24.7560 C.ar  211  PHE211     -0.0003
    117  CE2       18.4260   18.0200   22.7870 C.ar  211  PHE211     -0.0003
    118  CZ        17.9080   17.4600   23.9450 C.ar  211  PHE211     -0.0000
@<TRIPOS>BOND
     1    70    69    2
     2    69    68    1
     3    59    58    2
     4    32    33   ar
     5    32    30   ar
     6    33    31   ar
     7    68    67    1
     8    68    71    1
     9    60    61    1
    10    60    57    1
    11    58    67   am
    12    58    57    1
    13    62    61   ar
    14    62    64   ar
    15    30    27   ar
    16    61    63   ar
    17    64    66   ar
    18    71    72    1
    19    57    56    1
    20    31    29   ar
    21    56    54   am
    22    63    65   ar
    23    66    65   ar
    24    27    29   ar
    25    27    25   ar
    26    72    73    1
    27    29    28   ar
    28    23    22    2
    29    53    54    1
    30    53    52    1
    31    54    55    2
    32    22    21    1
    33    51    50    2
    34    25    24    1
    35    25    26   ar
    36    28    26   ar
    37    73    74    1
    38    24    21    1
    39   111   110    2
    40   110   109    1
    41    52    50   am
    42   115   117   ar
    43   115   113   ar
    44    50    49    1
    45    21    20    1
    46   117   118   ar
    47   109   112    1
    48   109   108    1
    49   112   113    1
    50    34    35    1
    51   113   114   ar
    52    20    16   am
    53   118   116   ar
    54    49    48    1
    55    17    16    2
    56    35    38    1
    57    35    36    1
    58    39    38    1
    59   114   116   ar
    60    48    42   am
    61    16    15    1
    62    40    36   am
    63    40    41    1
    64    42    43    2
    65    42    41    1
    66    44    41    1
    67    44    45    1
    68    36    37    2
    69    13    12    2
    70    46    45    2
    71    14    15    1
    72    75    76    1
    73    15    18    1
    74    45    47   am
    75    12    11    1
    76   105   106    1
    77   105   104    1
    78   106   107    2
    79    76    77    1
    80    19    18    1
    81   104    96   am
    82    85    83    1
    83    11    10    1
    84    77    78    2
    85     5     2    1
    86     5     6    1
    87    96    97    2
    88    96    95    1
    89     4     3    2
    90     2     3    1
    91     2     1    1
    92    83    84    1
    93    83    80    1
    94     8     7    2
    95    82    81    2
    96    95    94    1
    97    95    98    1
    98     7     6    1
    99     7     9   am
   100    94    88   am
   101    89    88    2
   102    88    87    1
   103    81    80    1
   104    81    86   am
   105    80    79    1
   106    87    86    1
   107    87    90    1
   108   100   102   ar
   109   100    99   ar
   110   102   103   ar
   111    98    99    1
   112    99   101   ar
   113   103   101   ar
   114    90    91    1
   115    91    92    2
   116    91    93   am
