@<TRIPOS>MOLECULE
tmp/3n4cA00.pdb
 141 138 0 0 0
SMALL
GASTEIGER

@<TRIPOS>ATOM
      1  N         20.0650   -5.3540   20.9990 N.3    19  GLN19      -0.1245
      2  CA        20.0060   -4.5120   22.2000 C.3    19  GLN19       0.1566
      3  C         19.4070   -5.2290   23.4200 C.2    19  GLN19       0.2260
      4  O         19.6960   -4.8800   24.5920 O.2    19  GLN19      -0.2867
      5  CB        19.2700   -3.2020   21.9130 C.3    19  GLN19       0.0367
      6  CG        17.7770   -3.3100   21.7400 C.3    19  GLN19       0.0905
      7  CD        17.1660   -1.9920   21.2800 C.2    19  GLN19       0.2608
      8  OE1       17.5930   -1.4200   20.2870 O.2    19  GLN19      -0.2717
      9  NE2       16.1260   -1.5320   21.9820 N.am   19  GLN19      -0.0878
     10  N         16.7710   -0.4990   26.3810 N.3    23  GLY23      -0.1225
     11  CA        16.3420    0.4730   25.3640 C.3    23  GLY23       0.1811
     12  C         17.4860    1.3640   24.8890 C.2    23  GLY23       0.2280
     13  O         17.4220    2.5860   25.0090 O.2    23  GLY23      -0.2866
     14  N         18.5680    1.7130   21.7820 N.3    25  CYS25      -0.1221
     15  CA        18.4640    1.9150   20.3240 C.3    25  CYS25       0.1808
     16  C         19.2110    3.1520   19.8600 C.2    25  CYS25       0.2601
     17  O         19.8790    3.1430   18.8440 O.2    25  CYS25      -0.2717
     18  CB        16.9940    2.0070   19.8520 C.3    25  CYS25       0.0970
     19  SG        16.0210    3.4100   20.5860 S.3    25  CYS25      -0.0800
     20  N         19.0280    4.2310   20.6180 N.am   26  TRP26      -0.1976
     21  CA        19.6400    5.5490   20.3580 C.3    26  TRP26       0.1640
     22  C         21.1660    5.4800   20.3910 C.2    26  TRP26       0.2290
     23  O         21.8380    6.1990   19.6790 O.2    26  TRP26      -0.2864
     24  CB        19.1480    6.5530   21.4230 C.3    26  TRP26       0.0576
     25  CG        19.5080    6.1410   22.8740 C.ar   26  TRP26       0.0006
     26  CD1       18.8200    5.2770   23.6740 C.ar   26  TRP26       0.0946
     27  CD2       20.6570    6.5630   23.6480 C.ar   26  TRP26       0.0152
     28  NE1       19.4580    5.1430   24.8910 N.ar   26  TRP26      -0.2442
     29  CE2       20.5930    5.9070   24.8860 C.ar   26  TRP26       0.0810
     30  CE3       21.7250    7.4410   23.4050 C.ar   26  TRP26       0.0012
     31  CZ2       21.5520    6.1060   25.8920 C.ar   26  TRP26       0.0191
     32  CZ3       22.6550    7.6310   24.3820 C.ar   26  TRP26       0.0001
     33  CH2       22.5680    6.9690   25.6190 C.ar   26  TRP26       0.0015
     34  N         19.0540    2.6980   29.5240 N.3    66  CYS66      -0.1221
     35  CA        18.1770    1.6320   29.0090 C.3    66  CYS66       0.1808
     36  C         16.7280    2.0390   28.9340 C.2    66  CYS66       0.2601
     37  O         15.9150    1.2340   28.5010 O.2    66  CYS66      -0.2717
     38  CB        18.2590    0.3410   29.8290 C.3    66  CYS66       0.0970
     39  SG        19.8390   -0.5220   29.6920 S.3    66  CYS66      -0.0800
     40  N         16.3980    3.2560   29.3380 N.am   67  ASN67      -0.1960
     41  CA        15.0480    3.8190   29.0950 C.3    67  ASN67       0.1819
     42  C         15.0400    4.9560   28.0700 C.2    67  ASN67       0.2622
     43  O         14.1590    5.8120   28.0760 O.2    67  ASN67      -0.2715
     44  CB        14.4250    4.3060   30.4060 C.3    67  ASN67       0.1195
     45  CG        14.3550    3.2320   31.4370 C.2    67  ASN67       0.2630
     46  OD1       14.9640    3.3390   32.5090 O.2    67  ASN67      -0.2716
     47  ND2       13.6300    2.1750   31.1370 N.am   67  ASN67      -0.0877
     48  N         16.0350    4.9720   27.2040 N.am   68  GLY68      -0.1940
     49  CA        16.0220    5.8430   26.0190 C.3    68  GLY68       0.2014
     50  C         16.9370    7.0410   26.0690 C.2    68  GLY68       0.2639
     51  O         17.4590    7.3770   27.0900 O.2    68  GLY68      -0.2714
     52  N         17.0960    7.7080   24.9350 N.am   69  GLY69      -0.1939
     53  CA        18.0290    8.8370   24.8090 C.3    69  GLY69       0.2014
     54  C         18.0860    9.3440   23.3850 C.2    69  GLY69       0.2639
     55  O         17.2580    8.9410   22.5550 O.2    69  GLY69      -0.2714
     56  N         19.0540   10.2260   23.1120 N.am   70  PHE70      -0.1959
     57  CA        19.1170   10.9940   21.8550 C.3    70  PHE70       0.1771
     58  C         20.4610   10.7800   21.1830 C.2    70  PHE70       0.2619
     59  O         21.4980   10.8130   21.8410 O.2    70  PHE70      -0.2715
     60  CB        18.9300   12.5210   22.0860 C.3    70  PHE70       0.0574
     61  CG        17.7470   12.8800   22.9590 C.ar   70  PHE70      -0.0200
     62  CD1       17.9300   13.2600   24.2740 C.ar   70  PHE70      -0.0042
     63  CD2       16.4500   12.8350   22.4580 C.ar   70  PHE70      -0.0042
     64  CE1       16.8390   13.5490   25.0990 C.ar   70  PHE70      -0.0003
     65  CE2       15.3430   13.1610   23.2720 C.ar   70  PHE70      -0.0003
     66  CZ        15.5390   13.4990   24.5840 C.ar   70  PHE70      -0.0000
     67  N         20.4360   10.5660   19.8730 N.am   71  MET71      -0.1963
     68  CA        21.6500   10.4290   19.0750 C.3    71  MET71       0.1736
     69  C         22.4490   11.7040   19.0720 C.2    71  MET71       0.2617
     70  O         23.6570   11.6660   19.1880 O.2    71  MET71      -0.2715
     71  CB        21.3110   10.0280   17.6360 C.3    71  MET71       0.0427
     72  CG        20.7930    8.5880   17.4940 C.3    71  MET71       0.0599
     73  SD        19.0690    8.3730   17.9030 S.3    71  MET71      -0.1393
     74  CE        18.3230    9.1420   16.4400 C.3    71  MET71       0.0692
     75  N         21.7800   12.8410   18.9530 N.am   72  THR72      -0.1937
     76  CA        22.4580   14.1370   18.9240 C.3    72  THR72       0.2028
     77  C         23.2440   14.4150   20.1990 C.2    72  THR72       0.2642
     78  O         24.3830   14.8720   20.1450 O.2    72  THR72      -0.2714
     79  CB        21.4430   15.3050   18.7160 C.3    72  THR72       0.1808
     80  OG1       20.3190   15.0940   19.5760 O.3    72  THR72      -0.2208
     81  CG2       21.0120   15.4150   17.2350 C.3    72  THR72       0.0379
     82  N         22.6190   14.1820   21.3510 N.am   73  THR73      -0.1950
     83  CA        23.2950   14.3660   22.6330 C.3    73  THR73       0.1897
     84  C         24.3810   13.2820   22.8620 C.2    73  THR73       0.2313
     85  O         25.3990   13.5710   23.4540 O.2    73  THR73      -0.2863
     86  CB        22.3380   14.4490   23.8090 C.3    73  THR73       0.1794
     87  OG1       21.8910   13.1450   24.1920 O.3    73  THR73      -0.2208
     88  CG2       21.1500   15.3590   23.4960 C.3    73  THR73       0.0378
     89  N         22.2230   18.4380   12.3310 N.3   115  GLU115     -0.1245
     90  CA        20.8150   18.0480   12.4560 C.3   115  GLU115      0.1567
     91  C         20.0730   18.5710   11.2320 C.2   115  GLU115      0.2260
     92  O         20.1550   19.7610   10.9250 O.2   115  GLU115     -0.2867
     93  CB        20.1950   18.6140   13.7330 C.3   115  GLU115      0.0388
     94  CG        20.8820   18.1360   15.0420 C.3   115  GLU115      0.1160
     95  CD        20.2340   18.7300   16.3240 C.2   115  GLU115      0.3649
     96  OE1       19.0850   18.3290   16.6710 O.co2 115  GLU115     -0.2457
     97  OE2       20.8590   19.6280   16.9530 O.co2 115  GLU115     -0.2457
     98  N         15.1780    9.0370   14.0850 N.3   137  GLY137     -0.1225
     99  CA        14.1200    8.5150   14.9040 C.3   137  GLY137      0.1811
    100  C         12.9960    8.1140   14.0030 C.2   137  GLY137      0.2280
    101  O         12.7320    8.7650   12.9570 O.2   137  GLY137     -0.2866
    102  N          8.3630   10.2790   16.9420 N.3   162  VAL162     -0.1231
    103  CA         9.4030    9.2660   16.9100 C.3   162  VAL162      0.1692
    104  C          9.7350    8.7790   18.3270 C.2   162  VAL162      0.2592
    105  O          9.6450    9.5110   19.3040 O.2   162  VAL162     -0.2718
    106  CB        10.6480    9.7730   16.1170 C.3   162  VAL162      0.0266
    107  CG1       10.2290   10.1590   14.6870 C.3   162  VAL162      0.0020
    108  CG2       11.3070   10.9360   16.8000 C.3   162  VAL162      0.0020
    109  N         10.0940    7.5130   18.4330 N.am  163  ASN163     -0.1960
    110  CA        10.3260    6.8950   19.7570 C.3   163  ASN163      0.1819
    111  C         11.3450    5.7750   19.7160 C.2   163  ASN163      0.2621
    112  O         11.5440    5.0830   20.7070 O.2   163  ASN163     -0.2715
    113  CB         8.9780    6.3360   20.2480 C.3   163  ASN163      0.1195
    114  CG         8.2710    5.5590   19.1680 C.2   163  ASN163      0.2630
    115  OD1        8.8160    4.5950   18.6530 O.2   163  ASN163     -0.2716
    116  ND2        7.0660    6.0180   18.7610 N.am  163  ASN163     -0.0877
    117  N         11.9690    5.5760   18.5580 N.am  164  HIS164     -0.1959
    118  CA        12.9600    4.5210   18.3790 C.3   164  HIS164      0.1787
    119  C         14.0600    5.0200   17.4400 C.2   164  HIS164      0.2620
    120  O         13.7670    5.5140   16.3660 O.2   164  HIS164     -0.2715
    121  CB        12.2770    3.2930   17.8110 C.3   164  HIS164      0.0785
    122  CG        13.1920    2.1280   17.5910 C.ar  164  HIS164      0.0821
    123  ND1       13.7650    1.4310   18.6260 N.ar  164  HIS164     -0.2267
    124  CD2       13.5860    1.5100   16.4550 C.ar  164  HIS164      0.1154
    125  CE1       14.5050    0.4540   18.1380 C.ar  164  HIS164      0.1986
    126  NE2       14.4240    0.4870   16.8190 N.ar  164  HIS164     -0.2212
    127  N         15.3100    4.9110   17.8790 N.am  165  GLY165     -0.1954
    128  CA        16.4940    5.3690   17.1200 C.3   165  GLY165      0.1869
    129  C         17.0010    4.2850   16.2140 C.2   165  GLY165      0.2309
    130  O         17.2160    3.1810   16.6660 O.2   165  GLY165     -0.2863
    131  N         13.7240   13.7550   12.7240 N.3   211  PHE211     -0.1241
    132  CA        14.9110   14.1590   13.4680 C.3   211  PHE211      0.1605
    133  C         16.1420   13.3830   13.0140 C.2   211  PHE211      0.2264
    134  O         16.6180   12.4560   13.6670 O.2   211  PHE211     -0.2867
    135  CB        14.6610   14.0550   14.9690 C.3   211  PHE211      0.0534
    136  CG        13.4520   14.8390   15.4250 C.ar  211  PHE211     -0.0203
    137  CD1       13.5030   16.2190   15.5230 C.ar  211  PHE211     -0.0042
    138  CD2       12.2620   14.1940   15.7530 C.ar  211  PHE211     -0.0042
    139  CE1       12.3930   16.9300   15.9500 C.ar  211  PHE211     -0.0003
    140  CE2       11.1530   14.9110   16.1720 C.ar  211  PHE211     -0.0003
    141  CZ        11.2230   16.2720   16.2690 C.ar  211  PHE211     -0.0000
@<TRIPOS>BOND
     1    92    91    2
     2    91    90    1
     3    89    90    1
     4    90    93    1
     5   131   132    1
     6   101   100    2
     7   133   132    1
     8   133   134    2
     9   132   135    1
    10    93    94    1
    11   100    99    1
    12    98    99    1
    13   107   106    1
    14   135   136    1
    15    94    95    1
    16   136   137   ar
    17   136   138   ar
    18   137   139   ar
    19   138   140   ar
    20   139   141   ar
    21   106   108    1
    22   106   103    1
    23   140   141   ar
    24   129   130    2
    25   129   128    1
    26    95    96   ar
    27    95    97   ar
    28   120   119    2
    29    74    73    1
    30   124   126   ar
    31   124   122   ar
    32   126   125   ar
    33   103   102    1
    34   103   104    1
    35   128   127    1
    36    81    79    1
    37   119   127   am
    38   119   118    1
    39    72    71    1
    40    72    73    1
    41   122   121    1
    42   122   123   ar
    43    71    68    1
    44   121   118    1
    45   125   123   ar
    46   104   109   am
    47   104   105    2
    48   118   117    1
    49   109   110    1
    50   117   111   am
    51   115   114    2
    52    79    76    1
    53    79    80    1
    54   116   114   am
    55    17    16    2
    56    76    75    1
    57    76    77    1
    58    75    69   am
    59    69    68    1
    60    69    70    2
    61    68    67    1
    62   114   113    1
    63    23    22    2
    64   111   110    1
    65   111   112    2
    66   110   113    1
    67    18    15    1
    68    18    19    1
    69    16    15    1
    70    16    20   am
    71    67    58   am
    72    78    77    2
    73    77    82   am
    74     8     7    2
    75    15    14    1
    76    21    22    1
    77    21    20    1
    78    21    24    1
    79     1     2    1
    80    58    59    2
    81    58    57    1
    82     7     6    1
    83     7     9   am
    84    82    83    1
    85    24    25    1
    86     6     5    1
    87    57    60    1
    88    57    56    1
    89     5     2    1
    90    60    61    1
    91     2     3    1
    92    63    61   ar
    93    63    65   ar
    94    55    54    2
    95    83    84    1
    96    83    86    1
    97    84    85    2
    98    25    27   ar
    99    25    26   ar
   100    61    62   ar
   101    56    54   am
   102    65    66   ar
   103    54    53    1
   104    30    27   ar
   105    30    32   ar
   106     3     4    2
   107    88    86    1
   108    27    29   ar
   109    26    28   ar
   110    86    87    1
   111    62    64   ar
   112    32    33   ar
   113    66    64   ar
   114    53    52    1
   115    29    28   ar
   116    29    31   ar
   117    12    13    2
   118    12    11    1
   119    52    50   am
   120    11    10    1
   121    33    31   ar
   122    49    50    1
   123    49    48    1
   124    50    51    2
   125    48    42   am
   126    42    43    2
   127    42    41    1
   128    37    36    2
   129    36    35    1
   130    36    40   am
   131    35    34    1
   132    35    38    1
   133    41    40    1
   134    41    44    1
   135    39    38    1
   136    44    45    1
   137    47    45   am
   138    45    46    2
