@<TRIPOS>MOLECULE
tmp/3n4kA00.pdb
 145 140 0 0 0
SMALL
GASTEIGER

@<TRIPOS>ATOM
      1  N        -20.4450  -12.6370  -23.1960 N.3    85  LEU85      -0.1231
      2  CA       -19.3380  -12.4090  -22.2720 C.3    85  LEU85       0.1693
      3  C        -19.9420  -11.8430  -21.0210 C.2    85  LEU85       0.2593
      4  O        -20.6270  -10.8190  -21.0550 O.2    85  LEU85      -0.2718
      5  CB       -18.2610  -11.5030  -22.8910 C.3    85  LEU85       0.0284
      6  CG       -17.2970  -12.1920  -23.8270 C.3    85  LEU85       0.0019
      7  CD1      -16.2490  -12.9090  -22.8870 C.3    85  LEU85       0.0001
      8  CD2      -18.0010  -13.1670  -24.7790 C.3    85  LEU85       0.0001
      9  N        -19.7670  -12.5250  -19.9000 N.am   86  THR86      -0.1939
     10  CA       -20.3430  -12.0910  -18.6730 C.3    86  THR86       0.2028
     11  C        -19.5620  -12.6090  -17.4650 C.2    86  THR86       0.2642
     12  O        -19.1650  -13.7660  -17.4360 O.2    86  THR86      -0.2714
     13  CB       -21.8580  -12.5320  -18.5360 C.3    86  THR86       0.1808
     14  OG1      -22.3360  -12.2160  -17.2290 O.3    86  THR86      -0.2208
     15  CG2      -22.0960  -14.0700  -18.7880 C.3    86  THR86       0.0379
     16  N        -19.4820  -11.7730  -16.4230 N.am   87  THR87      -0.1950
     17  CA       -18.8410  -12.1740  -15.1520 C.3    87  THR87       0.1897
     18  C        -19.6370  -13.3350  -14.5320 C.2    87  THR87       0.2313
     19  O        -19.1370  -14.1070  -13.6950 O.2    87  THR87      -0.2863
     20  CB       -18.7650  -11.0170  -14.1520 C.3    87  THR87       0.1794
     21  OG1      -20.0880  -10.6200  -13.8410 O.3    87  THR87      -0.2208
     22  CG2      -18.0030   -9.8410  -14.6800 C.3    87  THR87       0.0378
     23  N        -21.4350   -8.4580  -25.7620 N.3   106  PHE106     -0.1227
     24  CA       -21.0320   -7.7470  -24.5500 C.3   106  PHE106      0.1736
     25  C        -22.1190   -6.8150  -24.0370 C.2   106  PHE106      0.2596
     26  O        -22.7850   -6.1780  -24.7960 O.2   106  PHE106     -0.2718
     27  CB       -19.7470   -6.9410  -24.7880 C.3   106  PHE106      0.0547
     28  CG       -18.5900   -7.7680  -25.2750 C.ar  106  PHE106     -0.0202
     29  CD1      -17.5850   -8.1380  -24.4080 C.ar  106  PHE106     -0.0042
     30  CD2      -18.5110   -8.1610  -26.6290 C.ar  106  PHE106     -0.0042
     31  CE1      -16.5210   -8.8880  -24.8570 C.ar  106  PHE106     -0.0003
     32  CE2      -17.4780   -8.9160  -27.0640 C.ar  106  PHE106     -0.0003
     33  CZ       -16.4770   -9.2830  -26.1640 C.ar  106  PHE106     -0.0000
     34  N        -22.2560   -6.7260  -22.7260 N.am  107  GLY107     -0.1943
     35  CA       -23.2230   -5.8340  -22.1130 C.3   107  GLY107      0.1998
     36  C        -22.7560   -4.3980  -21.8890 C.2   107  GLY107      0.2481
     37  O        -21.5480   -4.0710  -22.0430 O.2   107  GLY107     -0.2729
     38  N        -23.6930   -3.5660  -21.4210 N.am  108  PRO108     -0.2715
     39  CA       -23.4410   -2.1600  -21.1120 C.3   108  PRO108      0.1536
     40  C        -22.6640   -2.0370  -19.8430 C.2   108  PRO108      0.2598
     41  O        -22.7860   -2.8970  -18.9370 O.2   108  PRO108     -0.2715
     42  CB       -24.8280   -1.5610  -20.9290 C.3   108  PRO108      0.0310
     43  CG       -25.7820   -2.7430  -20.7510 C.3   108  PRO108      0.0237
     44  CD       -25.1350   -3.8740  -21.4790 C.3   108  PRO108      0.0939
     45  N        -21.9180   -0.9500  -19.7650 N.am  109  GLU109     -0.1964
     46  CA       -20.9010   -0.7530  -18.7300 C.3   109  GLU109      0.1733
     47  C        -21.4850   -0.7580  -17.3130 C.2   109  GLU109      0.2617
     48  O        -20.8590   -1.2750  -16.4000 O.2   109  GLU109     -0.2715
     49  CB       -20.1460    0.5650  -18.9560 C.3   109  GLU109      0.0429
     50  CG       -19.1710    0.5380  -20.1560 C.3   109  GLU109      0.1163
     51  CD       -19.7940    0.9970  -21.4450 C.2   109  GLU109      0.3649
     52  OE1      -21.0120    0.7720  -21.6270 O.co2 109  GLU109     -0.2457
     53  OE2      -19.0740    1.5790  -22.3070 O.co2 109  GLU109     -0.2457
     54  N        -22.6750   -0.2260  -17.1530 N.am  110  THR110     -0.1937
     55  CA       -23.3220   -0.1320  -15.8230 C.3   110  THR110      0.2028
     56  C        -24.0850   -1.3940  -15.4770 C.2   110  THR110      0.2642
     57  O        -23.9190   -1.9600  -14.4010 O.2   110  THR110     -0.2714
     58  CB       -24.3160    1.0190  -15.7400 C.3   110  THR110      0.1808
     59  OG1      -23.6500    2.2500  -16.0100 O.3   110  THR110     -0.2208
     60  CG2      -24.9670    1.0830  -14.3150 C.3   110  THR110      0.0379
     61  N        -24.9250   -1.8620  -16.3860 N.am  111  ARG111     -0.1963
     62  CA       -25.9150   -2.9010  -16.0340 C.3   111  ARG111      0.1729
     63  C        -25.4600   -4.3230  -16.3460 C.2   111  ARG111      0.2617
     64  O        -25.9640   -5.2660  -15.7610 O.2   111  ARG111     -0.2715
     65  CB       -27.2430   -2.6290  -16.8010 C.3   111  ARG111      0.0348
     66  CG       -27.9310   -1.2580  -16.5570 C.3   111  ARG111      0.0492
     67  CD       -28.6830   -0.7610  -17.8640 C.3   111  ARG111      0.2205
     68  NE       -27.8460    0.0390  -18.8160 N.pl3 111  ARG111     -0.0865
     69  CZ       -28.0990    0.1770  -20.1360 C.cat 111  ARG111      0.5346
     70  NH1      -27.3240    0.9270  -20.9450 N.pl3 111  ARG111      0.1354
     71  NH2      -29.1090   -0.4610  -20.6720 N.pl3 111  ARG111      0.1354
     72  N        -24.5460   -4.4890  -17.2970 N.am  112  GLY112     -0.1940
     73  CA       -24.3060   -5.7840  -17.9330 C.3   112  GLY112      0.2014
     74  C        -25.5490   -6.2860  -18.7080 C.2   112  GLY112      0.2638
     75  O        -26.5130   -5.5660  -18.8810 O.2   112  GLY112     -0.2714
     76  N        -25.4620   -7.5060  -19.2290 N.am  113  LEU113     -0.1977
     77  CA       -26.5000   -8.0510  -20.0850 C.3   113  LEU113      0.1596
     78  C        -27.7810   -8.3770  -19.3290 C.2   113  LEU113      0.2287
     79  O        -27.7520   -8.8310  -18.1840 O.2   113  LEU113     -0.2864
     80  CB       -25.9910   -9.2770  -20.8400 C.3   113  LEU113      0.0297
     81  CG       -24.9780   -8.9950  -21.9640 C.3   113  LEU113      0.0022
     82  CD1      -24.2440  -10.3350  -22.3390 C.3   113  LEU113      0.0001
     83  CD2      -25.6730   -8.3600  -23.2060 C.3   113  LEU113      0.0001
     84  N        -19.4610  -16.8850  -21.2500 N.3   127  ILE127     -0.1231
     85  CA       -18.0200  -16.8920  -21.0680 C.3   127  ILE127      0.1692
     86  C        -17.6040  -15.8680  -20.0220 C.2   127  ILE127      0.2592
     87  O        -17.9420  -14.6910  -20.1330 O.2   127  ILE127     -0.2718
     88  CB       -17.3160  -16.5400  -22.3860 C.3   127  ILE127      0.0266
     89  CG1      -17.6900  -17.5260  -23.4660 C.3   127  ILE127      0.0019
     90  CG2      -15.8060  -16.5310  -22.2510 C.3   127  ILE127      0.0020
     91  CD1      -17.0580  -17.0890  -24.8370 C.3   127  ILE127      0.0001
     92  N        -16.8600  -16.3150  -19.0250 N.am  128  ARG128     -0.1966
     93  CA       -16.2900  -15.4670  -17.9980 C.3   128  ARG128      0.1729
     94  C        -14.7700  -15.3680  -18.1780 C.2   128  ARG128      0.2616
     95  O        -14.0170  -16.3610  -18.0690 O.2   128  ARG128     -0.2715
     96  CB       -16.5970  -16.0060  -16.5960 C.3   128  ARG128      0.0348
     97  CG       -15.9300  -15.2380  -15.4180 C.3   128  ARG128      0.0492
     98  CD       -16.1900  -15.9220  -14.0820 C.3   128  ARG128      0.2205
     99  NE       -15.2450  -15.4870  -13.0500 N.pl3 128  ARG128     -0.0865
    100  CZ       -15.3950  -14.4390  -12.2480 C.cat 128  ARG128      0.5346
    101  NH1      -14.4220  -14.1440  -11.3860 N.pl3 128  ARG128      0.1354
    102  NH2      -16.5010  -13.6930  -12.2750 N.pl3 128  ARG128      0.1354
    103  N        -14.3070  -14.1730  -18.4050 N.am  129  ILE129     -0.1977
    104  CA       -12.8670  -13.8720  -18.3970 C.3   129  ILE129      0.1596
    105  C        -12.4610  -13.9500  -16.9420 C.2   129  ILE129      0.2287
    106  O        -13.0630  -13.3180  -16.0500 O.2   129  ILE129     -0.2864
    107  CB       -12.5370  -12.4870  -19.0180 C.3   129  ILE129      0.0276
    108  CG1      -13.1010  -12.3910  -20.4650 C.3   129  ILE129      0.0022
    109  CG2      -11.0450  -12.2290  -18.9280 C.3   129  ILE129      0.0022
    110  CD1      -13.1650  -10.9400  -21.1420 C.3   129  ILE129      0.0001
    111  N        -10.9670  -13.5920  -13.2340 N.3   131  MET131     -0.1245
    112  CA       -10.6320  -12.4740  -12.3440 C.3   131  MET131      0.1570
    113  C        -10.4550  -13.0450  -10.9600 C.2   131  MET131      0.2261
    114  O        -11.0500  -14.1020  -10.6330 O.2   131  MET131     -0.2867
    115  CB       -11.7150  -11.4010  -12.2710 C.3   131  MET131      0.0387
    116  CG       -12.0080  -10.7530  -13.5890 C.3   131  MET131      0.0595
    117  SD       -13.2990   -9.5060  -13.4060 S.3   131  MET131     -0.1393
    118  CE       -14.6610  -10.4500  -12.6360 C.3   131  MET131      0.0692
    119  N        -15.6060   -6.0810  -12.1460 N.3   137  SER137     -0.1202
    120  CA       -15.6340   -6.3840  -13.5680 C.3   137  SER137      0.2020
    121  C        -14.5000   -5.6950  -14.3270 C.2   137  SER137      0.2618
    122  O        -13.8890   -4.7610  -13.8450 O.2   137  SER137     -0.2717
    123  CB       -16.9720   -5.9250  -14.1710 C.3   137  SER137      0.2103
    124  OG       -17.0960   -4.5220  -14.0800 O.3   137  SER137     -0.2182
    125  N        -14.2650   -6.1460  -15.5470 N.am  138  MET138     -0.1979
    126  CA       -13.2610   -5.5290  -16.3980 C.3   138  MET138      0.1605
    127  C        -13.8190   -4.2180  -17.0380 C.2   138  MET138      0.2287
    128  O        -15.0100   -4.0920  -17.1870 O.2   138  MET138     -0.2864
    129  CB       -12.9680   -6.5110  -17.5300 C.3   138  MET138      0.0413
    130  CG       -12.4850   -7.8280  -17.0400 C.3   138  MET138      0.0598
    131  SD       -11.9550   -8.8770  -18.3640 S.3   138  MET138     -0.1393
    132  CE       -10.6360   -7.8530  -18.9830 C.3   138  MET138      0.0692
    133  N        -14.9070   -2.4650  -20.2730 N.3   140  LEU140     -0.1245
    134  CA       -15.5320   -3.0990  -21.4280 C.3   140  LEU140      0.1561
    135  C        -14.5820   -3.2470  -22.6130 C.2   140  LEU140      0.2260
    136  O        -14.5160   -4.3380  -23.2290 O.2   140  LEU140     -0.2867
    137  CB       -16.7360   -2.2680  -21.8920 C.3   140  LEU140      0.0270
    138  CG       -17.4050   -2.7240  -23.2050 C.3   140  LEU140      0.0019
    139  CD1      -17.9500   -4.2180  -23.2140 C.3   140  LEU140      0.0001
    140  CD2      -18.4900   -1.6930  -23.5390 C.3   140  LEU140      0.0001
    141  N        -12.1310   -5.9400  -21.9550 N.3   143  ALA143     -0.1245
    142  CA       -12.7590   -7.2540  -22.1010 C.3   143  ALA143      0.1562
    143  C        -12.8350   -7.6810  -23.5370 C.2   143  ALA143      0.2260
    144  O        -12.4580   -8.8220  -23.8830 O.2   143  ALA143     -0.2867
    145  CB       -14.1190   -7.2860  -21.4500 C.3   143  ALA143      0.0290
@<TRIPOS>BOND
     1    32    30   ar
     2    32    33   ar
     3    30    28   ar
     4    33    31   ar
     5    23    24    1
     6    28    27    1
     7    28    29   ar
     8    31    29   ar
     9    91    89    1
    10    26    25    2
    11    27    24    1
    12     8     6    1
    13    24    25    1
    14    25    34   am
    15   144   143    2
    16     6     5    1
    17     6     7    1
    18   140   138    1
    19   143   142    1
    20    89    88    1
    21   136   135    2
    22   139   138    1
    23    83    81    1
    24   138   137    1
    25     1     2    1
    26     5     2    1
    27    34    35    1
    28   135   134    1
    29    88    90    1
    30    88    85    1
    31    82    81    1
    32    53    51   ar
    33     2     3    1
    34    35    36    1
    35   142   141    1
    36   142   145    1
    37    37    36    2
    38    81    80    1
    39   137   134    1
    40    36    38   am
    41    52    51   ar
    42    44    38    1
    43    44    43    1
    44    51    50    1
    45   134   133    1
    46    38    39    1
    47    84    85    1
    48   110   108    1
    49    39    42    1
    50    39    40    1
    51    85    86    1
    52     4     3    2
    53     3     9   am
    54    70    69    1
    55    42    43    1
    56    80    77    1
    57    71    69    1
    58   108   107    1
    59    50    49    1
    60    69    68    2
    61    87    86    2
    62    77    78    1
    63    77    76    1
    64    86    92   am
    65     9    10    1
    66    40    45   am
    67    40    41    2
    68    45    46    1
    69    78    79    2
    70    76    74   am
    71    92    93    1
    72   107   109    1
    73   107   104    1
    74   132   131    1
    75    49    46    1
    76    75    74    2
    77    68    67    1
    78    15    13    1
    79    46    47    1
    80    74    73    1
    81    10    13    1
    82    10    11    1
    83    13    14    1
    84   103   104    1
    85   103    94   am
    86   104   105    1
    87   131   130    1
    88    94    95    2
    89    94    93    1
    90    93    96    1
    91    73    72    1
    92    67    66    1
    93   129   130    1
    94   129   126    1
    95    11    12    2
    96    11    16   am
    97    47    54   am
    98    47    48    2
    99    72    63   am
   100   128   127    2
   101    54    55    1
   102   127   126    1
   103   105   106    2
   104    65    66    1
   105    65    62    1
   106    96    97    1
   107    16    17    1
   108   126   125    1
   109    61    62    1
   110    61    56   am
   111    63    62    1
   112    63    64    2
   113    59    58    1
   114    55    58    1
   115    55    56    1
   116    58    60    1
   117   125   121   am
   118    56    57    2
   119    97    98    1
   120    17    18    1
   121    17    20    1
   122    22    20    1
   123    18    19    2
   124   121   122    2
   125   121   120    1
   126   123   124    1
   127   123   120    1
   128    20    21    1
   129    98    99    1
   130   116   117    1
   131   116   115    1
   132   120   119    1
   133   117   118    1
   134   111   112    1
   135    99   100    2
   136   112   115    1
   137   112   113    1
   138   102   100    1
   139   100   101    1
   140   113   114    2
