@<TRIPOS>MOLECULE
tmp/3n4rC01.pdb
 91 89 0 0 0
SMALL
GASTEIGER

@<TRIPOS>ATOM
      1  N         15.1220  -25.8650   27.5420 N.3    12  GLU12      -0.1231
      2  CA        13.9910  -26.6610   27.0960 C.3    12  GLU12       0.1699
      3  C         12.7600  -26.4160   27.9550 C.2    12  GLU12       0.2592
      4  O         11.6940  -26.0760   27.4470 O.2    12  GLU12      -0.2718
      5  CB        14.3400  -28.1430   27.1300 C.3    12  GLU12       0.0402
      6  CG        13.4500  -28.9780   26.2470 C.3    12  GLU12       0.1161
      7  CD        13.2610  -30.3810   26.7760 C.2    12  GLU12       0.3649
      8  OE1       12.5160  -30.5450   27.7680 O.co2  12  GLU12      -0.2457
      9  OE2       13.8450  -31.3190   26.1930 O.co2  12  GLU12      -0.2457
     10  N         12.9140  -26.5990   29.2610 N.am   13  TYR13      -0.1976
     11  CA        11.8070  -26.4120   30.1900 C.3    13  TYR13       0.1639
     12  C         11.4050  -24.9470   30.3080 C.2    13  TYR13       0.2290
     13  O         10.2370  -24.6270   30.5260 O.2    13  TYR13      -0.2864
     14  CB        12.1640  -26.9710   31.5690 C.3    13  TYR13       0.0560
     15  CG        11.8070  -28.4260   31.7450 C.ar   13  TYR13      -0.0198
     16  CD1       12.7890  -29.4070   31.7790 C.ar   13  TYR13      -0.0009
     17  CD2       10.4820  -28.8180   31.8770 C.ar   13  TYR13      -0.0009
     18  CE1       12.4620  -30.7370   31.9390 C.ar   13  TYR13       0.0417
     19  CE2       10.1430  -30.1440   32.0350 C.ar   13  TYR13       0.0417
     20  CZ        11.1370  -31.1010   32.0660 C.ar   13  TYR13       0.1957
     21  OH        10.8030  -32.4250   32.2270 O.3    13  TYR13      -0.2866
     22  N         10.6690  -24.0770   26.0520 N.3    16  ASN16      -0.1225
     23  CA        10.0310  -25.0820   25.2060 C.3    16  ASN16       0.1785
     24  C         10.6450  -25.1760   23.8150 C.2    16  ASN16       0.2597
     25  O          9.9320  -25.2030   22.8130 O.2    16  ASN16      -0.2718
     26  CB         8.5230  -24.8420   25.1070 C.3    16  ASN16       0.1169
     27  CG         7.7740  -25.3610   26.3160 C.2    16  ASN16       0.2627
     28  OD1        6.5530  -25.2440   26.4000 O.2    16  ASN16      -0.2716
     29  ND2        8.5070  -25.9400   27.2620 N.am   16  ASN16      -0.0877
     30  N         11.9700  -25.2310   23.7610 N.am   17  VAL17      -0.1966
     31  CA        12.6760  -25.3030   22.4910 C.3    17  VAL17       0.1727
     32  C         14.0180  -26.0040   22.6550 C.2    17  VAL17       0.2616
     33  O         14.6710  -25.8730   23.6880 O.2    17  VAL17      -0.2715
     34  CB        12.8890  -23.8970   21.9050 C.3    17  VAL17       0.0290
     35  CG1       13.6280  -23.0090   22.8970 C.3    17  VAL17       0.0023
     36  CG2       13.6260  -23.9690   20.5820 C.3    17  VAL17       0.0023
     37  N         14.4220  -26.7570   21.6380 N.am   18  ARG18      -0.1977
     38  CA        15.7130  -27.4340   21.6700 C.3    18  ARG18       0.1597
     39  C         16.4530  -27.3470   20.3390 C.2    18  ARG18       0.2287
     40  O         15.9320  -27.7470   19.3010 O.2    18  ARG18      -0.2864
     41  CB        15.5510  -28.9000   22.0780 C.3    18  ARG18       0.0334
     42  CG        16.8620  -29.6660   22.1020 C.3    18  ARG18       0.0492
     43  CD        16.7250  -31.0070   22.7930 C.3    18  ARG18       0.2205
     44  NE        16.5250  -30.8590   24.2310 N.pl3  18  ARG18      -0.0865
     45  CZ        17.5090  -30.8360   25.1260 C.cat  18  ARG18       0.5346
     46  NH1       18.7700  -30.9500   24.7320 N.pl3  18  ARG18       0.1354
     47  NH2       17.2320  -30.6990   26.4160 N.pl3  18  ARG18       0.1354
     48  N         13.5390  -27.9100   17.4530 N.3    33  SER33      -0.1202
     49  CA        12.2700  -28.5040   17.8560 C.3    33  SER33       0.2020
     50  C         11.5860  -27.6330   18.9020 C.2    33  SER33       0.2619
     51  O         11.9210  -27.6910   20.0850 O.2    33  SER33      -0.2717
     52  CB        12.4810  -29.9130   18.4120 C.3    33  SER33       0.2103
     53  OG        12.6730  -30.8540   17.3750 O.3    33  SER33      -0.2182
     54  N         10.6340  -26.8200   18.4560 N.am   34  GLN34      -0.1965
     55  CA         9.8900  -25.9460   19.3500 C.3    34  GLN34       0.1733
     56  C          8.4650  -26.4710   19.5050 C.2    34  GLN34       0.2617
     57  O          8.0090  -27.2910   18.7060 O.2    34  GLN34      -0.2715
     58  CB         9.8880  -24.5130   18.8090 C.3    34  GLN34       0.0408
     59  CG         9.3120  -23.4640   19.7520 C.3    34  GLN34       0.0908
     60  CD         9.3770  -22.0640   19.1630 C.2    34  GLN34       0.2608
     61  OE1        8.8540  -21.1090   19.7380 O.2    34  GLN34      -0.2717
     62  NE2       10.0230  -21.9380   18.0090 N.am   34  GLN34      -0.0878
     63  N          7.7660  -26.0060   20.5350 N.am   35  GLY35      -0.1940
     64  CA         6.4240  -26.4820   20.8180 C.3    35  GLY35       0.2014
     65  C          6.3140  -27.0100   22.2330 C.2    35  GLY35       0.2640
     66  O          7.2790  -26.9620   22.9900 O.2    35  GLY35      -0.2714
     67  N          5.1380  -27.5180   22.5860 N.am   36  THR36      -0.1936
     68  CA         4.9140  -28.0900   23.9080 C.3    36  THR36       0.2028
     69  C          4.9220  -29.6190   23.8460 C.2    36  THR36       0.2642
     70  O          4.6140  -30.2040   22.8100 O.2    36  THR36      -0.2714
     71  CB         3.5790  -27.6010   24.5050 C.3    36  THR36       0.1808
     72  OG1        2.4920  -28.2900   23.8780 O.3    36  THR36      -0.2208
     73  CG2        3.4190  -26.1020   24.2890 C.3    36  THR36       0.0379
     74  N          5.2770  -30.2530   24.9620 N.am   37  HIS37      -0.1973
     75  CA         5.4040  -31.7120   25.0430 C.3    37  HIS37       0.1656
     76  C          6.6700  -32.2090   24.3560 C.2    37  HIS37       0.2291
     77  O          7.7660  -32.1240   24.9140 O.2    37  HIS37      -0.2864
     78  CB         4.1710  -32.4170   24.4700 C.3    37  HIS37       0.0771
     79  CG         2.9180  -32.1700   25.2550 C.ar   37  HIS37       0.0820
     80  ND1        2.1490  -31.0430   25.0910 N.ar   37  HIS37      -0.2267
     81  CD2        2.3090  -32.9110   26.2140 C.ar   37  HIS37       0.1154
     82  CE1        1.1140  -31.0940   25.9150 C.ar   37  HIS37       0.1986
     83  NE2        1.1880  -32.2150   26.6040 N.ar   37  HIS37      -0.2212
     84  N          4.0600  -29.4750   18.1390 N.3    39  ILE39      -0.1245
     85  CA         5.5000  -29.2470   18.0980 C.3    39  ILE39       0.1561
     86  C          5.9790  -29.0420   16.6680 C.2    39  ILE39       0.2260
     87  O          5.7560  -29.8900   15.8030 O.2    39  ILE39      -0.2867
     88  CB         6.2770  -30.4260   18.7100 C.3    39  ILE39       0.0252
     89  CG1        6.0430  -30.4930   20.2190 C.3    39  ILE39       0.0019
     90  CG2        7.7650  -30.3030   18.4080 C.3    39  ILE39       0.0019
     91  CD1        6.7840  -31.6150   20.9040 C.3    39  ILE39       0.0001
@<TRIPOS>BOND
     1    87    86    2
     2    86    85    1
     3    53    52    1
     4    48    49    1
     5    49    52    1
     6    49    50    1
     7    62    60   am
     8    85    84    1
     9    85    88    1
    10    90    88    1
    11    54    50   am
    12    54    55    1
    13    57    56    2
    14    88    89    1
    15    58    55    1
    16    58    59    1
    17    50    51    2
    18    60    61    2
    19    60    59    1
    20    40    39    2
    21    55    56    1
    22    56    63   am
    23    89    91    1
    24    39    38    1
    25    63    64    1
    26    36    34    1
    27    64    65    1
    28    37    38    1
    29    37    32   am
    30    38    41    1
    31    34    31    1
    32    34    35    1
    33    41    42    1
    34    42    43    1
    35    65    67   am
    36    65    66    2
    37    31    32    1
    38    31    30    1
    39    67    68    1
    40    32    33    2
    41    43    44    1
    42    70    69    2
    43    25    24    2
    44    30    24   am
    45    24    23    1
    46    69    68    1
    47    69    74   am
    48    72    71    1
    49    68    71    1
    50    44    45    2
    51    73    71    1
    52    76    77    2
    53    76    75    1
    54    78    75    1
    55    78    79    1
    56    46    45    1
    57    74    75    1
    58    80    79   ar
    59    80    82   ar
    60    26    23    1
    61    26    27    1
    62    45    47    1
    63    23    22    1
    64    79    81   ar
    65    82    83   ar
    66     9     7   ar
    67    81    83   ar
    68     6     7    1
    69     6     5    1
    70    27    28    2
    71    27    29   am
    72     7     8   ar
    73     2     5    1
    74     2     1    1
    75     2     3    1
    76     4     3    2
    77     3    10   am
    78    10    11    1
    79    11    12    1
    80    11    14    1
    81    12    13    2
    82    14    15    1
    83    15    16   ar
    84    15    17   ar
    85    16    18   ar
    86    17    19   ar
    87    18    20   ar
    88    19    20   ar
    89    20    21    1
