@<TRIPOS>MOLECULE
tmp/3n4sC01.pdb
 87 83 0 0 0
SMALL
GASTEIGER

@<TRIPOS>ATOM
      1  N         19.1360   18.7140    1.3420 N.3    10  GLU10      -0.1231
      2  CA        18.8350   18.3830    2.7300 C.3    10  GLU10       0.1699
      3  C         17.7090   17.3530    2.8570 C.2    10  GLU10       0.2592
      4  O         17.8470   16.3530    3.5640 O.2    10  GLU10      -0.2718
      5  CB        18.5370   19.6560    3.5330 C.3    10  GLU10       0.0402
      6  CG        19.7360   20.6030    3.6170 C.3    10  GLU10       0.1161
      7  CD        19.4990   21.7920    4.5280 C.2    10  GLU10       0.3649
      8  OE1       18.4900   21.7870    5.2600 O.co2  10  GLU10      -0.2457
      9  OE2       20.3260   22.7290    4.5140 O.co2  10  GLU10      -0.2457
     10  N         16.6020   17.5900    2.1610 N.am   11  TYR11      -0.1976
     11  CA        15.4850   16.6470    2.1590 C.3    11  TYR11       0.1639
     12  C         15.8470   15.3390    1.4700 C.2    11  TYR11       0.2290
     13  O         15.3200   14.2770    1.8020 O.2    11  TYR11      -0.2864
     14  CB        14.2640   17.2660    1.4720 C.3    11  TYR11       0.0560
     15  CG        13.5260   18.2460    2.3420 C.ar   11  TYR11      -0.0198
     16  CD1       13.7150   19.6140    2.1940 C.ar   11  TYR11      -0.0009
     17  CD2       12.6500   17.8020    3.3220 C.ar   11  TYR11      -0.0009
     18  CE1       13.0480   20.5120    2.9930 C.ar   11  TYR11       0.0417
     19  CE2       11.9770   18.6880    4.1270 C.ar   11  TYR11       0.0417
     20  CZ        12.1800   20.0430    3.9580 C.ar   11  TYR11       0.1957
     21  OH        11.5080   20.9300    4.7620 O.3    11  TYR11      -0.2866
     22  N         19.3730   14.0540    3.6380 N.3    14  ASN14      -0.1225
     23  CA        19.3620   14.2180    5.0940 C.3    14  ASN14       0.1785
     24  C         20.7170   14.6680    5.6430 C.2    14  ASN14       0.2597
     25  O         21.1970   14.1680    6.6610 O.2    14  ASN14      -0.2718
     26  CB        18.8750   12.9310    5.7830 C.3    14  ASN14       0.1169
     27  CG        17.3540   12.8270    5.8390 C.2    14  ASN14       0.2627
     28  OD1       16.6440   13.7690    5.4930 O.2    14  ASN14      -0.2716
     29  ND2       16.8510   11.6760    6.2870 N.am   14  ASN14      -0.0877
     30  N         21.3240   15.6180    4.9380 N.am   15  VAL15      -0.1966
     31  CA        22.5890   16.2240    5.3420 C.3    15  VAL15       0.1727
     32  C         22.5330   17.7420    5.1980 C.2    15  VAL15       0.2616
     33  O         22.2500   18.2630    4.1170 O.2    15  VAL15      -0.2715
     34  CB        23.7770   15.6660    4.5370 C.3    15  VAL15       0.0290
     35  CG1       24.9090   16.6730    4.4440 C.3    15  VAL15       0.0023
     36  CG2       24.2870   14.3940    5.1560 C.3    15  VAL15       0.0023
     37  N         22.7950   18.4450    6.2970 N.am   16  ARG16      -0.1977
     38  CA        22.9730   19.8920    6.2630 C.3    16  ARG16       0.1597
     39  C         24.4650   20.1940    6.2760 C.2    16  ARG16       0.2287
     40  O         25.1890   19.6420    7.1000 O.2    16  ARG16      -0.2864
     41  CB        22.3420   20.5310    7.4970 C.3    16  ARG16       0.0334
     42  CG        20.8610   20.2910    7.6550 C.3    16  ARG16       0.0492
     43  CD        20.3350   21.0970    8.8290 C.3    16  ARG16       0.2205
     44  NE        18.8890   20.9800    8.9810 N.pl3  16  ARG16      -0.0865
     45  CZ        18.1910   21.6030    9.9260 C.cat  16  ARG16       0.5346
     46  NH1       18.8090   22.3840   10.8030 N.pl3  16  ARG16       0.1354
     47  NH2       16.8750   21.4440    9.9970 N.pl3  16  ARG16       0.1354
     48  N         26.5500   23.0420    7.3480 N.3    18  HIS18      -0.1241
     49  CA        26.3790   24.2750    8.1060 C.3    18  HIS18       0.1621
     50  C         27.3200   25.3900    7.6450 C.2    18  HIS18       0.2264
     51  O         26.8640   26.4180    7.1400 O.2    18  HIS18      -0.2867
     52  CB        26.4910   23.9830    9.6040 C.3    18  HIS18       0.0745
     53  CG        25.2780   23.3040   10.1610 C.ar   18  HIS18       0.0817
     54  ND1       24.1890   24.0080   10.6300 N.ar   18  HIS18      -0.2268
     55  CD2       24.9600   21.9950   10.2850 C.ar   18  HIS18       0.1154
     56  CE1       23.2610   23.1620   11.0370 C.ar   18  HIS18       0.1986
     57  NE2       23.7050   21.9300   10.8380 N.ar   18  HIS18      -0.2212
     58  N         25.7460   17.9550    9.6200 N.3    32  SER32      -0.1217
     59  CA        24.6900   17.4420   10.4640 C.3    32  SER32       0.1889
     60  C         23.9370   16.4300    9.6150 C.2    32  SER32       0.2288
     61  O         23.5560   16.7260    8.4810 O.2    32  SER32      -0.2866
     62  CB        23.7750   18.5860   10.8970 C.3    32  SER32       0.2089
     63  OG        23.5490   18.5570   12.2880 O.3    32  SER32      -0.2183
     64  N         20.8900   13.2030    9.7600 N.3    34  GLY34      -0.1225
     65  CA        19.8390   12.5420   10.5030 C.3    34  GLY34       0.1811
     66  C         19.0750   11.5430    9.6610 C.2    34  GLY34       0.2280
     67  O         19.2430   11.4770    8.4400 O.2    34  GLY34      -0.2866
     68  N         14.5480   11.1260   17.4070 N.3    36  TYR36      -0.1241
     69  CA        15.0390   10.9380   16.0410 C.3    36  TYR36       0.1605
     70  C         16.4830   11.4200   15.8780 C.2    36  TYR36       0.2264
     71  O         16.7510   12.6200   15.8950 O.2    36  TYR36      -0.2867
     72  CB        14.1250   11.6370   15.0540 C.3    36  TYR36       0.0534
     73  CG        13.8960   13.1060   15.3070 C.ar   36  TYR36      -0.0201
     74  CD1       14.7800   14.0570   14.7970 C.ar   36  TYR36      -0.0009
     75  CD2       12.7980   13.5600   16.0310 C.ar   36  TYR36      -0.0009
     76  CE1       14.5870   15.4100   15.0180 C.ar   36  TYR36       0.0417
     77  CE2       12.5890   14.9080   16.2550 C.ar   36  TYR36       0.0417
     78  CZ        13.4860   15.8220   15.7410 C.ar   36  TYR36       0.1957
     79  OH        13.3010   17.1690   15.9700 O.3    36  TYR36      -0.2866
     80  N         20.3750   12.5170   15.2980 N.3    38  ILE38      -0.1245
     81  CA        21.2260   13.3520   14.4630 C.3    38  ILE38       0.1561
     82  C         22.6770   13.0550   14.8220 C.2    38  ILE38       0.2260
     83  O         22.9930   12.7680   15.9770 O.2    38  ILE38      -0.2867
     84  CB        20.9650   14.8590   14.6630 C.3    38  ILE38       0.0252
     85  CG1       19.5260   15.2210   14.2930 C.3    38  ILE38       0.0019
     86  CG2       21.9280   15.6800   13.8180 C.3    38  ILE38       0.0019
     87  CD1       18.5120   14.8640   15.3510 C.3    38  ILE38       0.0001
@<TRIPOS>BOND
     1     1     2    1
     2    12    13    2
     3    12    11    1
     4    14    11    1
     5    14    15    1
     6    11    10    1
     7    10     3   am
     8    16    15   ar
     9    16    18   ar
    10    15    17   ar
    11     2     3    1
    12     2     5    1
    13     3     4    2
    14    18    20   ar
    15    17    19   ar
    16     5     6    1
    17     6     7    1
    18    22    23    1
    19    20    19   ar
    20    20    21    1
    21    33    32    2
    22    35    34    1
    23     9     7   ar
    24     7     8   ar
    25    34    36    1
    26    34    31    1
    27    30    31    1
    28    30    24   am
    29    23    24    1
    30    23    26    1
    31    32    31    1
    32    32    37   am
    33    28    27    2
    34    24    25    2
    35    26    27    1
    36    27    29   am
    37    38    39    1
    38    38    37    1
    39    38    41    1
    40    39    40    2
    41    51    50    2
    42    48    49    1
    43    41    42    1
    44    50    49    1
    45    42    43    1
    46    49    52    1
    47    67    66    2
    48    61    60    2
    49    43    44    1
    50    44    45    2
    51    52    53    1
    52    60    59    1
    53    58    59    1
    54    66    65    1
    55    64    65    1
    56    45    47    1
    57    45    46    1
    58    53    55   ar
    59    53    54   ar
    60    55    57   ar
    61    59    62    1
    62    54    56   ar
    63    57    56   ar
    64    62    63    1
    65    86    84    1
    66    85    84    1
    67    85    87    1
    68    81    84    1
    69    81    82    1
    70    81    80    1
    71    74    76   ar
    72    74    73   ar
    73    82    83    2
    74    76    78   ar
    75    72    73    1
    76    72    69    1
    77    73    75   ar
    78    78    79    1
    79    78    77   ar
    80    70    71    2
    81    70    69    1
    82    75    77   ar
    83    69    68    1
