@<TRIPOS>MOLECULE
tmp/3n4sD00.pdb
 83 81 0 0 0
SMALL
GASTEIGER

@<TRIPOS>ATOM
      1  N         14.6050   22.9000  -18.8280 N.3    21  GLU21      -0.1231
      2  CA        13.4330   23.0500  -19.6920 C.3    21  GLU21       0.1699
      3  C         12.2870   23.8410  -19.0560 C.2    21  GLU21       0.2592
      4  O         11.4180   24.3670  -19.7570 O.2    21  GLU21      -0.2718
      5  CB        12.9190   21.6670  -20.0830 C.3    21  GLU21       0.0402
      6  CG        12.6160   20.7880  -18.8750 C.3    21  GLU21       0.1161
      7  CD        11.8950   19.5150  -19.2480 C.2    21  GLU21       0.3649
      8  OE1       11.5940   19.3400  -20.4450 O.co2  21  GLU21      -0.2457
      9  OE2       11.6250   18.6940  -18.3470 O.co2  21  GLU21      -0.2457
     10  N         12.2790   23.9010  -17.7280 N.am   22  ASP22      -0.1974
     11  CA        11.2390   24.6020  -16.9790 C.3    22  ASP22       0.1709
     12  C         11.8700   25.6600  -16.0760 C.2    22  ASP22       0.2293
     13  O         12.9530   25.4480  -15.5310 O.2    22  ASP22      -0.2864
     14  CB        10.4300   23.6000  -16.1460 C.3    22  ASP22       0.1436
     15  CG         9.4340   24.2690  -15.2130 C.2    22  ASP22       0.3671
     16  OD1        9.6810   24.2640  -13.9880 O.co2  22  ASP22      -0.2456
     17  OD2        8.4020   24.7850  -15.6980 O.co2  22  ASP22      -0.2456
     18  N         10.7370   22.1600  -10.8150 N.3    27  TRP27      -0.1241
     19  CA        11.3630   20.9560  -11.3520 C.3    27  TRP27       0.1605
     20  C         12.8810   20.9920  -11.2850 C.2    27  TRP27       0.2264
     21  O         13.5010   22.0450  -11.4380 O.2    27  TRP27      -0.2867
     22  CB        10.9040   20.6910  -12.7890 C.3    27  TRP27       0.0550
     23  CG         9.5060   20.2030  -12.8640 C.ar   27  TRP27       0.0003
     24  CD1        8.3800   20.9610  -13.0050 C.ar   27  TRP27       0.0946
     25  CD2        9.0720   18.8460  -12.7880 C.ar   27  TRP27       0.0152
     26  NE1        7.2710   20.1580  -13.0260 N.ar   27  TRP27      -0.2442
     27  CE2        7.6660   18.8460  -12.8940 C.ar   27  TRP27       0.0810
     28  CE3        9.7280   17.6170  -12.6440 C.ar   27  TRP27       0.0012
     29  CZ2        6.9080   17.6750  -12.8600 C.ar   27  TRP27       0.0191
     30  CZ3        8.9800   16.4570  -12.6090 C.ar   27  TRP27       0.0001
     31  CH2        7.5850   16.4930  -12.7170 C.ar   27  TRP27       0.0015
     32  N         14.0590   13.2870  -12.9120 N.3    42  LYS42      -0.1245
     33  CA        13.5690   14.5910  -12.5020 C.3    42  LYS42       0.1561
     34  C         12.7640   14.4840  -11.2180 C.2    42  LYS42       0.2260
     35  O         12.1960   13.4350  -10.9080 O.2    42  LYS42      -0.2867
     36  CB        12.6800   15.2010  -13.5850 C.3    42  LYS42       0.0271
     37  CG        13.2830   15.2690  -14.9690 C.3    42  LYS42       0.0035
     38  CD        12.2150   15.7280  -15.9470 C.3    42  LYS42       0.0206
     39  CE        12.6690   15.6470  -17.3880 C.3    42  LYS42       0.1093
     40  NZ        11.5950   16.1380  -18.2960 N.3    42  LYS42      -0.1314
     41  N         10.3370   11.3790  -12.2480 N.3    55  ALA55      -0.1231
     42  CA        10.2790   10.9320  -13.6260 C.3    55  ALA55       0.1679
     43  C         11.6490   10.4260  -14.0310 C.2    55  ALA55       0.2434
     44  O         12.6050   11.1930  -14.0780 O.2    55  ALA55      -0.2733
     45  CB         9.8050   12.0470  -14.5450 C.3    55  ALA55       0.0304
     46  N         11.7530    9.1200  -14.3100 N.am   56  PRO56      -0.2718
     47  CA        13.0310    8.5850  -14.7800 C.3    56  PRO56       0.1535
     48  C         13.4220    9.2990  -16.0640 C.2    56  PRO56       0.2598
     49  O         12.5480    9.7280  -16.8190 O.2    56  PRO56      -0.2715
     50  CB        12.7050    7.1110  -15.0610 C.3    56  PRO56       0.0310
     51  CG        11.2090    7.0840  -15.2270 C.3    56  PRO56       0.0237
     52  CD        10.7280    8.0700  -14.2190 C.3    56  PRO56       0.0939
     53  N         14.7200    9.4520  -16.2950 N.am   57  VAL57      -0.1964
     54  CA        15.2120   10.0820  -17.5140 C.3    57  VAL57       0.1727
     55  C         16.3040    9.2180  -18.1340 C.2    57  VAL57       0.2616
     56  O         17.3310    8.9770  -17.5070 O.2    57  VAL57      -0.2715
     57  CB        15.7730   11.4830  -17.2410 C.3    57  VAL57       0.0290
     58  CG1       16.4310   12.0290  -18.4920 C.3    57  VAL57       0.0023
     59  CG2       14.6760   12.4140  -16.7760 C.3    57  VAL57       0.0023
     60  N         16.0850    8.7660  -19.3660 N.am   58  LEU58      -0.1963
     61  CA        16.9700    7.7760  -19.9780 C.3    58  LEU58       0.1728
     62  C         17.6240    8.2170  -21.2920 C.2    58  LEU58       0.2616
     63  O         18.5080    7.5310  -21.8080 O.2    58  LEU58      -0.2715
     64  CB        16.2190    6.4610  -20.1890 C.3    58  LEU58       0.0311
     65  CG        15.4360    5.9160  -18.9970 C.3    58  LEU58       0.0022
     66  CD1       14.6220    4.7050  -19.3970 C.3    58  LEU58       0.0001
     67  CD2       16.3590    5.5650  -17.8460 C.3    58  LEU58       0.0001
     68  N         17.1860    9.3510  -21.8330 N.am   59  LYS59      -0.1977
     69  CA        17.7020    9.8620  -23.1050 C.3    59  LYS59       0.1596
     70  C         19.2180    9.7500  -23.2520 C.2    59  LYS59       0.2287
     71  O         19.7400    9.7200  -24.3660 O.2    59  LYS59      -0.2864
     72  CB        17.3380   11.3350  -23.2660 C.3    59  LYS59       0.0298
     73  CG        15.8720   11.6500  -23.4340 C.3    59  LYS59       0.0038
     74  CD        15.6930   13.1530  -23.3480 C.3    59  LYS59       0.0206
     75  CE        14.7790   13.6820  -24.4340 C.3    59  LYS59       0.1093
     76  NZ        14.9150   15.1610  -24.5570 N.3    59  LYS59      -0.1314
     77  N          7.1080    6.7000  -13.6820 N.3    80  THR80      -0.1218
     78  CA         6.8980    7.9280  -12.9380 C.3    80  THR80       0.1862
     79  C          6.1960    7.5920  -11.6290 C.2    80  THR80       0.2287
     80  O          5.2970    6.7500  -11.5950 O.2    80  THR80      -0.2866
     81  CB         6.0520    8.9140  -13.7450 C.3    80  THR80       0.1770
     82  OG1        6.7960    9.3370  -14.8930 O.3    80  THR80      -0.2211
     83  CG2        5.7010   10.1240  -12.9110 C.3    80  THR80       0.0375
@<TRIPOS>BOND
     1    76    75    1
     2    75    74    1
     3    71    70    2
     4    73    74    1
     5    73    72    1
     6    72    69    1
     7    70    69    1
     8    69    68    1
     9    68    62   am
    10    63    62    2
    11    62    61    1
    12     8     7   ar
    13    64    61    1
    14    64    65    1
    15     5     2    1
    16     5     6    1
    17    61    60    1
    18     4     3    2
    19     2     3    1
    20     2     1    1
    21    66    65    1
    22    60    55   am
    23     7     6    1
    24     7     9   ar
    25     3    10   am
    26    65    67    1
    27    58    57    1
    28    40    39    1
    29    55    54    1
    30    55    56    2
    31    10    11    1
    32    54    57    1
    33    54    53    1
    34    39    38    1
    35    57    59    1
    36    11    14    1
    37    11    12    1
    38    49    48    2
    39    53    48   am
    40    14    15    1
    41    12    13    2
    42    48    47    1
    43    38    37    1
    44    17    15   ar
    45    51    50    1
    46    51    52    1
    47    15    16   ar
    48    50    47    1
    49    37    36    1
    50    82    81    1
    51    47    46    1
    52    45    42    1
    53    46    52    1
    54    46    43   am
    55    44    43    2
    56    43    42    1
    57    81    78    1
    58    81    83    1
    59    77    78    1
    60    42    41    1
    61    36    33    1
    62    26    24   ar
    63    26    27   ar
    64    24    23   ar
    65    78    79    1
    66    32    33    1
    67    27    29   ar
    68    27    25   ar
    69    23    22    1
    70    23    25   ar
    71    29    31   ar
    72    22    19    1
    73    25    28   ar
    74    31    30   ar
    75    28    30   ar
    76    33    34    1
    77    79    80    2
    78    21    20    2
    79    19    20    1
    80    19    18    1
    81    34    35    2
