@<TRIPOS>MOLECULE
tmp/3n51A00.pdb
 170 160 0 0 0
SMALL
GASTEIGER

@<TRIPOS>ATOM
      1  N         26.3590   17.6280   68.5560 N.3    13  LEU13      -0.1231
      2  CA        26.3200   17.1840   67.1510 C.3    13  LEU13       0.1693
      3  C         26.0780   18.3350   66.1810 C.2    13  LEU13       0.2593
      4  O         26.2560   18.1760   64.9670 O.2    13  LEU13      -0.2718
      5  CB        25.2350   16.1340   66.9560 C.3    13  LEU13       0.0284
      6  CG        25.4610   14.7860   67.6420 C.3    13  LEU13       0.0019
      7  CD1       24.2160   13.9090   67.5200 C.3    13  LEU13       0.0001
      8  CD2       26.6870   14.0660   67.0780 C.3    13  LEU13       0.0001
      9  N         25.6650   19.4840   66.7070 N.am   14  GLY14      -0.1942
     10  CA        25.4520   20.6660   65.8940 C.3    14  GLY14       0.2014
     11  C         24.1590   21.3660   66.2500 C.2    14  GLY14       0.2639
     12  O         23.4130   20.9220   67.1220 O.2    14  GLY14      -0.2714
     13  N         23.9140   22.4930   65.5980 N.am   15  LYS15      -0.1963
     14  CA        22.6080   23.1070   65.6580 C.3    15  LYS15       0.1728
     15  C         21.8340   22.6660   64.4290 C.2    15  LYS15       0.2616
     16  O         22.3540   22.6560   63.3180 O.2    15  LYS15      -0.2715
     17  CB        22.6870   24.6330   65.7310 C.3    15  LYS15       0.0311
     18  CG        21.4390   25.2190   66.3670 C.3    15  LYS15       0.0038
     19  CD        21.4640   26.7320   66.4590 C.3    15  LYS15       0.0206
     20  CE        20.2290   27.2480   67.2010 C.3    15  LYS15       0.1093
     21  NZ        18.9520   26.6550   66.6900 N.3    15  LYS15      -0.1314
     22  N         20.5960   22.2620   64.6450 N.am   16  GLY16      -0.1955
     23  CA        19.6950   21.9890   63.5560 C.3    16  GLY16       0.1869
     24  C         18.5450   22.9430   63.6670 C.2    16  GLY16       0.2309
     25  O         18.6110   23.9240   64.4140 O.2    16  GLY16      -0.2863
     26  N         21.3260   20.0210   68.8370 N.3    21  VAL21      -0.1245
     27  CA        21.3170   18.5770   68.7590 C.3    21  VAL21       0.1561
     28  C         22.5450   17.9820   69.4550 C.2    21  VAL21       0.2260
     29  O         23.6810   18.3320   69.1510 O.2    21  VAL21      -0.2867
     30  CB        21.2290   18.0940   67.3130 C.3    21  VAL21       0.0252
     31  CG1       21.1680   16.5730   67.2650 C.3    21  VAL21       0.0019
     32  CG2       20.0030   18.6560   66.6590 C.3    21  VAL21       0.0019
     33  N         20.3790   10.6210   69.2550 N.3    34  ALA34      -0.1231
     34  CA        20.5160   12.0750   69.1040 C.3    34  ALA34       0.1694
     35  C         19.3230   12.7210   69.7750 C.2    34  ALA34       0.2592
     36  O         18.1970   12.1940   69.7110 O.2    34  ALA34      -0.2718
     37  CB        20.6070   12.4800   67.6490 C.3    34  ALA34       0.0304
     38  N         19.5550   13.8450   70.4440 N.am   35  VAL35      -0.1966
     39  CA        18.4450   14.5760   71.0580 C.3    35  VAL35       0.1727
     40  C         18.4300   16.0200   70.5940 C.2    35  VAL35       0.2616
     41  O         19.4540   16.6900   70.6510 O.2    35  VAL35      -0.2715
     42  CB        18.4950   14.5220   72.5860 C.3    35  VAL35       0.0290
     43  CG1       17.3560   15.3650   73.2030 C.3    35  VAL35       0.0023
     44  CG2       18.3880   13.0850   73.0310 C.3    35  VAL35       0.0023
     45  N         17.2620   16.4770   70.1410 N.am   36  LYS36      -0.1977
     46  CA        17.0660   17.8570   69.7440 C.3    36  LYS36       0.1596
     47  C         16.3860   18.5350   70.9050 C.2    36  LYS36       0.2287
     48  O         15.3320   18.0840   71.3420 O.2    36  LYS36      -0.2864
     49  CB        16.1780   17.9700   68.5000 C.3    36  LYS36       0.0298
     50  CG        16.0040   19.4260   67.9990 C.3    36  LYS36       0.0038
     51  CD        15.4090   19.4850   66.5800 C.3    36  LYS36       0.0206
     52  CE        16.4520   19.2680   65.5110 C.3    36  LYS36       0.1093
     53  NZ        16.0330   19.7660   64.1630 N.3    36  LYS36      -0.1314
     54  N         14.1140    9.5790   59.4250 N.3    68  MET68      -0.1245
     55  CA        14.6890    9.5040   60.7570 C.3    68  MET68       0.1570
     56  C         13.7140    8.8870   61.7350 C.2    68  MET68       0.2261
     57  O         12.5620    9.2920   61.8020 O.2    68  MET68      -0.2867
     58  CB        15.0720   10.8790   61.2810 C.3    68  MET68       0.0387
     59  CG        15.5980   10.8160   62.7160 C.3    68  MET68       0.0595
     60  SD        15.9170   12.3920   63.4670 S.3    68  MET68      -0.1393
     61  CE        16.3270   11.9240   65.1570 C.3    68  MET68       0.0692
     62  N         12.1200    8.4780   65.2900 N.3    70  LEU70      -0.1245
     63  CA        11.8880    9.1020   66.5840 C.3    70  LEU70       0.1561
     64  C         11.5550    8.0600   67.6400 C.2    70  LEU70       0.2260
     65  O         10.7000    7.2060   67.4240 O.2    70  LEU70      -0.2867
     66  CB        10.7310   10.0980   66.4890 C.3    70  LEU70       0.0270
     67  CG        10.5910   11.0310   67.7050 C.3    70  LEU70       0.0019
     68  CD1       11.7700   12.0390   67.7260 C.3    70  LEU70       0.0001
     69  CD2        9.2400   11.7690   67.7260 C.3    70  LEU70       0.0001
     70  N         13.4430   15.9370   72.0270 N.3    82  LEU82      -0.1245
     71  CA        12.9860   14.9570   71.0560 C.3    82  LEU82       0.1561
     72  C         14.1050   13.9570   70.8000 C.2    82  LEU82       0.2260
     73  O         15.1450   14.3250   70.2600 O.2    82  LEU82      -0.2867
     74  CB        12.6250   15.6550   69.7500 C.3    82  LEU82       0.0270
     75  CG        11.5540   16.7240   69.8440 C.3    82  LEU82       0.0019
     76  CD1       11.4570   17.4950   68.5270 C.3    82  LEU82       0.0001
     77  CD2       10.2260   16.1040   70.2020 C.3    82  LEU82       0.0001
     78  N         15.8200   10.6680   69.0870 N.3    84  GLY84      -0.1210
     79  CA        15.8000    9.7920   67.9260 C.3    84  GLY84       0.1956
     80  C         17.1160    9.1270   67.5950 C.2    84  GLY84       0.2612
     81  O         18.0990    9.2360   68.3270 O.2    84  GLY84      -0.2717
     82  N         17.1080    8.4300   66.4720 N.am   85  GLU85      -0.1965
     83  CA        18.2510    7.7270   65.9650 C.3    85  GLU85       0.1733
     84  C         19.3110    8.7110   65.4720 C.2    85  GLU85       0.2616
     85  O         18.9920    9.6850   64.7960 O.2    85  GLU85      -0.2715
     86  CB        17.8200    6.8260   64.8160 C.3    85  GLU85       0.0429
     87  CG        18.8990    5.8570   64.3920 C.3    85  GLU85       0.1163
     88  CD        18.3830    4.7090   63.5510 C.2    85  GLU85       0.3649
     89  OE1       17.4120    4.8600   62.7700 O.co2  85  GLU85      -0.2457
     90  OE2       18.9940    3.6500   63.6510 O.co2  85  GLU85      -0.2457
     91  N         20.5690    8.4430   65.8070 N.am   86  VAL86      -0.1963
     92  CA        21.6820    9.2680   65.3680 C.3    86  VAL86       0.1727
     93  C         22.2840    8.6850   64.0970 C.2    86  VAL86       0.2616
     94  O         22.4730    7.4890   63.9960 O.2    86  VAL86      -0.2715
     95  CB        22.7790    9.3990   66.4370 C.3    86  VAL86       0.0290
     96  CG1       23.4910    8.0810   66.6620 C.3    86  VAL86       0.0023
     97  CG2       23.7700   10.4940   66.0340 C.3    86  VAL86       0.0023
     98  N         22.5230    9.5560   63.1220 N.am   87  TYR87      -0.1974
     99  CA        23.1470    9.1990   61.8540 C.3    87  TYR87       0.1639
    100  C         24.4850    9.9040   61.7450 C.2    87  TYR87       0.2290
    101  O         24.6130   11.0770   62.0920 O.2    87  TYR87      -0.2864
    102  CB        22.2180    9.5570   60.7010 C.3    87  TYR87       0.0560
    103  CG        20.8500    8.9390   60.8850 C.ar   87  TYR87      -0.0198
    104  CD1       20.7110    7.5610   61.0430 C.ar   87  TYR87      -0.0009
    105  CD2       19.7030    9.7250   60.9570 C.ar   87  TYR87      -0.0009
    106  CE1       19.4580    6.9780   61.2530 C.ar   87  TYR87       0.0417
    107  CE2       18.4540    9.1580   61.1460 C.ar   87  TYR87       0.0417
    108  CZ        18.3320    7.7790   61.2990 C.ar   87  TYR87       0.1957
    109  OH        17.0890    7.2040   61.4840 O.3    87  TYR87      -0.2866
    110  N         25.8100   15.3790   56.0920 N.3    91  GLU91      -0.1245
    111  CA        24.8310   15.8830   55.1230 C.3    91  GLU91       0.1567
    112  C         25.1670   15.3380   53.7450 C.2    91  GLU91       0.2260
    113  O         26.3380   15.2030   53.3880 O.2    91  GLU91      -0.2867
    114  CB        24.8070   17.4230   55.1250 C.3    91  GLU91       0.0388
    115  CG        24.4520   18.0470   56.4830 C.3    91  GLU91       0.1160
    116  CD        24.6530   19.5390   56.5510 C.2    91  GLU91       0.3649
    117  OE1       24.6880   20.2060   55.4910 O.co2  91  GLU91      -0.2457
    118  OE2       24.7550   20.0650   57.6850 O.co2  91  GLU91      -0.2457
    119  N         20.2910   20.1900   53.7590 N.3   134  GLU134     -0.1245
    120  CA        20.7430   20.1050   55.1540 C.3   134  GLU134      0.1567
    121  C         19.9380   19.0930   55.9660 C.2   134  GLU134      0.2260
    122  O         20.3990   18.6430   57.0130 O.2   134  GLU134     -0.2867
    123  CB        20.6320   21.4860   55.8020 C.3   134  GLU134      0.0388
    124  CG        21.2350   21.6250   57.1680 C.3   134  GLU134      0.1160
    125  CD        21.1950   23.0590   57.6820 C.2   134  GLU134      0.3649
    126  OE1       20.7330   23.9530   56.9390 O.co2 134  GLU134     -0.2457
    127  OE2       21.6320   23.2870   58.8320 O.co2 134  GLU134     -0.2457
    128  N         20.4670   13.5430   55.7730 N.3   137  LEU137     -0.1245
    129  CA        21.6180   12.9450   56.3990 C.3   137  LEU137      0.1561
    130  C         21.8990   11.5540   55.8260 C.2   137  LEU137      0.2260
    131  O         21.0050   10.8580   55.3460 O.2   137  LEU137     -0.2867
    132  CB        21.4260   12.8620   57.9240 C.3   137  LEU137      0.0270
    133  CG        21.2170   14.1840   58.6950 C.3   137  LEU137      0.0019
    134  CD1       21.3160   13.9840   60.2050 C.3   137  LEU137      0.0001
    135  CD2       22.2170   15.2650   58.2660 C.3   137  LEU137      0.0001
    136  N         15.4720   14.2380   57.9150 N.3   150  ILE150     -0.1231
    137  CA        15.2380   14.7420   59.2600 C.3   150  ILE150      0.1692
    138  C         14.2590   15.9240   59.2120 C.2   150  ILE150      0.2592
    139  O         14.1140   16.5840   58.1780 O.2   150  ILE150     -0.2718
    140  CB        16.5570   15.1290   59.9800 C.3   150  ILE150      0.0266
    141  CG1       17.3180   16.2340   59.2320 C.3   150  ILE150      0.0019
    142  CG2       17.4690   13.8920   60.1330 C.3   150  ILE150      0.0020
    143  CD1       18.3870   16.9180   60.0190 C.3   150  ILE150      0.0001
    144  N         13.5750   16.1300   60.3350 N.am  151  ASP151     -0.1960
    145  CA        12.6660   17.2520   60.6030 C.3   151  ASP151      0.1840
    146  C         11.2390   17.1860   60.0290 C.2   151  ASP151      0.2622
    147  O         10.5050   18.1470   60.1790 O.2   151  ASP151     -0.2715
    148  CB        13.2980   18.6160   60.2510 C.3   151  ASP151      0.1450
    149  CG        14.3930   19.0330   61.2130 C.2   151  ASP151      0.3671
    150  OD1       14.5700   18.4060   62.2770 O.co2 151  ASP151     -0.2456
    151  OD2       15.0890   20.0120   60.8840 O.co2 151  ASP151     -0.2456
    152  N         10.8110   16.0530   59.4710 N.am  152  PHE152     -0.1974
    153  CA         9.4090   15.9030   59.0780 C.3   152  PHE152      0.1639
    154  C          8.4600   16.2400   60.2190 C.2   152  PHE152      0.2290
    155  O          8.6750   15.8430   61.3690 O.2   152  PHE152     -0.2864
    156  CB         9.0950   14.4970   58.5850 C.3   152  PHE152      0.0560
    157  CG         8.8430   14.4060   57.1060 C.ar  152  PHE152     -0.0200
    158  CD1        7.6050   14.7810   56.5750 C.ar  152  PHE152     -0.0042
    159  CD2        9.8200   13.9280   56.2420 C.ar  152  PHE152     -0.0042
    160  CE1        7.3620   14.6940   55.1930 C.ar  152  PHE152     -0.0003
    161  CE2        9.5720   13.8430   54.8560 C.ar  152  PHE152     -0.0003
    162  CZ         8.3480   14.2000   54.3450 C.ar  152  PHE152     -0.0000
    163  N          7.9440   18.8790   62.0350 N.3   154  LEU154     -0.1245
    164  CA         8.2530   19.9430   63.0170 C.3   154  LEU154      0.1561
    165  C          7.6190   21.3170   62.6960 C.2   154  LEU154      0.2260
    166  O          7.1660   22.0150   63.6020 O.2   154  LEU154     -0.2867
    167  CB         9.7650   20.0930   63.2320 C.3   154  LEU154      0.0270
    168  CG        10.5270   18.9390   63.9120 C.3   154  LEU154      0.0019
    169  CD1       11.9530   19.3610   64.2940 C.3   154  LEU154      0.0001
    170  CD2        9.7790   18.4790   65.1280 C.3   154  LEU154      0.0001
@<TRIPOS>BOND
     1   113   112    2
     2   112   111    1
     3   119   120    1
     4   162   161   ar
     5   162   160   ar
     6   161   159   ar
     7   111   114    1
     8   111   110    1
     9   114   115    1
    10   120   123    1
    11   120   121    1
    12   160   158   ar
    13   131   130    2
    14   117   116   ar
    15   128   129    1
    16   123   124    1
    17   130   129    1
    18   121   122    2
    19   159   157   ar
    20   129   132    1
    21   115   116    1
    22   116   118   ar
    23   158   157   ar
    24   126   125   ar
    25   157   156    1
    26   124   125    1
    27   125   127   ar
    28   136   137    1
    29   132   133    1
    30   139   138    2
    31   135   133    1
    32   156   153    1
    33   133   134    1
    34   153   152    1
    35   153   154    1
    36   138   137    1
    37   138   144   am
    38   141   140    1
    39   141   143    1
    40   137   140    1
    41    54    55    1
    42   152   146   am
    43   140   142    1
    44   146   147    2
    45   146   145    1
    46   154   155    2
    47   148   145    1
    48   148   149    1
    49   144   145    1
    50   102   103    1
    51   102    99    1
    52    55    58    1
    53    55    56    1
    54   151   149   ar
    55   103   105   ar
    56   103   104   ar
    57   105   107   ar
    58   104   106   ar
    59   107   108   ar
    60   149   150   ar
    61   106   108   ar
    62    58    59    1
    63   108   109    1
    64    56    57    2
    65   100    99    1
    66   100   101    2
    67    99    98    1
    68   163   164    1
    69   165   164    1
    70   165   166    2
    71    59    60    1
    72    89    88   ar
    73   164   167    1
    74    98    93   am
    75   167   168    1
    76    16    15    2
    77    60    61    1
    78    88    90   ar
    79    88    87    1
    80    23    24    1
    81    23    22    1
    82    24    25    2
    83   168   169    1
    84   168   170    1
    85    94    93    2
    86    93    92    1
    87    53    52    1
    88    87    86    1
    89    15    22   am
    90    15    14    1
    91    85    84    2
    92    86    83    1
    93     4     3    2
    94    62    63    1
    95    92    91    1
    96    92    95    1
    97    84    91   am
    98    84    83    1
    99    52    51    1
   100    13    14    1
   101    13    11   am
   102    14    17    1
   103    17    18    1
   104    10    11    1
   105    10     9    1
   106    83    82    1
   107    97    95    1
   108     3     9   am
   109     3     2    1
   110    11    12    2
   111    18    19    1
   112    95    96    1
   113    19    20    1
   114    82    80   am
   115    66    63    1
   116    66    67    1
   117    51    50    1
   118    63    64    1
   119    32    30    1
   120    21    20    1
   121     5     2    1
   122     5     6    1
   123     8     6    1
   124     2     1    1
   125    31    30    1
   126    30    27    1
   127    65    64    2
   128     7     6    1
   129    80    79    1
   130    80    81    2
   131    37    34    1
   132    67    68    1
   133    67    69    1
   134    79    78    1
   135    50    49    1
   136    49    46    1
   137    76    75    1
   138    27    26    1
   139    27    28    1
   140    34    33    1
   141    34    35    1
   142    29    28    2
   143    36    35    2
   144    46    45    1
   145    46    47    1
   146    74    75    1
   147    74    71    1
   148    35    38   am
   149    75    77    1
   150    45    40   am
   151    73    72    2
   152    38    39    1
   153    40    41    2
   154    40    39    1
   155    72    71    1
   156    47    48    2
   157    71    70    1
   158    39    42    1
   159    42    44    1
   160    42    43    1
