@<TRIPOS>MOLECULE
tmp/3n56A00.pdb
 89 86 0 0 0
SMALL
GASTEIGER

@<TRIPOS>ATOM
      1  N         71.8650  -92.3050   20.1330 N.3   289  HIS289     -0.1241
      2  CA        70.7370  -92.0680   19.2420 C.3   289  HIS289      0.1621
      3  C         71.0090  -92.6880   17.8720 C.2   289  HIS289      0.2264
      4  O         70.1040  -93.2630   17.2630 O.2   289  HIS289     -0.2867
      5  CB        70.4100  -90.5830   19.0970 C.3   289  HIS289      0.0745
      6  CG        69.1650  -90.3230   18.3060 C.ar  289  HIS289      0.0817
      7  ND1       67.9730  -90.9650   18.5680 N.ar  289  HIS289     -0.2268
      8  CD2       68.9250  -89.4980   17.2600 C.ar  289  HIS289      0.1154
      9  CE1       67.0520  -90.5460   17.7190 C.ar  289  HIS289      0.1986
     10  NE2       67.6040  -89.6570   16.9130 N.ar  289  HIS289     -0.2212
     11  N         70.7890  -96.5450   18.0830 N.3   292  GLY292     -0.1210
     12  CA        69.4110  -96.9220   18.3590 C.3   292  GLY292      0.1956
     13  C         68.5680  -96.7810   17.1120 C.2   292  GLY292      0.2611
     14  O         67.7240  -97.6280   16.8310 O.2   292  GLY292     -0.2717
     15  N         68.8030  -95.7060   16.3610 N.am  293  HIS293     -0.1975
     16  CA        68.0880  -95.4730   15.1110 C.3   293  HIS293      0.1656
     17  C         68.2310  -96.6470   14.1420 C.2   293  HIS293      0.2291
     18  O         67.2640  -97.0240   13.4720 O.2   293  HIS293     -0.2864
     19  CB        68.5560  -94.1780   14.4400 C.3   293  HIS293      0.0771
     20  CG        68.0820  -94.0280   13.0270 C.ar  293  HIS293      0.0820
     21  ND1       66.7920  -93.6600   12.7080 N.ar  293  HIS293     -0.2267
     22  CD2       68.7240  -94.2100   11.8480 C.ar  293  HIS293      0.1154
     23  CE1       66.6620  -93.6180   11.3940 C.ar  293  HIS293      0.1986
     24  NE2       67.8190  -93.9460   10.8490 N.ar  293  HIS293     -0.2212
     25  N         67.1490 -100.0910   15.9170 N.3   296  GLY296     -0.1225
     26  CA        65.7080  -99.9810   16.0950 C.3   296  GLY296      0.1811
     27  C         64.9090  -99.8370   14.8170 C.2   296  GLY296      0.2280
     28  O         63.6780  -99.8410   14.8570 O.2   296  GLY296     -0.2866
     29  N         59.9170 -104.6250   17.9590 N.3   316  LEU316     -0.1231
     30  CA        61.2840 -104.4820   18.4650 C.3   316  LEU316      0.1693
     31  C         61.5440 -103.0560   18.9460 C.2   316  LEU316      0.2592
     32  O         61.2580 -102.0990   18.2310 O.2   316  LEU316     -0.2718
     33  CB        62.3010 -104.8670   17.3810 C.3   316  LEU316      0.0284
     34  CG        63.7920 -104.7110   17.7070 C.3   316  LEU316      0.0019
     35  CD1       64.6070 -105.8130   17.0570 C.3   316  LEU316      0.0001
     36  CD2       64.3150 -103.3440   17.2880 C.3   316  LEU316      0.0001
     37  N         62.0860 -102.9170   20.1530 N.am  317  VAL317     -0.1966
     38  CA        62.5320 -101.6130   20.6400 C.3   317  VAL317      0.1727
     39  C         64.0310 -101.6660   20.9210 C.2   317  VAL317      0.2617
     40  O         64.5090 -102.5760   21.5950 O.2   317  VAL317     -0.2715
     41  CB        61.7610 -101.1610   21.9010 C.3   317  VAL317      0.0290
     42  CG1       62.3070  -99.8330   22.4130 C.3   317  VAL317      0.0023
     43  CG2       60.2650 -101.0350   21.6050 C.3   317  VAL317      0.0023
     44  N         64.7710 -100.6980   20.3900 N.am  318  GLY318     -0.1940
     45  CA        66.2240 -100.6700   20.5550 C.3   318  GLY318      0.2014
     46  C         66.7670  -99.2800   20.8100 C.2   318  GLY318      0.2639
     47  O         66.1880  -98.2960   20.3630 O.2   318  GLY318     -0.2714
     48  N         67.8820  -99.1890   21.5270 N.am  319  GLY319     -0.1939
     49  CA        68.4910  -97.8900   21.7870 C.3   319  GLY319      0.2014
     50  C         68.9510  -97.6990   23.2120 C.2   319  GLY319      0.2639
     51  O         69.0710  -98.6610   23.9740 O.2   319  GLY319     -0.2714
     52  N         69.2070  -96.4470   23.5680 N.am  320  GLN320     -0.1963
     53  CA        69.7650  -96.1250   24.8720 C.3   320  GLN320      0.1733
     54  C         68.6680  -95.8640   25.8990 C.2   320  GLN320      0.2616
     55  O         67.6890  -95.1750   25.6140 O.2   320  GLN320     -0.2715
     56  CB        70.7020  -94.9230   24.7580 C.3   320  GLN320      0.0408
     57  CG        70.0110  -93.6360   24.3180 C.3   320  GLN320      0.0908
     58  CD        70.9720  -92.5720   23.8290 C.2   320  GLN320      0.2608
     59  OE1       72.1230  -92.4960   24.2670 O.2   320  GLN320     -0.2717
     60  NE2       70.4990  -91.7350   22.9140 N.am  320  GLN320     -0.0878
     61  N         68.8390  -96.4400   27.0840 N.am  321  LYS321     -0.1977
     62  CA        67.9250  -96.2450   28.2020 C.3   321  LYS321      0.1596
     63  C         68.6990  -95.5090   29.2870 C.2   321  LYS321      0.2287
     64  O         69.8460  -95.8600   29.5770 O.2   321  LYS321     -0.2864
     65  CB        67.4280  -97.6020   28.7200 C.3   321  LYS321      0.0298
     66  CG        66.2550  -97.5490   29.7110 C.3   321  LYS321      0.0038
     67  CD        65.7610  -98.9640   30.0960 C.3   321  LYS321      0.0206
     68  CE        66.5130  -99.5460   31.3110 C.3   321  LYS321      0.1093
     69  NZ        66.4750 -101.0640   31.3380 N.3   321  LYS321     -0.1314
     70  N         69.5990 -101.2230   25.1210 N.3   331  ILE331     -0.1245
     71  CA        68.6740 -102.3450   25.1050 C.3   331  ILE331      0.1561
     72  C         68.1570 -102.6850   23.7150 C.2   331  ILE331      0.2260
     73  O         68.0440 -101.8190   22.8490 O.2   331  ILE331     -0.2867
     74  CB        67.4800 -102.1160   26.0570 C.3   331  ILE331      0.0252
     75  CG1       66.7890 -100.7770   25.7750 C.3   331  ILE331      0.0019
     76  CG2       67.9190 -102.2090   27.5110 C.3   331  ILE331      0.0019
     77  CD1       65.4920 -100.9470   24.9470 C.3   331  ILE331      0.0001
     78  N         57.0860  -96.9130    8.1790 N.3   566  TYR566     -0.1241
     79  CA        58.0730  -96.6010    9.2010 C.3   566  TYR566      0.1605
     80  C         58.8840  -95.3790    8.8050 C.2   566  TYR566      0.2264
     81  O         58.9410  -94.4010    9.5540 O.2   566  TYR566     -0.2867
     82  CB        59.0010  -97.7820    9.4890 C.3   566  TYR566      0.0534
     83  CG        59.9280  -97.4750   10.6400 C.ar  566  TYR566     -0.0201
     84  CD1       59.4260  -97.3170   11.9360 C.ar  566  TYR566     -0.0009
     85  CD2       61.2970  -97.3020   10.4360 C.ar  566  TYR566     -0.0009
     86  CE1       60.2650  -97.0100   13.0000 C.ar  566  TYR566      0.0417
     87  CE2       62.1480  -97.0010   11.4970 C.ar  566  TYR566      0.0417
     88  CZ        61.6230  -96.8560   12.7730 C.ar  566  TYR566      0.1957
     89  OH        62.4590  -96.5560   13.8200 O.3   566  TYR566     -0.2866
@<TRIPOS>BOND
     1    78    79    1
     2    80    79    1
     3    80    81    2
     4    79    82    1
     5    82    83    1
     6    85    83   ar
     7    85    87   ar
     8    83    84   ar
     9    24    23   ar
    10    24    22   ar
    11    23    21   ar
    12    87    88   ar
    13    22    20   ar
    14    84    86   ar
    15    21    20   ar
    16    88    86   ar
    17    88    89    1
    18    20    19    1
    19    18    17    2
    20    17    16    1
    21    19    16    1
    22    27    28    2
    23    27    26    1
    24    16    15    1
    25    25    26    1
    26    15    13   am
    27    14    13    2
    28    10     8   ar
    29    10     9   ar
    30    35    34    1
    31    13    12    1
    32     8     6   ar
    33     4     3    2
    34    36    34    1
    35    33    34    1
    36    33    30    1
    37     9     7   ar
    38     3     2    1
    39    29    30    1
    40    11    12    1
    41    32    31    2
    42     6     7   ar
    43     6     5    1
    44    30    31    1
    45    31    37   am
    46     5     2    1
    47     2     1    1
    48    37    38    1
    49    47    46    2
    50    44    45    1
    51    44    39   am
    52    45    46    1
    53    38    39    1
    54    38    41    1
    55    46    48   am
    56    39    40    2
    57    48    49    1
    58    43    41    1
    59    49    50    1
    60    41    42    1
    61    73    72    2
    62    60    58   am
    63    50    52   am
    64    50    51    2
    65    52    53    1
    66    72    71    1
    67    58    59    2
    68    58    57    1
    69    57    56    1
    70    56    53    1
    71    53    54    1
    72    77    75    1
    73    71    70    1
    74    71    74    1
    75    55    54    2
    76    75    74    1
    77    54    61   am
    78    74    76    1
    79    61    62    1
    80    62    65    1
    81    62    63    1
    82    65    66    1
    83    63    64    2
    84    66    67    1
    85    67    68    1
    86    68    69    1
