@<TRIPOS>MOLECULE
tmp/3n58D01.pdb
 172 162 0 0 0
SMALL
GASTEIGER

@<TRIPOS>ATOM
      1  N         -4.3790   15.4690   55.9790 N.3    49  LEU49      -0.1231
      2  CA        -5.1590   14.6800   55.0290 C.3    49  LEU49       0.1693
      3  C         -5.3200   15.4550   53.7410 C.2    49  LEU49       0.2592
      4  O         -5.7580   16.6050   53.7840 O.2    49  LEU49      -0.2718
      5  CB        -6.5480   14.4050   55.6110 C.3    49  LEU49       0.0284
      6  CG        -7.4160   13.2030   55.1990 C.3    49  LEU49       0.0019
      7  CD1       -8.8320   13.3240   55.7650 C.3    49  LEU49       0.0001
      8  CD2       -7.4900   13.0720   53.7030 C.3    49  LEU49       0.0001
      9  N         -4.9860   14.8250   52.6090 N.am   50  HIS50      -0.1976
     10  CA        -5.1540   15.4270   51.2820 C.3    50  HIS50       0.1656
     11  C         -6.2500   16.4930   51.2650 C.2    50  HIS50       0.2291
     12  O         -7.4350   16.1800   51.4240 O.2    50  HIS50      -0.2864
     13  CB        -5.5020   14.3730   50.2170 C.3    50  HIS50       0.0771
     14  CG        -4.6780   13.1310   50.2960 C.ar   50  HIS50       0.0820
     15  ND1       -3.3390   13.0980   49.9660 N.ar   50  HIS50      -0.2267
     16  CD2       -5.0050   11.8750   50.6700 C.ar   50  HIS50       0.1154
     17  CE1       -2.8780   11.8740   50.1320 C.ar   50  HIS50       0.1986
     18  NE2       -3.8680   11.1120   50.5610 N.ar   50  HIS50      -0.2212
     19  N         -8.5670   18.1950   49.6640 N.3    52  THR52      -0.1218
     20  CA        -9.4010   18.1040   48.4730 C.3    52  THR52       0.1862
     21  C        -10.8030   18.6350   48.7710 C.2    52  THR52       0.2287
     22  O        -11.1380   18.9300   49.9190 O.2    52  THR52      -0.2866
     23  CB        -9.5630   16.6270   48.0360 C.3    52  THR52       0.1770
     24  OG1      -10.2040   15.8890   49.0890 O.3    52  THR52      -0.2211
     25  CG2       -8.2080   15.9880   47.7400 C.3    52  THR52       0.0375
     26  N        -13.4260   16.8580   48.8520 N.3    54  GLN54      -0.1231
     27  CA       -13.9520   15.8630   49.7890 C.3    54  GLN54       0.1698
     28  C        -13.5420   16.1670   51.2410 C.2    54  GLN54       0.2592
     29  O        -14.3680   16.1410   52.1490 O.2    54  GLN54      -0.2718
     30  CB       -13.4950   14.4380   49.4260 C.3    54  GLN54       0.0381
     31  CG       -14.0470   13.9070   48.1130 C.3    54  GLN54       0.0905
     32  CD       -13.6670   14.7840   46.9450 C.2    54  GLN54       0.2608
     33  OE1      -12.4910   15.1180   46.7630 O.2    54  GLN54      -0.2717
     34  NE2      -14.6650   15.2000   46.1650 N.am   54  GLN54      -0.0878
     35  N        -12.2580   16.4210   51.4540 N.am   55  THR55      -0.1953
     36  CA       -11.7560   16.6950   52.7860 C.3    55  THR55       0.1897
     37  C        -12.3880   18.0000   53.3390 C.2    55  THR55       0.2313
     38  O        -12.7170   18.1050   54.5210 O.2    55  THR55      -0.2863
     39  CB       -10.2180   16.7630   52.7510 C.3    55  THR55       0.1794
     40  OG1       -9.7090   15.4980   52.3210 O.3    55  THR55      -0.2208
     41  CG2       -9.6390   17.1060   54.1110 C.3    55  THR55       0.0378
     42  N         -3.5650   10.7110   58.0160 N.3   127  ASP127     -0.1239
     43  CA        -3.5930    9.8290   56.8430 C.3   127  ASP127      0.1674
     44  C         -2.1610    9.5980   56.3700 C.2   127  ASP127      0.2266
     45  O         -1.5510   10.4750   55.7680 O.2   127  ASP127     -0.2867
     46  CB        -4.4340   10.4570   55.7260 C.3   127  ASP127      0.1410
     47  CG        -4.4320    9.6300   54.4380 C.2   127  ASP127      0.3668
     48  OD1       -3.6670    8.6490   54.3400 O.co2 127  ASP127     -0.2456
     49  OD2       -5.1970    9.9790   53.5120 O.co2 127  ASP127     -0.2456
     50  N         -6.3520    7.0330   58.6840 N.3   187  GLU187     -0.1231
     51  CA        -7.1390    6.7950   57.4750 C.3   187  GLU187      0.1699
     52  C         -6.7210    5.5660   56.6300 C.2   187  GLU187      0.2592
     53  O         -7.5680    4.8090   56.1160 O.2   187  GLU187     -0.2718
     54  CB        -7.0640    8.0590   56.6020 C.3   187  GLU187      0.0402
     55  CG        -7.7050    7.9440   55.2280 C.3   187  GLU187      0.1161
     56  CD        -9.2260    8.0190   55.2880 C.2   187  GLU187      0.3649
     57  OE1       -9.8840    7.4650   54.3740 O.co2 187  GLU187     -0.2457
     58  OE2       -9.7580    8.6300   56.2540 O.co2 187  GLU187     -0.2457
     59  N         -5.4170    5.3730   56.4670 N.am  188  THR188     -0.1953
     60  CA        -4.9530    4.5150   55.3880 C.3   188  THR188      0.1897
     61  C         -4.0370    3.3890   55.8220 C.2   188  THR188      0.2313
     62  O         -3.4230    3.4490   56.8870 O.2   188  THR188     -0.2863
     63  CB        -4.2640    5.3300   54.2670 C.3   188  THR188      0.1794
     64  OG1       -4.2220    4.5540   53.0540 O.3   188  THR188     -0.2208
     65  CG2       -2.8520    5.7480   54.6840 C.3   188  THR188      0.0378
     66  N        -14.7470    1.2870   54.7740 N.3   217  LYS217     -0.1245
     67  CA       -13.6120    2.0560   54.2890 C.3   217  LYS217      0.1561
     68  C        -12.7880    1.2340   53.2960 C.2   217  LYS217      0.2260
     69  O        -12.7490    1.5580   52.1030 O.2   217  LYS217     -0.2867
     70  CB       -12.7350    2.5310   55.4440 C.3   217  LYS217      0.0271
     71  CG       -11.8080    3.6790   55.0850 C.3   217  LYS217      0.0035
     72  CD       -10.6420    3.2340   54.2090 C.3   217  LYS217      0.0206
     73  CE        -9.7550    4.4310   53.8640 C.3   217  LYS217      0.1093
     74  NZ        -8.4530    4.0850   53.2330 N.3   217  LYS217     -0.1314
     75  N        -13.6310    2.7040   49.5720 N.3   221  ASP221     -0.1225
     76  CA       -12.4810    3.5680   49.3060 C.3   221  ASP221      0.1805
     77  C        -11.3170    2.8760   48.5640 C.2   221  ASP221      0.2597
     78  O        -10.9890    3.2310   47.4360 O.2   221  ASP221     -0.2718
     79  CB       -11.9550    4.1170   50.6320 C.3   221  ASP221      0.1424
     80  CG       -10.8250    5.1260   50.4650 C.2   221  ASP221      0.3668
     81  OD1      -10.0030    5.0100   49.5170 O.co2 221  ASP221     -0.2456
     82  OD2      -10.7760    6.0370   51.3210 O.co2 221  ASP221     -0.2456
     83  N        -10.6700    1.9130   49.2160 N.am  222  ASN222     -0.1974
     84  CA        -9.4330    1.3110   48.6900 C.3   222  ASN222      0.1688
     85  C         -9.6130    0.5390   47.3950 C.2   222  ASN222      0.2292
     86  O         -8.6870    0.4320   46.6070 O.2   222  ASN222     -0.2864
     87  CB        -8.7760    0.3690   49.7160 C.3   222  ASN222      0.1181
     88  CG        -8.3220    1.0880   50.9840 C.2   222  ASN222      0.2629
     89  OD1       -9.0790    1.8500   51.5870 O.2   222  ASN222     -0.2716
     90  ND2       -7.0860    0.8330   51.3990 N.am  222  ASN222     -0.0877
     91  N          0.4010    4.2580   42.9940 N.3   330  ILE330     -0.1245
     92  CA        -0.8320    4.6350   43.6790 C.3   330  ILE330      0.1561
     93  C         -0.8520    4.1280   45.1380 C.2   330  ILE330      0.2260
     94  O         -1.8700    4.1900   45.8370 O.2   330  ILE330     -0.2867
     95  CB        -2.0730    4.2300   42.8650 C.3   330  ILE330      0.0252
     96  CG1       -3.3230    4.9250   43.3960 C.3   330  ILE330      0.0019
     97  CG2       -2.2240    2.7320   42.8270 C.3   330  ILE330      0.0019
     98  CD1       -4.5280    4.7370   42.5200 C.3   330  ILE330      0.0001
     99  N          0.8590    4.6130   49.0370 N.3   332  HIS332     -0.1241
    100  CA         0.9420    5.8770   49.7840 C.3   332  HIS332      0.1621
    101  C          2.2330    6.7080   49.6420 C.2   332  HIS332      0.2264
    102  O          2.1980    7.9400   49.8080 O.2   332  HIS332     -0.2867
    103  CB         0.6180    5.6840   51.2800 C.3   332  HIS332      0.0745
    104  CG         0.5570    6.9720   52.0470 C.ar  332  HIS332      0.0817
    105  ND1       -0.5460    7.8010   52.0210 N.ar  332  HIS332     -0.2268
    106  CD2        1.4780    7.5980   52.8200 C.ar  332  HIS332      0.1154
    107  CE1       -0.3080    8.8730   52.7560 C.ar  332  HIS332      0.1986
    108  NE2        0.9140    8.7750   53.2520 N.ar  332  HIS332     -0.2212
    109  N          1.3910    9.2090   44.7200 N.3   373  LEU373     -0.1245
    110  CA         0.0150    8.8130   44.3920 C.3   373  LEU373      0.1561
    111  C         -0.5170    9.5060   43.1590 C.2   373  LEU373      0.2260
    112  O         -0.8240   10.7010   43.1920 O.2   373  LEU373     -0.2867
    113  CB        -0.9630    9.1130   45.5340 C.3   373  LEU373      0.0270
    114  CG        -0.5330    9.0800   46.9930 C.3   373  LEU373      0.0019
    115  CD1       -0.4500   10.4970   47.4510 C.3   373  LEU373      0.0001
    116  CD2       -1.5410    8.3770   47.8570 C.3   373  LEU373      0.0001
    117  N         -3.3420    9.0640   41.3890 N.3   375  ASN375     -0.1225
    118  CA        -4.7530    9.4480   41.3740 C.3   375  ASN375      0.1785
    119  C         -4.9910   10.8650   41.8880 C.2   375  ASN375      0.2597
    120  O         -5.7410   11.6400   41.2840 O.2   375  ASN375     -0.2718
    121  CB        -5.6660    8.4280   42.0910 C.3   375  ASN375      0.1169
    122  CG        -5.2830    8.1950   43.5420 C.2   375  ASN375      0.2627
    123  OD1       -4.1080    8.2330   43.9100 O.2   375  ASN375     -0.2716
    124  ND2       -6.2900    7.9320   44.3740 N.am  375  ASN375     -0.0877
    125  N         -4.3230   11.1980   42.9880 N.am  376  LEU376     -0.1980
    126  CA        -4.4330   12.5090   43.6190 C.3   376  LEU376      0.1596
    127  C         -3.5100   13.5470   42.9860 C.2   376  LEU376      0.2287
    128  O         -3.8440   14.7260   42.9480 O.2   376  LEU376     -0.2864
    129  CB        -4.1370   12.3900   45.1220 C.3   376  LEU376      0.0297
    130  CG        -5.2840   11.8010   45.9480 C.3   376  LEU376      0.0022
    131  CD1       -4.7680   10.8090   46.9810 C.3   376  LEU376      0.0001
    132  CD2       -6.1100   12.9180   46.6000 C.3   376  LEU376      0.0001
    133  N         -7.7920   14.1540   40.8200 N.3   380  THR380     -0.1203
    134  CA        -8.3860   14.6730   42.0340 C.3   380  THR380      0.1994
    135  C         -8.7040   13.5550   43.0280 C.2   380  THR380      0.2618
    136  O         -9.5440   13.7260   43.8800 O.2   380  THR380     -0.2717
    137  CB        -9.6760   15.4640   41.7110 C.3   380  THR380      0.1784
    138  OG1      -10.6570   14.5850   41.1580 O.3   380  THR380     -0.2211
    139  CG2       -9.4010   16.5440   40.6970 C.3   380  THR380      0.0376
    140  N         -8.0360   12.4100   42.9290 N.am  381  GLY381     -0.1942
    141  CA        -8.3380   11.3010   43.8200 C.3   381  GLY381      0.2014
    142  C         -9.7840   10.8400   43.7250 C.2   381  GLY381      0.2638
    143  O        -10.4590   11.0500   42.7080 O.2   381  GLY381     -0.2714
    144  N        -10.2700   10.2090   44.7870 N.am  382  HIS382     -0.1973
    145  CA       -11.5190    9.4350   44.7110 C.3   382  HIS382      0.1656
    146  C        -12.7110   10.3610   44.6800 C.2   382  HIS382      0.2291
    147  O        -12.6710   11.3920   45.2840 O.2   382  HIS382     -0.2864
    148  CB       -11.6870    8.5130   45.9380 C.3   382  HIS382      0.0771
    149  CG       -10.6100    7.4750   46.0940 C.ar  382  HIS382      0.0820
    150  ND1       -9.6960    7.1870   45.1110 N.ar  382  HIS382     -0.2267
    151  CD2      -10.3150    6.6680   47.1370 C.ar  382  HIS382      0.1154
    152  CE1       -8.8750    6.2420   45.5380 C.ar  382  HIS382      0.1986
    153  NE2       -9.2310    5.9070   46.7580 N.ar  382  HIS382     -0.2212
    154  N        -15.6230    8.8320   49.2980 N.3   387  MET387     -0.1245
    155  CA       -14.9680    9.5110   50.4090 C.3   387  MET387      0.1570
    156  C        -15.9480    9.7860   51.5360 C.2   387  MET387      0.2261
    157  O        -15.5510    9.8330   52.6820 O.2   387  MET387     -0.2867
    158  CB       -14.2780   10.7960   49.9480 C.3   387  MET387      0.0387
    159  CG       -13.1170   10.5370   48.9890 C.3   387  MET387      0.0595
    160  SD       -12.0590    9.1910   49.5600 S.3   387  MET387     -0.1393
    161  CE       -11.5250    9.8390   51.1530 C.3   387  MET387      0.0692
    162  N        -15.0520    8.9640   55.1680 N.3   391  PHE391     -0.1241
    163  CA       -14.9680   10.0730   56.1220 C.3   391  PHE391      0.1605
    164  C        -16.0360   10.0330   57.2330 C.2   391  PHE391      0.2264
    165  O        -15.8640   10.6590   58.2670 O.2   391  PHE391     -0.2867
    166  CB       -15.0150   11.4220   55.3920 C.3   391  PHE391      0.0534
    167  CG       -13.7520   11.7590   54.6600 C.ar  391  PHE391     -0.0203
    168  CD1      -12.5970   11.0250   54.8730 C.ar  391  PHE391     -0.0042
    169  CD2      -13.7200   12.8210   53.7650 C.ar  391  PHE391     -0.0042
    170  CE1      -11.4280   11.3610   54.2030 C.ar  391  PHE391     -0.0003
    171  CE2      -12.5600   13.1620   53.0920 C.ar  391  PHE391     -0.0003
    172  CZ       -11.4110   12.4310   53.3100 C.ar  391  PHE391     -0.0000
@<TRIPOS>BOND
     1   139   137    1
     2   133   134    1
     3   138   137    1
     4   120   119    2
     5   118   117    1
     6   118   119    1
     7   118   121    1
     8   137   134    1
     9   119   125   am
    10   134   135    1
    11   121   122    1
    12    98    96    1
    13   143   142    2
    14    97    95    1
    15    95    96    1
    16    95    92    1
    17   140   135   am
    18   140   141    1
    19   128   127    2
    20   127   126    1
    21   125   126    1
    22    91    92    1
    23   135   136    2
    24   111   112    2
    25   111   110    1
    26   122   123    2
    27   122   124   am
    28   126   129    1
    29    92    93    1
    30   142   141    1
    31   142   144   am
    32   110   109    1
    33   110   113    1
    34   146   145    1
    35   146   147    2
    36   145   144    1
    37   145   148    1
    38   150   152   ar
    39   150   149   ar
    40   129   130    1
    41    93    94    2
    42   113   114    1
    43   152   153   ar
    44   148   149    1
    45   130   132    1
    46   130   131    1
    47   149   151   ar
    48    34    32   am
    49    86    85    2
    50   153   151   ar
    51    33    32    2
    52    32    31    1
    53   114   115    1
    54   114   116    1
    55    85    84    1
    56    78    77    2
    57    25    23    1
    58    23    20    1
    59    23    24    1
    60    31    30    1
    61    20    21    1
    62    20    19    1
    63    77    83   am
    64    77    76    1
    65    84    83    1
    66    84    87    1
    67    21    22    2
    68    26    27    1
    69   159   160    1
    70   159   158    1
    71    99   100    1
    72   154   155    1
    73    76    75    1
    74    76    79    1
    75    30    27    1
    76    81    80   ar
    77   160   161    1
    78   101   100    1
    79   101   102    2
    80    87    88    1
    81   100   103    1
    82    27    28    1
    83   158   155    1
    84    15    17   ar
    85    15    14   ar
    86    17    18   ar
    87    13    14    1
    88    13    10    1
    89    14    16   ar
    90   155   156    1
    91    80    79    1
    92    80    82   ar
    93    18    16   ar
    94    88    90   am
    95    88    89    2
    96    28    35   am
    97    28    29    2
    98    11    10    1
    99    11    12    2
   100   103   104    1
   101    10     9    1
   102    35    36    1
   103   156   157    2
   104   105   104   ar
   105   105   107   ar
   106   104   106   ar
   107    69    68    2
   108    40    39    1
   109     9     3   am
   110    39    36    1
   111    39    41    1
   112   107   108   ar
   113    36    37    1
   114   106   108   ar
   115    64    63    1
   116   171   172   ar
   117   171   169   ar
   118    74    73    1
   119    68    67    1
   120   172   170   ar
   121    37    38    2
   122    49    47   ar
   123     8     6    1
   124     3     4    2
   125     3     2    1
   126   169   167   ar
   127    73    72    1
   128   170   168   ar
   129    72    71    1
   130    63    65    1
   131    63    60    1
   132    67    66    1
   133    67    70    1
   134    48    47   ar
   135    57    56   ar
   136    47    46    1
   137   167   168   ar
   138   167   166    1
   139     2     5    1
   140     2     1    1
   141    71    70    1
   142   162   163    1
   143     6     5    1
   144     6     7    1
   145    55    56    1
   146    55    54    1
   147    56    58   ar
   148    60    61    1
   149    60    59    1
   150   166   163    1
   151    46    43    1
   152    45    44    2
   153    61    62    2
   154    53    52    2
   155   163   164    1
   156    44    43    1
   157    59    52   am
   158    54    51    1
   159    52    51    1
   160    43    42    1
   161   164   165    2
   162    51    50    1
