@<TRIPOS>MOLECULE
tmp/3n59C00.pdb
 125 119 0 0 0
SMALL
GASTEIGER

@<TRIPOS>ATOM
      1  N        -13.5530   56.1990  -31.2150 N.3    10  PRO10      -0.2102
      2  CA       -14.1950   56.1730  -32.5330 C.3    10  PRO10       0.1504
      3  C        -15.3640   57.1480  -32.7040 C.2    10  PRO10       0.2576
      4  O        -16.1980   57.2850  -31.8050 O.2    10  PRO10      -0.2718
      5  CB       -14.6900   54.7280  -32.6450 C.3    10  PRO10       0.0282
      6  CG       -13.7240   53.9520  -31.8320 C.3    10  PRO10       0.0208
      7  CD       -13.3970   54.8380  -30.6650 C.3    10  PRO10       0.0893
      8  N        -15.3940   57.8140  -33.8590 N.am   11  ASN11      -0.1961
      9  CA       -16.4930   58.7000  -34.2830 C.3    11  ASN11       0.1819
     10  C        -16.5600   60.0790  -33.6200 C.2    11  ASN11       0.2621
     11  O        -17.3930   60.9070  -33.9950 O.2    11  ASN11      -0.2715
     12  CB       -17.8530   57.9890  -34.1840 C.3    11  ASN11       0.1195
     13  CG       -17.9260   56.7460  -35.0460 C.2    11  ASN11       0.2630
     14  OD1      -17.5610   56.7660  -36.2220 O.2    11  ASN11      -0.2716
     15  ND2      -18.4020   55.6520  -34.4630 N.am   11  ASN11      -0.0877
     16  N        -15.6860   60.3320  -32.6500 N.am   12  LEU12      -0.1977
     17  CA       -15.7000   61.6080  -31.9340 C.3    12  LEU12       0.1596
     18  C        -14.9730   62.7220  -32.6870 C.2    12  LEU12       0.2287
     19  O        -15.0930   63.8970  -32.3360 O.2    12  LEU12      -0.2864
     20  CB       -15.1720   61.4440  -30.5040 C.3    12  LEU12       0.0297
     21  CG       -16.1510   60.7180  -29.5710 C.3    12  LEU12       0.0022
     22  CD1      -15.4190   60.0340  -28.4360 C.3    12  LEU12       0.0001
     23  CD2      -17.2390   61.6510  -29.0370 C.3    12  LEU12       0.0001
     24  N        -22.3620   65.0300  -36.7840 N.3    18  ARG18      -0.1245
     25  CA       -22.8590   63.7050  -36.3990 C.3    18  ARG18       0.1563
     26  C        -23.9240   63.7900  -35.3050 C.2    18  ARG18       0.2260
     27  O        -23.6900   64.3650  -34.2360 O.2    18  ARG18      -0.2867
     28  CB       -21.7190   62.7260  -36.0460 C.3    18  ARG18       0.0307
     29  CG       -21.3600   62.5550  -34.5700 C.3    18  ARG18       0.0489
     30  CD       -21.1060   61.0810  -34.2540 C.3    18  ARG18       0.2205
     31  NE       -20.3810   60.8890  -32.9980 N.pl3  18  ARG18      -0.0865
     32  CZ       -20.3780   59.7660  -32.2810 C.cat  18  ARG18       0.5346
     33  NH1      -21.0760   58.7050  -32.6720 N.pl3  18  ARG18       0.1354
     34  NH2      -19.6790   59.7050  -31.1570 N.pl3  18  ARG18       0.1354
     35  N        -25.3750   64.8410  -29.7820 N.3    23  TYR23      -0.1241
     36  CA       -24.0250   65.2470  -29.3650 C.3    23  TYR23       0.1605
     37  C        -23.7410   66.7550  -29.4460 C.2    23  TYR23       0.2264
     38  O        -22.7830   67.2390  -28.8350 O.2    23  TYR23      -0.2867
     39  CB       -22.9580   64.4550  -30.1350 C.3    23  TYR23       0.0534
     40  CG       -23.1600   62.9530  -30.1000 C.ar   23  TYR23      -0.0201
     41  CD1      -22.9630   62.2280  -28.9210 C.ar   23  TYR23      -0.0009
     42  CD2      -23.5470   62.2550  -31.2450 C.ar   23  TYR23      -0.0009
     43  CE1      -23.1520   60.8490  -28.8840 C.ar   23  TYR23       0.0417
     44  CE2      -23.7370   60.8740  -31.2200 C.ar   23  TYR23       0.0417
     45  CZ       -23.5370   60.1780  -30.0360 C.ar   23  TYR23       0.1957
     46  OH       -23.7220   58.8140  -30.0040 O.3    23  TYR23      -0.2866
     47  N        -13.2830   59.3430  -23.3220 N.3    74  ASN74      -0.1240
     48  CA       -14.5470   59.0930  -24.0000 C.3    74  ASN74       0.1653
     49  C        -14.2620   58.0880  -25.1080 C.2    74  ASN74       0.2266
     50  O        -13.8080   58.4510  -26.1940 O.2    74  ASN74      -0.2867
     51  CB       -15.1250   60.3950  -24.5650 C.3    74  ASN74       0.1155
     52  CG       -16.5280   60.2260  -25.1450 C.2    74  ASN74       0.2627
     53  OD1      -17.0060   59.1100  -25.3620 O.2    74  ASN74      -0.2716
     54  ND2      -17.1910   61.3470  -25.4020 N.am   74  ASN74      -0.0877
     55  N        -16.1810   56.2490  -26.8780 N.3    76  GLY76      -0.1210
     56  CA       -17.2100   56.0860  -27.9000 C.3    76  GLY76       0.1956
     57  C        -17.8420   54.7070  -27.8370 C.2    76  GLY76       0.2612
     58  O        -18.1980   54.2310  -26.7560 O.2    76  GLY76      -0.2717
     59  N        -17.9650   54.0620  -28.9960 N.am   77  GLY77      -0.1956
     60  CA       -18.5590   52.7270  -29.0930 C.3    77  GLY77       0.1869
     61  C        -17.8130   51.6540  -28.3180 C.2    77  GLY77       0.2309
     62  O        -18.4120   50.6760  -27.8690 O.2    77  GLY77      -0.2863
     63  N        -18.7280   50.1020  -24.6390 N.3    80  HIS80      -0.1241
     64  CA       -19.6450   48.9960  -24.3940 C.3    80  HIS80       0.1621
     65  C        -19.1350   47.6550  -24.9240 C.2    80  HIS80       0.2264
     66  O        -19.8000   46.6300  -24.7550 O.2    80  HIS80      -0.2867
     67  CB       -21.0210   49.3050  -25.0020 C.3    80  HIS80       0.0745
     68  CG       -21.4040   50.7510  -24.9360 C.ar   80  HIS80       0.0817
     69  ND1      -21.7950   51.3660  -23.7670 N.ar   80  HIS80      -0.2268
     70  CD2      -21.4510   51.7050  -25.8960 C.ar   80  HIS80       0.1154
     71  CE1      -22.0640   52.6360  -24.0080 C.ar   80  HIS80       0.1986
     72  NE2      -21.8660   52.8680  -25.2940 N.ar   80  HIS80      -0.2212
     73  N        -19.2100   60.7730  -21.1600 N.3   100  HIS100     -0.1226
     74  CA       -20.1480   60.6380  -22.2680 C.3   100  HIS100      0.1752
     75  C        -20.8720   61.9620  -22.4780 C.2   100  HIS100      0.2596
     76  O        -21.3710   62.5610  -21.5220 O.2   100  HIS100     -0.2718
     77  CB       -21.1620   59.5220  -22.0010 C.3   100  HIS100      0.0759
     78  CG       -20.5640   58.1500  -21.9890 C.ar  100  HIS100      0.0818
     79  ND1      -20.3360   57.4280  -23.1420 N.ar  100  HIS100     -0.2268
     80  CD2      -20.1520   57.3660  -20.9660 C.ar  100  HIS100      0.1154
     81  CE1      -19.8060   56.2600  -22.8280 C.ar  100  HIS100      0.1986
     82  NE2      -19.6840   56.1970  -21.5140 N.ar  100  HIS100     -0.2212
     83  N        -20.9160   62.4160  -23.7290 N.am  101  ILE101     -0.1966
     84  CA       -21.6000   63.6600  -24.0890 C.3   101  ILE101      0.1727
     85  C        -23.1180   63.5110  -23.9500 C.2   101  ILE101      0.2616
     86  O        -23.7630   64.3240  -23.2870 O.2   101  ILE101     -0.2715
     87  CB       -21.2140   64.1440  -25.5190 C.3   101  ILE101      0.0290
     88  CG1      -19.7090   64.4340  -25.5990 C.3   101  ILE101      0.0022
     89  CG2      -22.0210   65.3890  -25.9150 C.3   101  ILE101      0.0023
     90  CD1      -19.1830   64.6520  -27.0090 C.3   101  ILE101      0.0001
     91  N        -23.6740   62.4720  -24.5670 N.am  102  SER102     -0.1950
     92  CA       -25.1070   62.1930  -24.4900 C.3   102  SER102      0.1924
     93  C        -25.4430   61.4230  -23.2160 C.2   102  SER102      0.2314
     94  O        -24.5810   60.7450  -22.6520 O.2   102  SER102     -0.2863
     95  CB       -25.5600   61.3870  -25.7140 C.3   102  SER102      0.2116
     96  OG       -25.0650   60.0560  -25.6690 O.3   102  SER102     -0.2180
     97  N        -26.3170   58.4570  -21.8280 N.3   104  VAL104     -0.1245
     98  CA       -26.2090   57.0880  -22.3140 C.3   104  VAL104      0.1561
     99  C        -27.3140   56.1630  -21.7700 C.2   104  VAL104      0.2260
    100  O        -27.5090   55.0550  -22.2780 O.2   104  VAL104     -0.2867
    101  CB       -24.7850   56.5360  -22.0160 C.3   104  VAL104      0.0252
    102  CG1      -24.7260   55.8190  -20.6630 C.3   104  VAL104      0.0019
    103  CG2      -24.3050   55.6450  -23.1450 C.3   104  VAL104      0.0019
    104  N        -31.1010   56.2100  -23.9430 N.3   107  ARG107     -0.1245
    105  CA       -31.0460   55.6770  -25.3070 C.3   107  ARG107      0.1563
    106  C        -31.2080   54.1500  -25.2920 C.2   107  ARG107      0.2260
    107  O        -31.8970   53.6140  -24.4210 O.2   107  ARG107     -0.2867
    108  CB       -29.7360   56.0980  -25.9860 C.3   107  ARG107      0.0307
    109  CG       -29.4980   57.6110  -26.0000 C.3   107  ARG107      0.0489
    110  CD       -28.0870   57.9660  -26.4440 C.3   107  ARG107      0.2205
    111  NE       -27.8630   57.6590  -27.8560 N.pl3 107  ARG107     -0.0865
    112  CZ       -26.6740   57.6650  -28.4550 C.cat 107  ARG107      0.5346
    113  NH1      -25.5730   57.9650  -27.7730 N.pl3 107  ARG107      0.1354
    114  NH2      -26.5860   57.3660  -29.7430 N.pl3 107  ARG107      0.1354
    115  N        -26.2680   50.5500  -24.4560 N.3   111  ARG111     -0.1245
    116  CA       -25.4200   51.6770  -24.0810 C.3   111  ARG111      0.1563
    117  C        -25.3740   51.8820  -22.5670 C.2   111  ARG111      0.2260
    118  O        -24.5600   52.6590  -22.0630 O.2   111  ARG111     -0.2867
    119  CB       -25.8870   52.9590  -24.7740 C.3   111  ARG111      0.0307
    120  CG       -25.6130   53.0000  -26.2660 C.3   111  ARG111      0.0489
    121  CD       -25.9210   54.3680  -26.8600 C.3   111  ARG111      0.2205
    122  NE       -26.2330   54.2710  -28.2850 N.pl3 111  ARG111     -0.0865
    123  CZ       -25.3310   54.2420  -29.2630 C.cat 111  ARG111      0.5346
    124  NH1      -24.0340   54.3110  -28.9900 N.pl3 111  ARG111      0.1354
    125  NH2      -25.7300   54.1400  -30.5230 N.pl3 111  ARG111      0.1354
@<TRIPOS>BOND
     1    24    25    1
     2    25    28    1
     3    25    26    1
     4    14    13    2
     5    28    29    1
     6    26    27    2
     7    13    15   am
     8    13    12    1
     9    29    30    1
    10     9    12    1
    11     9     8    1
    12     9    10    1
    13    30    31    1
    14    11    10    2
    15     8     3   am
    16    10    16   am
    17    31    32    2
    18     3     2    1
    19     3     4    2
    20    18    19    2
    21    18    17    1
    22    33    32    1
    23    16    17    1
    24     5     2    1
    25     5     6    1
    26     2     1    1
    27    32    34    1
    28    17    20    1
    29     6     7    1
    30    42    44   ar
    31    42    40   ar
    32    44    45   ar
    33     1     7    1
    34   125   123    1
    35    20    21    1
    36    39    40    1
    37    39    36    1
    38    40    41   ar
    39    45    46    1
    40    45    43   ar
    41    35    36    1
    42   114   112    1
    43    21    23    1
    44    21    22    1
    45    37    36    1
    46    37    38    2
    47   123   124    1
    48   123   122    2
    49    60    59    1
    50    60    61    1
    51    59    57   am
    52    41    43   ar
    53   112   111    2
    54   112   113    1
    55    61    62    2
    56   122   121    1
    57    56    57    1
    58    56    55    1
    59   111   110    1
    60    57    58    2
    61    90    88    1
    62   121   120    1
    63   110   109    1
    64   120   119    1
    65    50    49    2
    66   109   108    1
    67   108   105    1
    68    89    87    1
    69    70    72   ar
    70    70    68   ar
    71    95    96    1
    72    95    92    1
    73    88    87    1
    74    87    84    1
    75    54    52   am
    76    53    52    2
    77   105   106    1
    78   105   104    1
    79    72    71   ar
    80   106   107    2
    81    52    51    1
    82    49    48    1
    83    67    68    1
    84    67    64    1
    85    68    69   ar
    86    65    66    2
    87    65    64    1
    88   119   116    1
    89    63    64    1
    90    91    92    1
    91    91    85   am
    92    51    48    1
    93    92    93    1
    94   115   116    1
    95    84    85    1
    96    84    83    1
    97   116   117    1
    98    71    69   ar
    99    48    47    1
   100    85    86    2
   101    83    75   am
   102    93    94    2
   103   103   101    1
   104    79    81   ar
   105    79    78   ar
   106    81    82   ar
   107   117   118    2
   108    75    74    1
   109    75    76    2
   110    98   101    1
   111    98    97    1
   112    98    99    1
   113   100    99    2
   114    74    77    1
   115    74    73    1
   116   101   102    1
   117    77    78    1
   118    78    80   ar
   119    82    80   ar
