@<TRIPOS>MOLECULE
tmp/3n5dA01.pdb
 127 123 0 0 0
SMALL
GASTEIGER

@<TRIPOS>ATOM
      1  N         -5.9830  -28.6220  -12.9170 N.3    69  VAL69      -0.1231
      2  CA        -5.0020  -27.6360  -12.4770 C.3    69  VAL69       0.1692
      3  C         -5.3400  -26.2150  -12.9410 C.2    69  VAL69       0.2592
      4  O         -4.4410  -25.4160  -13.2040 O.2    69  VAL69      -0.2718
      5  CB        -3.5840  -27.9970  -12.9620 C.3    69  VAL69       0.0266
      6  CG1       -2.5420  -27.1990  -12.1940 C.3    69  VAL69       0.0020
      7  CG2       -3.3380  -29.4910  -12.8140 C.3    69  VAL69       0.0020
      8  N         -6.6300  -25.9030  -13.0360 N.am   70  TYR70      -0.1962
      9  CA        -7.0700  -24.5470  -13.4250 C.3    70  TYR70       0.1771
     10  C         -7.3550  -23.8070  -12.1820 C.2    70  TYR70       0.2619
     11  O         -8.0830  -24.2630  -11.3300 O.2    70  TYR70      -0.2715
     12  CB        -8.3440  -24.5310  -14.2490 C.3    70  TYR70       0.0574
     13  CG        -8.2180  -25.1110  -15.6380 C.ar   70  TYR70      -0.0198
     14  CD1       -9.3630  -25.2870  -16.4350 C.ar   70  TYR70      -0.0009
     15  CD2       -6.9990  -25.5620  -16.1310 C.ar   70  TYR70      -0.0009
     16  CE1       -9.2790  -25.8930  -17.7270 C.ar   70  TYR70       0.0417
     17  CE2       -6.8870  -26.1470  -17.4150 C.ar   70  TYR70       0.0417
     18  CZ        -8.0280  -26.3130  -18.2030 C.ar   70  TYR70       0.1957
     19  OH        -7.9450  -26.8860  -19.4670 O.3    70  TYR70      -0.2866
     20  N         -6.8140  -22.6110  -12.1170 N.am   71  ILE71      -0.1977
     21  CA        -7.1320  -21.6850  -11.0010 C.3    71  ILE71       0.1596
     22  C         -8.5780  -21.1720  -11.1670 C.2    71  ILE71       0.2287
     23  O         -8.9700  -20.7820  -12.2700 O.2    71  ILE71      -0.2864
     24  CB        -6.0880  -20.5360  -10.9940 C.3    71  ILE71       0.0276
     25  CG1       -4.7200  -21.1420  -10.6020 C.3    71  ILE71       0.0022
     26  CG2       -6.5740  -19.4040  -10.1040 C.3    71  ILE71       0.0022
     27  CD1       -3.5070  -20.1820  -10.6790 C.3    71  ILE71       0.0001
     28  N        -12.8370  -16.0310  -11.4860 N.3    83  PHE83      -0.1241
     29  CA       -13.0010  -15.7680  -12.9150 C.3    83  PHE83       0.1605
     30  C        -14.4590  -15.7360  -13.3890 C.2    83  PHE83       0.2264
     31  O        -15.3420  -16.3390  -12.7800 O.2    83  PHE83      -0.2867
     32  CB       -12.2260  -16.8240  -13.6830 C.3    83  PHE83       0.0534
     33  CG       -10.7310  -16.6350  -13.6150 C.ar   83  PHE83      -0.0203
     34  CD1      -10.1420  -15.4310  -14.0740 C.ar   83  PHE83      -0.0042
     35  CD2       -9.9220  -17.6360  -13.0530 C.ar   83  PHE83      -0.0042
     36  CE1       -8.7540  -15.2540  -14.0450 C.ar   83  PHE83      -0.0003
     37  CE2       -8.4970  -17.5130  -13.0560 C.ar   83  PHE83      -0.0003
     38  CZ        -7.9100  -16.3000  -13.5240 C.ar   83  PHE83      -0.0000
     39  N        -10.5540  -17.2450  -17.1260 N.3   109  GLY109     -0.1210
     40  CA        -9.1780  -17.5940  -16.8350 C.3   109  GLY109      0.1956
     41  C         -8.2910  -18.0510  -17.9780 C.2   109  GLY109      0.2612
     42  O         -7.1500  -18.4380  -17.7670 O.2   109  GLY109     -0.2717
     43  N         -8.7640  -18.0590  -19.2050 N.am  110  ASN110     -0.1960
     44  CA        -7.8260  -18.5570  -20.1870 C.3   110  ASN110      0.1819
     45  C         -6.8150  -17.5320  -20.6740 C.2   110  ASN110      0.2621
     46  O         -7.0270  -16.2940  -20.5730 O.2   110  ASN110     -0.2715
     47  CB        -8.5320  -19.1440  -21.3520 C.3   110  ASN110      0.1195
     48  CG        -9.2440  -18.1440  -22.0990 C.2   110  ASN110      0.2630
     49  OD1       -8.7500  -17.5800  -23.1230 O.2   110  ASN110     -0.2716
     50  ND2      -10.4310  -17.8920  -21.6480 N.am  110  ASN110     -0.0877
     51  N         -5.7060  -18.0540  -21.1720 N.am  111  TYR111     -0.1974
     52  CA        -4.6010  -17.2200  -21.4950 C.3   111  TYR111      0.1639
     53  C         -5.0170  -16.0820  -22.4160 C.2   111  TYR111      0.2290
     54  O         -4.6540  -14.9410  -22.1590 O.2   111  TYR111     -0.2864
     55  CB        -3.4890  -18.0360  -22.1350 C.3   111  TYR111      0.0560
     56  CG        -2.6300  -18.7510  -21.1180 C.ar  111  TYR111     -0.0198
     57  CD1       -2.1650  -18.1090  -19.9870 C.ar  111  TYR111     -0.0009
     58  CD2       -2.2190  -20.0710  -21.3430 C.ar  111  TYR111     -0.0009
     59  CE1       -1.3350  -18.7880  -19.0520 C.ar  111  TYR111      0.0417
     60  CE2       -1.3840  -20.7480  -20.4330 C.ar  111  TYR111      0.0417
     61  CZ        -0.9590  -20.1150  -19.2810 C.ar  111  TYR111      0.1957
     62  OH        -0.1360  -20.8310  -18.4120 O.3   111  TYR111     -0.2866
     63  N         -6.9320  -13.3010  -20.5440 N.3   114  LEU114     -0.1245
     64  CA        -6.0780  -12.6120  -19.5240 C.3   114  LEU114      0.1561
     65  C         -5.0740  -11.6930  -20.1960 C.2   114  LEU114      0.2260
     66  O         -4.8070  -10.6290  -19.6700 O.2   114  LEU114     -0.2867
     67  CB        -5.3410  -13.6370  -18.6390 C.3   114  LEU114      0.0270
     68  CG        -6.1690  -14.3790  -17.5980 C.3   114  LEU114      0.0019
     69  CD1       -5.4050  -15.6280  -17.0620 C.3   114  LEU114      0.0001
     70  CD2       -6.4300  -13.3910  -16.4350 C.3   114  LEU114      0.0001
     71  N         -0.3380  -18.2630  -12.6120 N.3   155  ILE155     -0.1245
     72  CA        -0.6990  -19.5510  -13.2390 C.3   155  ILE155      0.1561
     73  C          0.5860  -20.2790  -13.6890 C.2   155  ILE155      0.2260
     74  O          0.7240  -21.5030  -13.4910 O.2   155  ILE155     -0.2867
     75  CB        -1.6550  -19.3180  -14.4510 C.3   155  ILE155      0.0252
     76  CG1       -3.0220  -18.8800  -13.8570 C.3   155  ILE155      0.0019
     77  CG2       -1.8660  -20.6040  -15.2640 C.3   155  ILE155      0.0019
     78  CD1       -3.9640  -18.2700  -14.9400 C.3   155  ILE155      0.0001
     79  N          1.5980  -24.3500  -14.1920 N.3   160  GLU160     -0.1245
     80  CA         2.3750  -24.8160  -15.3270 C.3   160  GLU160      0.1567
     81  C          3.6620  -25.5480  -14.8760 C.2   160  GLU160      0.2260
     82  O          4.0640  -26.5500  -15.4590 O.2   160  GLU160     -0.2867
     83  CB         2.6640  -23.7100  -16.3520 C.3   160  GLU160      0.0388
     84  CG         1.3670  -23.0970  -16.8850 C.3   160  GLU160      0.1160
     85  CD         0.5920  -23.9510  -17.9430 C.2   160  GLU160      0.3649
     86  OE1        0.7830  -25.2030  -18.1170 O.co2 160  GLU160     -0.2457
     87  OE2       -0.2390  -23.3270  -18.5940 O.co2 160  GLU160     -0.2457
     88  N          2.7950  -29.0590  -13.8270 N.3   163  ARG163     -0.1245
     89  CA         2.5620  -29.8730  -15.0040 C.3   163  ARG163      0.1563
     90  C          3.8120  -30.3150  -15.7300 C.2   163  ARG163      0.2260
     91  O          3.8460  -31.4310  -16.2800 O.2   163  ARG163     -0.2867
     92  CB         1.6860  -29.1160  -15.9920 C.3   163  ARG163      0.0307
     93  CG         0.2630  -28.9530  -15.5440 C.3   163  ARG163      0.0489
     94  CD        -0.4940  -28.0910  -16.5850 C.3   163  ARG163      0.2205
     95  NE        -1.8580  -27.8210  -16.1220 N.pl3 163  ARG163     -0.0865
     96  CZ        -2.5090  -26.7030  -16.4380 C.cat 163  ARG163      0.5346
     97  NH1       -1.8870  -25.7910  -17.2000 N.pl3 163  ARG163      0.1354
     98  NH2       -3.7270  -26.4730  -15.9750 N.pl3 163  ARG163      0.1354
     99  N          3.1010  -25.1300  -22.2840 N.3   189  GLU189     -0.1245
    100  CA         1.8220  -24.6220  -21.7650 C.3   189  GLU189      0.1567
    101  C          0.7160  -24.8010  -22.7690 C.2   189  GLU189      0.2260
    102  O         -0.3600  -25.3400  -22.4780 O.2   189  GLU189     -0.2867
    103  CB         1.9400  -23.1230  -21.4470 C.3   189  GLU189      0.0388
    104  CG         2.9260  -22.8620  -20.2750 C.3   189  GLU189      0.1160
    105  CD         3.2050  -21.3650  -20.1040 C.2   189  GLU189      0.3649
    106  OE1        2.8250  -20.5970  -21.0120 O.co2 189  GLU189     -0.2457
    107  OE2        3.7870  -20.9810  -19.0390 O.co2 189  GLU189     -0.2457
    108  N         -0.3580  -28.7680  -23.4280 N.3   192  TRP192     -0.1227
    109  CA        -0.5960  -29.6570  -22.3260 C.3   192  TRP192      0.1737
    110  C         -1.7940  -30.5760  -22.5530 C.2   192  TRP192      0.2596
    111  O         -1.7050  -31.7740  -22.3510 O.2   192  TRP192     -0.2718
    112  CB        -0.7930  -28.9240  -21.0310 C.3   192  TRP192      0.0564
    113  CG        -0.9720  -29.8830  -19.8690 C.ar  192  TRP192      0.0003
    114  CD1       -0.0350  -30.7750  -19.4120 C.ar  192  TRP192      0.0946
    115  CD2       -2.0800  -29.9570  -18.9270 C.ar  192  TRP192      0.0152
    116  NE1       -0.5100  -31.4400  -18.3060 N.ar  192  TRP192     -0.2442
    117  CE2       -1.7470  -30.9530  -17.9720 C.ar  192  TRP192      0.0810
    118  CE3       -3.3280  -29.3000  -18.8230 C.ar  192  TRP192      0.0012
    119  CZ2       -2.6050  -31.3150  -16.8980 C.ar  192  TRP192      0.0191
    120  CZ3       -4.1830  -29.6480  -17.7360 C.ar  192  TRP192      0.0001
    121  CH2       -3.8190  -30.6630  -16.8160 C.ar  192  TRP192      0.0015
    122  N         -2.9040  -30.0050  -22.9700 N.am  193  SER193     -0.1952
    123  CA        -4.0390  -30.7890  -23.3480 C.3   193  SER193      0.1924
    124  C         -3.7120  -31.7900  -24.4910 C.2   193  SER193      0.2314
    125  O         -4.0080  -32.9950  -24.3940 O.2   193  SER193     -0.2863
    126  CB        -5.2030  -29.8650  -23.7330 C.3   193  SER193      0.2116
    127  OG        -6.3670  -30.6520  -23.8220 O.3   193  SER193     -0.2180
@<TRIPOS>BOND
     1   124   125    2
     2   124   123    1
     3   127   126    1
     4   126   123    1
     5   108   109    1
     6   123   122    1
     7    49    48    2
     8   122   110   am
     9   101   102    2
    10   101   100    1
    11   110   111    2
    12   110   109    1
    13    53    54    2
    14    53    52    1
    15   109   112    1
    16    99   100    1
    17    55    52    1
    18    55    56    1
    19    48    50   am
    20    48    47    1
    21   100   103    1
    22    52    51    1
    23   103   104    1
    24    47    44    1
    25    58    56   ar
    26    58    60   ar
    27    51    45   am
    28    56    57   ar
    29   112   113    1
    30   106   105   ar
    31    45    46    2
    32    45    44    1
    33    63    64    1
    34    60    61   ar
    35   104   105    1
    36    65    66    2
    37    65    64    1
    38    44    43    1
    39   105   107   ar
    40    57    59   ar
    41   113   114   ar
    42   113   115   ar
    43    64    67    1
    44    19    18    1
    45   114   116   ar
    46    61    59   ar
    47    61    62    1
    48    43    41   am
    49   115   118   ar
    50   115   117   ar
    51   118   120   ar
    52    67    68    1
    53    87    85   ar
    54   116   117   ar
    55    18    16   ar
    56    18    17   ar
    57    86    85   ar
    58    41    42    2
    59    41    40    1
    60   117   119   ar
    61    85    84    1
    62   120   121   ar
    63    16    14   ar
    64    68    69    1
    65    68    70    1
    66    17    15   ar
    67    97    96    1
    68    39    40    1
    69   119   121   ar
    70    84    83    1
    71    94    95    1
    72    94    93    1
    73    96    95    2
    74    96    98    1
    75    14    13   ar
    76    83    80    1
    77    91    90    2
    78    15    13   ar
    79    92    93    1
    80    92    89    1
    81    90    89    1
    82    13    12    1
    83    82    81    2
    84    80    81    1
    85    80    79    1
    86    77    75    1
    87    89    88    1
    88    78    76    1
    89    75    76    1
    90    75    72    1
    91    12     9    1
    92    34    36   ar
    93    34    33   ar
    94    36    38   ar
    95    73    74    2
    96    73    72    1
    97    32    33    1
    98    32    29    1
    99    33    35   ar
   100    38    37   ar
   101     9     8    1
   102     9    10    1
   103    30    29    1
   104    30    31    2
   105    72    71    1
   106     4     3    2
   107    37    35   ar
   108     8     3   am
   109     5     7    1
   110     5     2    1
   111     5     6    1
   112     3     2    1
   113     1     2    1
   114    29    28    1
   115    23    22    2
   116    10    20   am
   117    10    11    2
   118    20    21    1
   119    22    21    1
   120    21    24    1
   121    24    25    1
   122    24    26    1
   123    27    25    1
