@<TRIPOS>MOLECULE
tmp/3n5eB00.pdb
 157 151 0 0 0
SMALL
GASTEIGER

@<TRIPOS>ATOM
      1  N        -31.4340   -2.8790   21.8930 N.3    94  PHE94      -0.1227
      2  CA       -31.4460   -2.9590   20.4360 C.3    94  PHE94       0.1736
      3  C        -30.1180   -2.7020   19.7140 C.2    94  PHE94       0.2596
      4  O        -29.5040   -1.6360   19.8750 O.2    94  PHE94      -0.2718
      5  CB       -32.5230   -2.1150   19.7610 C.3    94  PHE94       0.0547
      6  CG       -32.5050   -2.2960   18.2810 C.ar   94  PHE94      -0.0202
      7  CD1      -31.5850   -1.6000   17.4980 C.ar   94  PHE94      -0.0042
      8  CD2      -33.2950   -3.2620   17.6810 C.ar   94  PHE94      -0.0042
      9  CE1      -31.5030   -1.8220   16.1360 C.ar   94  PHE94      -0.0003
     10  CE2      -33.2230   -3.4850   16.3150 C.ar   94  PHE94      -0.0003
     11  CZ       -32.3320   -2.7630   15.5430 C.ar   94  PHE94      -0.0000
     12  N        -29.7140   -3.6690   18.8870 N.am   95  GLY95      -0.1957
     13  CA       -28.6140   -3.4920   17.9290 C.3    95  GLY95       0.1869
     14  C        -27.2210   -3.6500   18.4990 C.2    95  GLY95       0.2309
     15  O        -26.2240   -3.5420   17.7710 O.2    95  GLY95      -0.2863
     16  N        -29.7430    0.6020   22.0830 N.3   110  VAL110     -0.1245
     17  CA       -30.8420    1.5040   22.4210 C.3   110  VAL110      0.1561
     18  C        -31.8290    0.7940   23.3440 C.2   110  VAL110      0.2260
     19  O        -32.2780   -0.3090   23.0410 O.2   110  VAL110     -0.2867
     20  CB       -31.5610    2.0210   21.1330 C.3   110  VAL110      0.0252
     21  CG1      -32.9090    2.7230   21.4580 C.3   110  VAL110      0.0019
     22  CG2      -30.6160    2.9500   20.3420 C.3   110  VAL110      0.0019
     23  N        -35.2860    0.8220   23.9730 N.3   112  GLN112     -0.1245
     24  CA       -36.5830    1.2470   23.4370 C.3   112  GLN112      0.1566
     25  C        -37.6400    1.4710   24.5070 C.2   112  GLN112      0.2260
     26  O        -38.4330    2.4070   24.4170 O.2   112  GLN112     -0.2867
     27  CB       -37.1530    0.2300   22.4580 C.3   112  GLN112      0.0367
     28  CG       -36.4080    0.0400   21.1570 C.3   112  GLN112      0.0905
     29  CD       -37.2580   -0.7870   20.1780 C.2   112  GLN112      0.2608
     30  OE1      -38.0940   -0.2500   19.4670 O.2   112  GLN112     -0.2717
     31  NE2      -37.0610   -2.0960   20.1780 N.am  112  GLN112     -0.0878
     32  N        -36.7990    4.4890   26.7320 N.3   115  ARG115     -0.1231
     33  CA       -36.9730    5.6790   25.8960 C.3   115  ARG115      0.1694
     34  C        -38.4630    6.1020   25.7390 C.2   115  ARG115      0.2591
     35  O        -38.7850    7.3060   25.7670 O.2   115  ARG115     -0.2718
     36  CB       -36.3240    5.4510   24.5440 C.3   115  ARG115      0.0321
     37  CG       -36.5710    6.5540   23.5940 C.3   115  ARG115      0.0489
     38  CD       -35.4950    6.6100   22.5300 C.3   115  ARG115      0.2205
     39  NE       -35.8470    5.8150   21.3580 N.pl3 115  ARG115     -0.0865
     40  CZ       -34.9970    5.5690   20.3640 C.cat 115  ARG115      0.5346
     41  NH1      -33.7610    6.0370   20.3960 N.pl3 115  ARG115      0.1354
     42  NH2      -35.3820    4.8480   19.3410 N.pl3 115  ARG115      0.1354
     43  N        -39.3560    5.1190   25.6130 N.am  116  VAL116     -0.1980
     44  CA       -40.8040    5.3660   25.6150 C.3   116  VAL116      0.1595
     45  C        -41.2540    6.0670   26.9140 C.2   116  VAL116      0.2287
     46  O        -41.9430    7.0910   26.8860 O.2   116  VAL116     -0.2864
     47  CB       -41.5780    4.0100   25.3840 C.3   116  VAL116      0.0276
     48  CG1      -43.0470    4.0770   25.8320 C.3   116  VAL116      0.0022
     49  CG2      -41.4380    3.5630   23.9170 C.3   116  VAL116      0.0022
     50  N        -39.8610    9.6450   27.2260 N.3   119  THR119     -0.1218
     51  CA       -40.5030   10.5820   26.3050 C.3   119  THR119      0.1862
     52  C        -41.8830   10.9720   26.8010 C.2   119  THR119      0.2287
     53  O        -42.3110   12.1200   26.6490 O.2   119  THR119     -0.2866
     54  CB       -40.5810   10.0450   24.8490 C.3   119  THR119      0.1770
     55  OG1      -39.2560    9.8000   24.3600 O.3   119  THR119     -0.2211
     56  CG2      -41.2230   11.0820   23.9380 C.3   119  THR119      0.0375
     57  N        -45.5830   14.0850   22.0820 N.3   126  ASP126     -0.1239
     58  CA       -44.7660   13.4580   21.0470 C.3   126  ASP126      0.1674
     59  C        -45.5340   12.3980   20.2080 C.2   126  ASP126      0.2266
     60  O        -46.2070   11.5000   20.7380 O.2   126  ASP126     -0.2867
     61  CB       -43.4790   12.8560   21.6470 C.3   126  ASP126      0.1410
     62  CG       -42.3270   12.7900   20.6320 C.2   126  ASP126      0.3668
     63  OD1      -42.4380   12.0690   19.6360 O.co2 126  ASP126     -0.2456
     64  OD2      -41.3010   13.4780   20.8130 O.co2 126  ASP126     -0.2456
     65  N        -43.9290   10.3510   18.2890 N.3   128  ARG128     -0.1231
     66  CA       -42.9200    9.3410   17.9670 C.3   128  ARG128      0.1694
     67  C        -42.6710    8.3210   19.0640 C.2   128  ARG128      0.2592
     68  O        -41.6080    7.7390   19.1100 O.2   128  ARG128     -0.2718
     69  CB       -41.5880   10.0140   17.5880 C.3   128  ARG128      0.0321
     70  CG       -41.7260   11.0520   16.4790 C.3   128  ARG128      0.0489
     71  CD       -40.5010   11.9270   16.3670 C.3   128  ARG128      0.2205
     72  NE       -40.2980   12.6360   17.6260 N.pl3 128  ARG128     -0.0865
     73  CZ       -39.5010   13.6870   17.7730 C.cat 128  ARG128      0.5346
     74  NH1      -38.8140   14.1680   16.7400 N.pl3 128  ARG128      0.1354
     75  NH2      -39.3970   14.2600   18.9510 N.pl3 128  ARG128      0.1354
     76  N        -43.6560    8.0810   19.9230 N.am  129  ILE129     -0.1966
     77  CA       -43.4340    7.2580   21.0870 C.3   129  ILE129      0.1727
     78  C        -43.6710    5.7970   20.7210 C.2   129  ILE129      0.2616
     79  O        -44.7130    5.2180   21.0190 O.2   129  ILE129     -0.2715
     80  CB       -44.2990    7.6860   22.2800 C.3   129  ILE129      0.0290
     81  CG1      -44.2130    9.2130   22.5000 C.3   129  ILE129      0.0022
     82  CG2      -43.9040    6.8680   23.5340 C.3   129  ILE129      0.0023
     83  CD1      -45.1440    9.7270   23.5800 C.3   129  ILE129      0.0001
     84  N        -42.6530    5.2120   20.0940 N.am  130  ILE130     -0.1963
     85  CA       -42.7890    3.9710   19.3270 C.3   130  ILE130      0.1727
     86  C        -41.7280    2.9380   19.7360 C.2   130  ILE130      0.2616
     87  O        -40.5610    3.2680   19.9700 O.2   130  ILE130     -0.2715
     88  CB       -42.7120    4.2790   17.8260 C.3   130  ILE130      0.0290
     89  CG1      -43.9580    5.0820   17.3830 C.3   130  ILE130      0.0022
     90  CG2      -42.6040    2.9920   16.9800 C.3   130  ILE130      0.0023
     91  CD1      -43.8450    5.7500   16.0460 C.3   130  ILE130      0.0001
     92  N        -42.1390    1.6840   19.8250 N.am  131  MET131     -0.1963
     93  CA       -41.2190    0.6110   20.2030 C.3   131  MET131      0.1736
     94  C        -41.5230   -0.5810   19.2980 C.2   131  MET131      0.2616
     95  O        -42.6910   -0.9030   19.0940 O.2   131  MET131     -0.2715
     96  CB       -41.4460    0.2610   21.6870 C.3   131  MET131      0.0427
     97  CG       -40.7760   -0.9790   22.1560 C.3   131  MET131      0.0599
     98  SD       -40.8600   -1.1580   23.9640 S.3   131  MET131     -0.1393
     99  CE       -42.4380   -0.3760   24.2970 C.3   131  MET131      0.0692
    100  N        -40.4930   -1.2140   18.7330 N.am  132  CYS132     -0.1968
    101  CA       -40.7140   -2.3620   17.8200 C.3   132  CYS132      0.1712
    102  C        -40.1960   -3.6870   18.3660 C.2   132  CYS132      0.2296
    103  O        -39.2220   -3.7130   19.1030 O.2   132  CYS132     -0.2864
    104  CB       -40.0910   -2.1110   16.4550 C.3   132  CYS132      0.0983
    105  SG       -40.7330   -0.6400   15.5840 S.3   132  CYS132     -0.0798
    106  N        -39.1840   -7.8170   16.9610 N.3   134  TRP134     -0.1241
    107  CA       -38.8500   -8.6350   15.8120 C.3   134  TRP134      0.1605
    108  C        -39.0510  -10.1190   16.1360 C.2   134  TRP134      0.2264
    109  O        -38.7700  -10.5780   17.2560 O.2   134  TRP134     -0.2867
    110  CB       -37.3870   -8.4210   15.3930 C.3   134  TRP134      0.0550
    111  CG       -37.1300   -7.1390   14.6580 C.ar  134  TRP134      0.0003
    112  CD1      -37.0340   -6.9860   13.3090 C.ar  134  TRP134      0.0946
    113  CD2      -36.9360   -5.8240   15.2270 C.ar  134  TRP134      0.0152
    114  NE1      -36.7890   -5.6690   12.9980 N.ar  134  TRP134     -0.2442
    115  CE2      -36.7370   -4.9310   14.1500 C.ar  134  TRP134      0.0810
    116  CE3      -36.9110   -5.3210   16.5350 C.ar  134  TRP134      0.0012
    117  CZ2      -36.5110   -3.5490   14.3350 C.ar  134  TRP134      0.0191
    118  CZ3      -36.6820   -3.9570   16.7270 C.ar  134  TRP134      0.0001
    119  CH2      -36.4850   -3.0800   15.6240 C.ar  134  TRP134      0.0015
    120  N        -33.8040  -12.0570   12.0370 N.3   139  LEU139     -0.1245
    121  CA       -32.6050  -11.2430   12.2790 C.3   139  LEU139      0.1561
    122  C        -31.3820  -11.6960   11.4730 C.2   139  LEU139      0.2260
    123  O        -30.7310  -10.8720   10.8420 O.2   139  LEU139     -0.2867
    124  CB       -32.2830  -11.1530   13.7790 C.3   139  LEU139      0.0270
    125  CG       -33.4270  -10.5740   14.6070 C.3   139  LEU139      0.0019
    126  CD1      -33.0350  -10.5390   16.0770 C.3   139  LEU139      0.0001
    127  CD2      -33.8080   -9.1760   14.1110 C.3   139  LEU139      0.0001
    128  N        -31.5300   -4.9890    7.5550 N.3   144  LEU144     -0.1231
    129  CA       -32.7380   -4.2260    7.8340 C.3   144  LEU144      0.1678
    130  C        -33.9690   -5.1210    7.9070 C.2   144  LEU144      0.2434
    131  O        -34.9140   -4.9420    7.1390 O.2   144  LEU144     -0.2733
    132  CB       -32.9410   -3.1410    6.7750 C.3   144  LEU144      0.0284
    133  CG       -33.0740   -1.7060    7.2900 C.3   144  LEU144      0.0019
    134  CD1      -34.2550   -1.0070    6.6350 C.3   144  LEU144      0.0001
    135  CD2      -33.2090   -1.6900    8.8050 C.3   144  LEU144      0.0001
    136  N        -34.0550   -6.0750    8.7110 N.am  145  PRO145     -0.2718
    137  CA       -35.2500   -6.9000    8.7080 C.3   145  PRO145      0.1520
    138  C        -36.4520   -6.1120    9.2160 C.2   145  PRO145      0.2440
    139  O        -36.3170   -5.3110   10.1250 O.2   145  PRO145     -0.2731
    140  CB       -34.9150   -8.0050    9.7070 C.3   145  PRO145      0.0310
    141  CG       -33.8770   -7.4430   10.5670 C.3   145  PRO145      0.0237
    142  CD       -33.0660   -6.5730    9.6890 C.3   145  PRO145      0.0939
    143  N        -37.6270   -6.3440    8.6220 N.am  146  PRO146     -0.2727
    144  CA       -38.7790   -5.6380    9.1420 C.3   146  PRO146      0.1402
    145  C        -39.2300   -6.2390   10.4720 C.2   146  PRO146      0.2269
    146  O        -39.0780   -7.4550   10.6970 O.2   146  PRO146     -0.2865
    147  CB       -39.8350   -5.8100    8.0330 C.3   146  PRO146      0.0296
    148  CG       -39.4600   -7.0640    7.3220 C.3   146  PRO146      0.0237
    149  CD       -37.9630   -7.2700    7.5210 C.3   146  PRO146      0.0939
    150  N        -45.1470   -3.2090   15.6920 N.3   149  LEU149     -0.1245
    151  CA       -44.8340   -1.8720   16.1990 C.3   149  LEU149      0.1561
    152  C        -45.9270   -1.3990   17.1500 C.2   149  LEU149      0.2260
    153  O        -47.1190   -1.6420   16.9570 O.2   149  LEU149     -0.2867
    154  CB       -44.5280   -0.8850   15.0720 C.3   149  LEU149      0.0270
    155  CG       -45.4780    0.1800   14.5260 C.3   149  LEU149      0.0019
    156  CD1      -45.7230    1.3180   15.5310 C.3   149  LEU149      0.0001
    157  CD2      -44.8890    0.7950   13.2260 C.3   149  LEU149      0.0001
@<TRIPOS>BOND
     1   134   133    1
     2   132   133    1
     3   132   129    1
     4   131   130    2
     5   133   135    1
     6   148   149    1
     7   148   147    1
     8   149   143    1
     9   128   129    1
    10   129   130    1
    11   130   136   am
    12   147   144    1
    13   143   144    1
    14   143   138   am
    15   137   136    1
    16   137   138    1
    17   137   140    1
    18   136   142    1
    19   144   145    1
    20   138   139    2
    21   142   141    1
    22   140   141    1
    23   145   146    2
    24   123   122    2
    25   122   121    1
    26   120   121    1
    27   121   124    1
    28   114   112   ar
    29   114   115   ar
    30   157   155    1
    31   112   111   ar
    32   124   125    1
    33   127   125    1
    34   115   117   ar
    35   115   113   ar
    36   117   119   ar
    37   155   154    1
    38   155   156    1
    39   125   126    1
    40   111   113   ar
    41   111   110    1
    42   154   151    1
    43   113   116   ar
    44   110   107    1
    45    11     9   ar
    46    11    10   ar
    47   105   104    1
    48   119   118   ar
    49   150   151    1
    50   107   108    1
    51   107   106    1
    52    91    89    1
    53   108   109    2
    54     9     7   ar
    55   151   152    1
    56    10     8   ar
    57    71    70    1
    58    71    72    1
    59   104   101    1
    60    70    69    1
    61   116   118   ar
    62    74    73    1
    63   153   152    2
    64    90    88    1
    65    89    88    1
    66     7     6   ar
    67    69    66    1
    68    72    73    2
    69     8     6   ar
    70    15    14    2
    71    73    75    1
    72   101   102    1
    73   101   100    1
    74    88    85    1
    75    13    14    1
    76    13    12    1
    77    66    65    1
    78    66    67    1
    79     6     5    1
    80   102   103    2
    81   100    94   am
    82    12     3   am
    83    67    68    2
    84    67    76   am
    85    95    94    2
    86    94    93    1
    87    85    86    1
    88    85    84    1
    89    42    40    1
    90    30    29    2
    91    63    62   ar
    92     3     4    2
    93     3     2    1
    94    86    92   am
    95    86    87    2
    96     5     2    1
    97    92    93    1
    98    76    77    1
    99    84    78   am
   100    29    31   am
   101    29    28    1
   102    93    96    1
   103    59    60    2
   104    59    58    1
   105    22    20    1
   106    40    41    1
   107    40    39    2
   108     2     1    1
   109    62    64   ar
   110    62    61    1
   111    78    79    2
   112    78    77    1
   113    58    61    1
   114    58    57    1
   115    77    80    1
   116    20    21    1
   117    20    17    1
   118    28    27    1
   119    39    38    1
   120    96    97    1
   121    16    17    1
   122    97    98    1
   123    80    81    1
   124    80    82    1
   125    17    18    1
   126    27    24    1
   127    81    83    1
   128    38    37    1
   129    19    18    2
   130    24    23    1
   131    24    25    1
   132    37    36    1
   133    49    47    1
   134    56    54    1
   135    98    99    1
   136    55    54    1
   137    26    25    2
   138    36    33    1
   139    54    51    1
   140    47    44    1
   141    47    48    1
   142    43    44    1
   143    43    34   am
   144    44    45    1
   145    34    35    2
   146    34    33    1
   147    33    32    1
   148    51    52    1
   149    51    50    1
   150    53    52    2
   151    46    45    2
