@<TRIPOS>MOLECULE
tmp/3n5hA00.pdb
 109 103 0 0 0
SMALL
GASTEIGER

@<TRIPOS>ATOM
      1  N         -6.1430   75.0780   23.7040 N.3     3  TYR3       -0.1241
      2  CA        -4.8310   74.9190   23.0910 C.3     3  TYR3        0.1605
      3  C         -4.8680   73.9230   21.9380 C.2     3  TYR3        0.2264
      4  O         -4.6600   74.2950   20.7820 O.2     3  TYR3       -0.2867
      5  CB        -3.7950   74.4620   24.1340 C.3     3  TYR3        0.0534
      6  CG        -3.1810   75.5880   24.9410 C.ar    3  TYR3       -0.0201
      7  CD1       -3.9840   76.5090   25.6050 C.ar    3  TYR3       -0.0009
      8  CD2       -1.7980   75.7400   25.0250 C.ar    3  TYR3       -0.0009
      9  CE1       -3.4310   77.5510   26.3280 C.ar    3  TYR3        0.0417
     10  CE2       -1.2330   76.7820   25.7470 C.ar    3  TYR3        0.0417
     11  CZ        -2.0590   77.6860   26.3960 C.ar    3  TYR3        0.1957
     12  OH        -1.5270   78.7380   27.1110 O.3     3  TYR3       -0.2866
     13  N          6.5870   73.2360   21.3670 N.3    50  LYS50      -0.1245
     14  CA         5.1840   73.0270   21.7370 C.3    50  LYS50       0.1561
     15  C          4.3160   74.2580   21.4780 C.2    50  LYS50       0.2260
     16  O          3.0890   74.1810   21.5380 O.2    50  LYS50      -0.2867
     17  CB         5.0960   72.6360   23.2120 C.3    50  LYS50       0.0271
     18  CG         5.9330   71.4100   23.5690 C.3    50  LYS50       0.0035
     19  CD         6.1000   71.2990   25.0720 C.3    50  LYS50       0.0206
     20  CE         7.0190   70.1570   25.4480 C.3    50  LYS50       0.1093
     21  NZ         7.3860   70.2070   26.8960 N.3    50  LYS50      -0.1314
     22  N          3.6410   76.7150   23.2410 N.3    52  ASN52      -0.1225
     23  CA         2.8420   77.1820   24.3670 C.3    52  ASN52       0.1785
     24  C          2.9410   78.6740   24.6310 C.2    52  ASN52       0.2597
     25  O          1.9490   79.3170   24.9930 O.2    52  ASN52      -0.2718
     26  CB         3.2060   76.4070   25.6360 C.3    52  ASN52       0.1169
     27  CG         2.6880   74.9900   25.6060 C.2    52  ASN52       0.2627
     28  OD1        1.5340   74.7550   25.2460 O.2    52  ASN52      -0.2716
     29  ND2        3.5350   74.0360   25.9760 N.am   52  ASN52      -0.0877
     30  N          4.1300   79.2370   24.4630 N.am   53  ARG53      -0.1979
     31  CA         4.2850   80.6680   24.6930 C.3    53  ARG53       0.1597
     32  C          3.5000   81.4650   23.6580 C.2    53  ARG53       0.2287
     33  O          2.7620   82.3860   24.0050 O.2    53  ARG53      -0.2864
     34  CB         5.7620   81.0620   24.6640 C.3    53  ARG53       0.0334
     35  CG         6.5760   80.3720   25.7600 C.3    53  ARG53       0.0492
     36  CD         8.0250   80.7740   25.7080 C.3    53  ARG53       0.2205
     37  NE         8.8010   80.0580   26.7040 N.pl3  53  ARG53      -0.0865
     38  CZ         9.2290   78.8090   26.5670 C.cat  53  ARG53       0.5346
     39  NH1        8.9690   78.1230   25.4620 N.pl3  53  ARG53       0.1354
     40  NH2        9.9070   78.2370   27.5510 N.pl3  53  ARG53       0.1354
     41  N         -0.3260   81.1430   23.9850 N.3    56  THR56      -0.1218
     42  CA        -0.8350   81.8650   25.1350 C.3    56  THR56       0.1862
     43  C         -1.2660   83.2560   24.7120 C.2    56  THR56       0.2287
     44  O         -2.2690   83.7870   25.1960 O.2    56  THR56      -0.2866
     45  CB         0.2400   81.9750   26.2390 C.3    56  THR56       0.1770
     46  OG1        0.5130   80.6790   26.7700 O.3    56  THR56      -0.2211
     47  CG2       -0.2170   82.8910   27.3550 C.3    56  THR56       0.0375
     48  N          8.5300   83.8040   29.4750 N.3   198  SER198     -0.1202
     49  CA         7.6990   82.6200   29.2570 C.3   198  SER198      0.2020
     50  C          6.2770   82.7460   29.7730 C.2   198  SER198      0.2618
     51  O          5.3680   82.1340   29.2300 O.2   198  SER198     -0.2717
     52  CB         8.3450   81.3810   29.8910 C.3   198  SER198      0.2103
     53  OG         9.5620   81.0640   29.2440 O.3   198  SER198     -0.2182
     54  N          6.0830   83.5300   30.8230 N.am  199  PHE199     -0.1975
     55  CA         4.7500   83.6640   31.3860 C.3   199  PHE199      0.1639
     56  C          4.2080   85.0760   31.3970 C.2   199  PHE199      0.2290
     57  O          3.0400   85.2960   31.0840 O.2   199  PHE199     -0.2864
     58  CB         4.7240   83.0500   32.7860 C.3   199  PHE199      0.0560
     59  CG         4.9160   81.5660   32.7710 C.ar  199  PHE199     -0.0200
     60  CD1        6.1800   81.0140   32.8090 C.ar  199  PHE199     -0.0042
     61  CD2        3.8210   80.7260   32.6130 C.ar  199  PHE199     -0.0042
     62  CE1        6.3520   79.6480   32.6780 C.ar  199  PHE199     -0.0003
     63  CE2        3.9840   79.3670   32.4840 C.ar  199  PHE199     -0.0003
     64  CZ         5.2480   78.8240   32.5140 C.ar  199  PHE199     -0.0000
     65  N          6.6100   76.5870   37.4950 N.3   232  PHE232     -0.1241
     66  CA         6.8760   75.8580   36.2680 C.3   232  PHE232      0.1605
     67  C          8.3100   75.3200   36.2000 C.2   232  PHE232      0.2264
     68  O          8.5230   74.1300   35.9590 O.2   232  PHE232     -0.2867
     69  CB         6.6240   76.7390   35.0480 C.3   232  PHE232      0.0534
     70  CG         7.1700   76.1540   33.7980 C.ar  232  PHE232     -0.0203
     71  CD1        6.5550   75.0660   33.2040 C.ar  232  PHE232     -0.0042
     72  CD2        8.3830   76.5910   33.2970 C.ar  232  PHE232     -0.0042
     73  CE1        7.1470   74.4150   32.1330 C.ar  232  PHE232     -0.0003
     74  CE2        8.9820   75.9460   32.2280 C.ar  232  PHE232     -0.0003
     75  CZ         8.3650   74.8530   31.6480 C.ar  232  PHE232     -0.0000
     76  N         -3.9020   78.9310   32.2670 N.3   337  LEU337     -0.1245
     77  CA        -2.4780   78.6510   32.3380 C.3   337  LEU337      0.1561
     78  C         -2.1750   77.7210   33.5040 C.2   337  LEU337      0.2260
     79  O         -1.4150   76.7630   33.3640 O.2   337  LEU337     -0.2867
     80  CB        -1.7040   79.9500   32.5170 C.3   337  LEU337      0.0270
     81  CG        -0.6870   80.2520   31.4240 C.3   337  LEU337      0.0019
     82  CD1       -1.3780   80.2270   30.0740 C.3   337  LEU337      0.0001
     83  CD2       -0.0690   81.6230   31.6830 C.3   337  LEU337      0.0001
     84  N         -2.9030   74.1400   32.8600 N.3   340  LYS340     -0.1231
     85  CA        -1.9260   73.5730   31.9570 C.3   340  LYS340      0.1693
     86  C         -0.6120   73.2120   32.6440 C.2   340  LYS340      0.2591
     87  O         -0.0990   72.1100   32.4610 O.2   340  LYS340     -0.2718
     88  CB        -1.6430   74.5380   30.8100 C.3   340  LYS340      0.0285
     89  CG        -2.5890   74.3990   29.6430 C.3   340  LYS340      0.0035
     90  CD        -1.7930   74.2030   28.3560 C.3   340  LYS340      0.0206
     91  CE        -0.7560   73.0940   28.5260 C.3   340  LYS340      0.1093
     92  NZ        -0.0230   72.8050   27.2580 N.3   340  LYS340     -0.1314
     93  N         -0.0660   74.1140   33.4480 N.am  341  ILE341     -0.1980
     94  CA         1.2140   73.8100   34.0670 C.3   341  ILE341      0.1595
     95  C          1.1520   72.9040   35.2920 C.2   341  ILE341      0.2287
     96  O          2.0670   72.1180   35.5170 O.2   341  ILE341     -0.2864
     97  CB         1.9980   75.0930   34.4140 C.3   341  ILE341      0.0276
     98  CG1        1.2730   75.8860   35.4950 C.3   341  ILE341      0.0022
     99  CG2        2.1910   75.9270   33.1590 C.3   341  ILE341      0.0022
    100  CD1        2.0270   77.1020   35.9580 C.3   341  ILE341      0.0001
    101  N          0.3790   69.8320   36.6970 N.3   343  LYS343     -0.1245
    102  CA         0.0440   68.4760   36.2710 C.3   343  LYS343      0.1561
    103  C         -0.0400   67.5090   37.4520 C.2   343  LYS343      0.2260
    104  O          0.5140   67.8450   38.5260 O.2   343  LYS343     -0.2867
    105  CB         1.1040   67.9970   35.2730 C.3   343  LYS343      0.0271
    106  CG         1.5260   69.0780   34.2830 C.3   343  LYS343      0.0035
    107  CD         2.6950   68.6510   33.4190 C.3   343  LYS343      0.0206
    108  CE         3.1890   69.8070   32.5580 C.3   343  LYS343      0.1093
    109  NZ         2.0950   70.4130   31.7460 N.3   343  LYS343     -0.1314
@<TRIPOS>BOND
     1     4     3    2
     2    13    14    1
     3    15    16    2
     4    15    14    1
     5    14    17    1
     6     3     2    1
     7     2     1    1
     8     2     5    1
     9    17    18    1
    10    22    23    1
    11    18    19    1
    12    32    33    2
    13    32    31    1
    14    41    42    1
    15     5     6    1
    16    23    24    1
    17    23    26    1
    18    30    24   am
    19    30    31    1
    20    24    25    2
    21    34    31    1
    22    34    35    1
    23    43    42    1
    24    43    44    2
    25     6     8   ar
    26     6     7   ar
    27     8    10   ar
    28    19    20    1
    29    42    45    1
    30    28    27    2
    31    20    21    1
    32    39    38    1
    33     7     9   ar
    34    27    26    1
    35    27    29   am
    36    36    35    1
    37    36    37    1
    38    10    11   ar
    39    45    46    1
    40    45    47    1
    41     9    11   ar
    42    11    12    1
    43    38    37    2
    44    38    40    1
    45    92    91    1
    46    90    91    1
    47    90    89    1
    48    51    50    2
    49    53    52    1
    50    49    48    1
    51    49    50    1
    52    49    52    1
    53    89    88    1
    54    50    54   am
    55    82    81    1
    56    88    85    1
    57    54    55    1
    58    57    56    2
    59    55    56    1
    60    55    58    1
    61    81    83    1
    62    81    80    1
    63    75    73   ar
    64    75    74   ar
    65   109   108    1
    66    85    86    1
    67    85    84    1
    68    73    71   ar
    69    74    72   ar
    70    76    77    1
    71    77    80    1
    72    77    78    1
    73    87    86    2
    74    63    64   ar
    75    63    61   ar
    76    64    62   ar
    77   108   107    1
    78    61    59   ar
    79    86    93   am
    80    62    60   ar
    81    59    58    1
    82    59    60   ar
    83    99    97    1
    84    71    70   ar
    85    72    70   ar
    86    79    78    2
    87   107   106    1
    88    93    94    1
    89    70    69    1
    90    94    97    1
    91    94    95    1
    92   106   105    1
    93    97    98    1
    94    69    66    1
    95   105   102    1
    96    95    96    2
    97    98   100    1
    98    68    67    2
    99    67    66    1
   100    66    65    1
   101   102   101    1
   102   102   103    1
   103   103   104    2
