@<TRIPOS>MOLECULE
tmp/3n5jA00.pdb
 126 118 0 0 0
SMALL
GASTEIGER

@<TRIPOS>ATOM
      1  N         -5.8030   75.0160   23.3060 N.3     3  TYR3       -0.1241
      2  CA        -4.5260   75.0640   22.6060 C.3     3  TYR3        0.1605
      3  C         -4.5180   74.0910   21.4240 C.2     3  TYR3        0.2264
      4  O         -4.1830   74.4740   20.3020 O.2     3  TYR3       -0.2867
      5  CB        -3.3780   74.7240   23.5710 C.3     3  TYR3        0.0534
      6  CG        -2.9270   75.8820   24.4430 C.ar    3  TYR3       -0.0201
      7  CD1       -3.8520   76.7160   25.0600 C.ar    3  TYR3       -0.0009
      8  CD2       -1.5720   76.1270   24.6650 C.ar    3  TYR3       -0.0009
      9  CE1       -3.4440   77.7600   25.8730 C.ar    3  TYR3        0.0417
     10  CE2       -1.1530   77.1690   25.4800 C.ar    3  TYR3        0.0417
     11  CZ        -2.0970   77.9810   26.0820 C.ar    3  TYR3        0.1957
     12  OH        -1.7040   79.0060   26.9120 O.3     3  TYR3       -0.2866
     13  N          6.6270   73.1620   21.0110 N.3    50  LYS50      -0.1245
     14  CA         5.2220   72.9860   21.3590 C.3    50  LYS50       0.1561
     15  C          4.3700   74.2370   21.1410 C.2    50  LYS50       0.2260
     16  O          3.1390   74.1740   21.1830 O.2    50  LYS50      -0.2867
     17  CB         5.1220   72.5030   22.8060 C.3    50  LYS50       0.0271
     18  CG         5.6980   71.1120   22.9960 C.3    50  LYS50       0.0035
     19  CD         5.6280   70.6490   24.4440 C.3    50  LYS50       0.0206
     20  CE         6.5180   71.4950   25.3450 C.3    50  LYS50       0.1093
     21  NZ         7.9680   71.4140   24.9790 N.3    50  LYS50      -0.1314
     22  N          3.7740   76.6830   23.0090 N.3    52  ASN52      -0.1225
     23  CA         2.9610   77.0970   24.1460 C.3    52  ASN52       0.1785
     24  C          2.9270   78.6110   24.3730 C.2    52  ASN52       0.2597
     25  O          1.8590   79.1810   24.5860 O.2    52  ASN52      -0.2718
     26  CB         3.4350   76.3990   25.4220 C.3    52  ASN52       0.1169
     27  CG         3.1140   74.9240   25.4250 C.2    52  ASN52       0.2627
     28  OD1        2.0390   74.5210   24.9990 O.2    52  ASN52      -0.2716
     29  ND2        4.0450   74.1110   25.9110 N.am   52  ASN52      -0.0877
     30  N          4.0810   79.2660   24.3230 N.am   53  ARG53      -0.1979
     31  CA         4.1280   80.7060   24.5440 C.3    53  ARG53       0.1597
     32  C          3.4000   81.4950   23.4570 C.2    53  ARG53       0.2287
     33  O          2.6610   82.4250   23.7610 O.2    53  ARG53      -0.2864
     34  CB         5.5760   81.1740   24.6510 C.3    53  ARG53       0.0334
     35  CG         6.3640   80.4580   25.7580 C.3    53  ARG53       0.0492
     36  CD         7.8220   80.8490   25.7130 C.3    53  ARG53       0.2205
     37  NE         8.6090   80.1560   26.7090 N.pl3  53  ARG53      -0.0865
     38  CZ         8.8890   78.8580   26.6850 C.cat  53  ARG53       0.5346
     39  NH1        8.4380   78.0840   25.6980 N.pl3  53  ARG53       0.1354
     40  NH2        9.6220   78.3330   27.6600 N.pl3  53  ARG53       0.1354
     41  N         -0.2750   80.9360   23.7830 N.3    56  THR56      -0.1218
     42  CA        -0.8350   81.6740   24.9060 C.3    56  THR56       0.1862
     43  C         -1.2530   83.0620   24.4800 C.2    56  THR56       0.2287
     44  O         -2.2680   83.5830   24.9530 O.2    56  THR56      -0.2866
     45  CB         0.1550   81.7960   26.0710 C.3    56  THR56       0.1770
     46  OG1        0.4770   80.4890   26.5580 O.3    56  THR56      -0.2211
     47  CG2       -0.4610   82.6050   27.2040 C.3    56  THR56       0.0375
     48  N         11.8720   83.1590   21.3470 N.3    89  GLN89      -0.1245
     49  CA        12.2300   81.8550   21.9010 C.3    89  GLN89       0.1566
     50  C         13.3290   81.2000   21.0530 C.2    89  GLN89       0.2260
     51  O         14.3510   80.7300   21.5790 O.2    89  GLN89      -0.2867
     52  CB        10.9880   80.9480   21.9040 C.3    89  GLN89       0.0367
     53  CG        11.2500   79.4820   22.1970 C.3    89  GLN89       0.0905
     54  CD        11.4320   79.2190   23.6680 C.2    89  GLN89       0.2608
     55  OE1       12.1470   79.9460   24.3450 O.2    89  GLN89      -0.2717
     56  NE2       10.7890   78.1710   24.1740 N.am   89  GLN89      -0.0878
     57  N          8.5530   83.7510   29.3630 N.3   198  SER198     -0.1202
     58  CA         7.7070   82.5750   29.1730 C.3   198  SER198      0.2020
     59  C          6.2630   82.7570   29.6600 C.2   198  SER198      0.2618
     60  O          5.3420   82.3030   29.0020 O.2   198  SER198     -0.2717
     61  CB         8.3160   81.3520   29.8670 C.3   198  SER198      0.2103
     62  OG         9.5290   80.9610   29.2350 O.3   198  SER198     -0.2182
     63  N          6.0690   83.4230   30.7990 N.am  199  PHE199     -0.1975
     64  CA         4.7270   83.5920   31.3380 C.3   199  PHE199      0.1639
     65  C          4.1680   85.0060   31.4050 C.2   199  PHE199      0.2290
     66  O          2.9590   85.2000   31.3140 O.2   199  PHE199     -0.2864
     67  CB         4.6370   82.9130   32.7080 C.3   199  PHE199      0.0560
     68  CG         4.8790   81.4400   32.6440 C.ar  199  PHE199     -0.0200
     69  CD1        6.1580   80.9310   32.7600 C.ar  199  PHE199     -0.0042
     70  CD2        3.8460   80.5730   32.3360 C.ar  199  PHE199     -0.0042
     71  CE1        6.4030   79.5980   32.5630 C.ar  199  PHE199     -0.0003
     72  CE2        4.0900   79.2350   32.1380 C.ar  199  PHE199     -0.0003
     73  CZ         5.3680   78.7500   32.2480 C.ar  199  PHE199     -0.0000
     74  N          6.4600   76.5210   37.4970 N.3   232  PHE232     -0.1241
     75  CA         6.7360   75.8130   36.2580 C.3   232  PHE232      0.1605
     76  C          8.1740   75.2770   36.1830 C.2   232  PHE232      0.2264
     77  O          8.3940   74.1130   35.8690 O.2   232  PHE232     -0.2867
     78  CB         6.5210   76.7340   35.0630 C.3   232  PHE232      0.0534
     79  CG         7.0860   76.1830   33.7960 C.ar  232  PHE232     -0.0203
     80  CD1        6.4000   75.2130   33.0860 C.ar  232  PHE232     -0.0042
     81  CD2        8.3210   76.6040   33.3350 C.ar  232  PHE232     -0.0042
     82  CE1        6.9350   74.6620   31.9350 C.ar  232  PHE232     -0.0003
     83  CE2        8.8710   76.0590   32.1810 C.ar  232  PHE232     -0.0003
     84  CZ         8.1740   75.0880   31.4790 C.ar  232  PHE232     -0.0000
     85  N          9.5830   71.5210   36.3960 N.3   236  ASP236     -0.1239
     86  CA        10.3990   71.0750   35.2770 C.3   236  ASP236      0.1674
     87  C         11.6970   70.4450   35.8060 C.2   236  ASP236      0.2266
     88  O         12.1600   69.4310   35.2900 O.2   236  ASP236     -0.2867
     89  CB        10.7130   72.2770   34.3820 C.3   236  ASP236      0.1410
     90  CG        11.6070   71.9250   33.2100 C.2   236  ASP236      0.3668
     91  OD1       11.1220   71.2910   32.2500 O.co2 236  ASP236     -0.2456
     92  OD2       12.8050   72.2820   33.2600 O.co2 236  ASP236     -0.2456
     93  N         11.4080   63.2560   27.1510 N.3   250  LYS250     -0.1245
     94  CA        12.7840   63.7260   27.2890 C.3   250  LYS250      0.1561
     95  C         13.5480   63.0300   28.4190 C.2   250  LYS250      0.2260
     96  O         12.9620   62.5910   29.4060 O.2   250  LYS250     -0.2867
     97  CB        12.7990   65.2430   27.5030 C.3   250  LYS250      0.0271
     98  CG        11.7600   65.7500   28.4840 C.3   250  LYS250      0.0035
     99  CD        11.7040   67.2760   28.4710 C.3   250  LYS250      0.0206
    100  CE        10.4610   67.8000   29.1840 C.3   250  LYS250      0.1093
    101  NZ        10.3650   69.2880   29.1220 N.3   250  LYS250     -0.1314
    102  N         -4.1510   78.8680   32.0650 N.3   337  LEU337     -0.1245
    103  CA        -2.7160   78.6150   32.0250 C.3   337  LEU337      0.1561
    104  C         -2.2740   77.7400   33.1970 C.2   337  LEU337      0.2260
    105  O         -1.5150   76.7810   33.0130 O.2   337  LEU337     -0.2867
    106  CB        -1.9480   79.9410   32.0400 C.3   337  LEU337      0.0270
    107  CG        -0.4520   79.9190   31.7150 C.3   337  LEU337      0.0019
    108  CD1       -0.2290   79.3500   30.3210 C.3   337  LEU337      0.0001
    109  CD2        0.0950   81.3410   31.7840 C.3   337  LEU337      0.0001
    110  N         -2.9720   74.1070   32.9430 N.3   340  LYS340     -0.1231
    111  CA        -2.0700   73.5170   31.9700 C.3   340  LYS340      0.1693
    112  C         -0.7010   73.1810   32.5950 C.2   340  LYS340      0.2591
    113  O         -0.1290   72.1290   32.3200 O.2   340  LYS340     -0.2718
    114  CB        -1.8920   74.4820   30.7960 C.3   340  LYS340      0.0285
    115  CG        -1.9770   73.8440   29.4310 C.3   340  LYS340      0.0035
    116  CD        -3.3850   73.3570   29.1320 C.3   340  LYS340      0.0206
    117  CE        -3.4760   72.7540   27.7280 C.3   340  LYS340      0.1093
    118  NZ        -4.8650   72.3050   27.3980 N.3   340  LYS340     -0.1314
    119  N         -0.1950   74.0680   33.4440 N.am  341  ILE341     -0.1980
    120  CA         1.0980   73.8700   34.0900 C.3   341  ILE341      0.1595
    121  C          1.1040   72.7940   35.1800 C.2   341  ILE341      0.2287
    122  O          1.9900   71.9440   35.2170 O.2   341  ILE341     -0.2864
    123  CB         1.6080   75.1880   34.7260 C.3   341  ILE341      0.0276
    124  CG1        1.8690   76.2330   33.6500 C.3   341  ILE341      0.0022
    125  CG2        2.8770   74.9410   35.5060 C.3   341  ILE341      0.0022
    126  CD1        1.9840   77.6240   34.2130 C.3   341  ILE341      0.0001
@<TRIPOS>BOND
     1     4     3    2
     2    13    14    1
     3    50    51    2
     4    50    49    1
     5    15    16    2
     6    15    14    1
     7    48    49    1
     8    14    17    1
     9     3     2    1
    10    49    52    1
    11    52    53    1
    12    53    54    1
    13     2     1    1
    14     2     5    1
    15    17    18    1
    16    18    19    1
    17    22    23    1
    18    32    33    2
    19    32    31    1
    20     5     6    1
    21    54    56   am
    22    54    55    2
    23    41    42    1
    24    23    24    1
    25    23    26    1
    26    30    24   am
    27    30    31    1
    28    24    25    2
    29     6     8   ar
    30     6     7   ar
    31    19    20    1
    32    43    42    1
    33    43    44    2
    34    31    34    1
    35    34    35    1
    36     8    10   ar
    37    42    45    1
    38    21    20    1
    39    28    27    2
    40     7     9   ar
    41    26    27    1
    42    27    29   am
    43    10    11   ar
    44    39    38    1
    45    36    35    1
    46    36    37    1
    47     9    11   ar
    48    45    46    1
    49    45    47    1
    50    11    12    1
    51    38    37    2
    52    38    40    1
    53    93    94    1
    54    94    97    1
    55    94    95    1
    56   118   117    1
    57    97    98    1
    58   117   116    1
    59    95    96    2
    60    99    98    1
    61    99   100    1
    62    60    59    2
    63   101   100    1
    64   116   115    1
    65    58    57    1
    66    58    59    1
    67    58    61    1
    68    62    61    1
    69   115   114    1
    70    59    63   am
    71   108   107    1
    72   114   111    1
    73    63    64    1
    74    66    65    2
    75    64    65    1
    76    64    67    1
    77    84    82   ar
    78    84    83   ar
    79   107   109    1
    80   107   106    1
    81    82    80   ar
    82   111   112    1
    83   111   110    1
    84   103   106    1
    85   103   102    1
    86   103   104    1
    87    72    73   ar
    88    72    70   ar
    89    83    81   ar
    90    73    71   ar
    91    91    90   ar
    92   113   112    2
    93    70    68   ar
    94    71    69   ar
    95   112   119   am
    96    68    67    1
    97    68    69   ar
    98   105   104    2
    99    80    79   ar
   100    90    92   ar
   101    90    89    1
   102    81    79   ar
   103   119   120    1
   104   124   126    1
   105   124   123    1
   106    79    78    1
   107   120   123    1
   108   120   121    1
   109    89    86    1
   110   123   125    1
   111    78    75    1
   112   121   122    2
   113    86    87    1
   114    86    85    1
   115    88    87    2
   116    77    76    2
   117    76    75    1
   118    75    74    1
