@<TRIPOS>MOLECULE
tmp/3n5jA01.pdb
 80 76 0 0 0
SMALL
GASTEIGER

@<TRIPOS>ATOM
      1  N         26.1690   76.4800   25.7150 N.3   100  ASP100     -0.1225
      2  CA        26.4070   75.3620   26.6100 C.3   100  ASP100      0.1805
      3  C         26.8280   74.1010   25.8750 C.2   100  ASP100      0.2598
      4  O         26.8320   73.0060   26.4370 O.2   100  ASP100     -0.2718
      5  CB        25.1930   75.1040   27.5080 C.3   100  ASP100      0.1424
      6  CG        23.9360   74.9080   26.7370 C.2   100  ASP100      0.3668
      7  OD1       23.9780   74.1980   25.7050 O.co2 100  ASP100     -0.2456
      8  OD2       22.8950   75.4500   27.1700 O.co2 100  ASP100     -0.2456
      9  N         27.1900   74.2750   24.6120 N.am  101  SER101     -0.1938
     10  CA        27.6510   73.1870   23.7730 C.3   101  SER101      0.2055
     11  C         26.7030   72.0070   23.6940 C.2   101  SER101      0.2644
     12  O         27.1200   70.8550   23.7810 O.2   101  SER101     -0.2714
     13  CB        29.0310   72.7150   24.2470 C.3   101  SER101      0.2130
     14  OG        29.9800   73.7640   24.1000 O.3   101  SER101     -0.2179
     15  N         25.4240   72.2930   23.5150 N.am  102  SER102     -0.1935
     16  CA        24.4530   71.2330   23.4070 C.3   102  SER102      0.2055
     17  C         24.6300   70.4890   22.0900 C.2   102  SER102      0.2643
     18  O         25.2370   71.0010   21.1510 O.2   102  SER102     -0.2714
     19  CB        23.0460   71.7990   23.5050 C.3   102  SER102      0.2130
     20  OG        22.8230   72.3290   24.7910 O.3   102  SER102     -0.2179
     21  N         24.0910   69.2770   22.0420 N.am  103  LEU103     -0.1963
     22  CA        24.1720   68.4220   20.8690 C.3   103  LEU103      0.1728
     23  C         22.8510   68.4020   20.1220 C.2   103  LEU103      0.2616
     24  O         22.8200   68.4940   18.8980 O.2   103  LEU103     -0.2715
     25  CB        24.5340   66.9860   21.2750 C.3   103  LEU103      0.0311
     26  CG        25.9040   66.7430   21.9110 C.3   103  LEU103      0.0022
     27  CD1       26.0240   65.2750   22.3060 C.3   103  LEU103      0.0001
     28  CD2       26.9980   67.1190   20.9290 C.3   103  LEU103      0.0001
     29  N         21.7520   68.2690   20.8520 N.am  104  THR104     -0.1951
     30  CA        20.4480   68.2340   20.2030 C.3   104  THR104      0.1897
     31  C         19.4420   69.1790   20.8490 C.2   104  THR104      0.2313
     32  O         19.6200   69.6450   21.9810 O.2   104  THR104     -0.2863
     33  CB        19.8600   66.7970   20.2100 C.3   104  THR104      0.1794
     34  OG1       19.6140   66.3870   21.5620 O.3   104  THR104     -0.2208
     35  CG2       20.8330   65.8140   19.5520 C.3   104  THR104      0.0378
     36  N         14.8630   62.9290   28.2580 N.3   251  ILE251     -0.1231
     37  CA        15.7120   62.2860   29.2510 C.3   251  ILE251      0.1692
     38  C         16.4270   63.3260   30.1090 C.2   251  ILE251      0.2593
     39  O         16.9380   64.3230   29.5950 O.2   251  ILE251     -0.2718
     40  CB        16.7680   61.3860   28.5690 C.3   251  ILE251      0.0266
     41  CG1       16.0640   60.2750   27.7820 C.3   251  ILE251      0.0019
     42  CG2       17.7170   60.8050   29.6150 C.3   251  ILE251      0.0020
     43  CD1       16.9970   59.3600   27.0240 C.3   251  ILE251      0.0001
     44  N         16.4680   63.0810   31.4170 N.am  252  GLY252     -0.1942
     45  CA        17.1120   64.0100   32.3320 C.3   252  GLY252      0.2014
     46  C         18.6170   64.1210   32.1840 C.2   252  GLY252      0.2639
     47  O         19.3150   63.1100   32.1240 O.2   252  GLY252     -0.2714
     48  N         19.1140   65.3560   32.1250 N.am  253  THR253     -0.1950
     49  CA        20.5450   65.6150   31.9930 C.3   253  THR253      0.1897
     50  C         20.9990   66.7770   32.8830 C.2   253  THR253      0.2313
     51  O         22.1320   67.2480   32.7730 O.2   253  THR253     -0.2863
     52  CB        20.9330   65.9350   30.5190 C.3   253  THR253      0.1794
     53  OG1       20.2980   67.1490   30.1010 O.3   253  THR253     -0.2208
     54  CG2       20.4940   64.8050   29.5900 C.3   253  THR253      0.0378
     55  N         24.0000   65.7960   35.1760 N.3   256  GLN256     -0.1231
     56  CA        25.1950   65.6780   34.3500 C.3   256  GLN256      0.1698
     57  C         25.6730   67.0560   33.8770 C.2   256  GLN256      0.2592
     58  O         26.8740   67.2910   33.7210 O.2   256  GLN256     -0.2718
     59  CB        24.9200   64.7780   33.1290 C.3   256  GLN256      0.0381
     60  CG        24.4740   63.3520   33.4540 C.3   256  GLN256      0.0905
     61  CD        22.9620   63.2030   33.5910 C.2   256  GLN256      0.2608
     62  OE1       22.3110   63.9600   34.3130 O.2   256  GLN256     -0.2717
     63  NE2       22.4000   62.2160   32.9020 N.am  256  GLN256     -0.0878
     64  N         24.7320   67.9710   33.6640 N.am  257  ASP257     -0.1974
     65  CA        25.0760   69.3090   33.1980 C.3   257  ASP257      0.1709
     66  C         25.4480   70.2850   34.3100 C.2   257  ASP257      0.2293
     67  O         25.6910   71.4660   34.0540 O.2   257  ASP257     -0.2864
     68  CB        23.9250   69.8840   32.3650 C.3   257  ASP257      0.1436
     69  CG        23.6590   69.0740   31.1050 C.2   257  ASP257      0.3671
     70  OD1       24.5590   68.3050   30.6940 O.co2 257  ASP257     -0.2456
     71  OD2       22.5630   69.2120   30.5200 O.co2 257  ASP257     -0.2456
     72  N         29.1820   62.4190   33.7570 N.3   286  LYS286     -0.1245
     73  CA        28.4450   61.7190   32.7040 C.3   286  LYS286      0.1561
     74  C         28.1450   60.2790   33.1090 C.2   286  LYS286      0.2260
     75  O         27.1340   59.7120   32.6940 O.2   286  LYS286     -0.2867
     76  CB        29.2400   61.7090   31.3940 C.3   286  LYS286      0.0271
     77  CG        30.3750   60.6780   31.3660 C.3   286  LYS286      0.0035
     78  CD        31.0120   60.5480   29.9830 C.3   286  LYS286      0.0206
     79  CE        31.7460   61.8190   29.5820 C.3   286  LYS286      0.1093
     80  NZ        32.8760   62.1050   30.5090 N.3   286  LYS286     -0.1314
@<TRIPOS>BOND
     1    24    23    2
     2    35    33    1
     3    23    29   am
     4    23    22    1
     5    30    33    1
     6    30    31    1
     7    30    29    1
     8    33    34    1
     9    31    32    2
    10    22    25    1
    11    22    21    1
    12    28    26    1
    13    18    17    2
    14    25    26    1
    15    26    27    1
    16    21    17   am
    17    17    16    1
    18    16    19    1
    19    16    15    1
    20    19    20    1
    21    15    11   am
    22    11    10    1
    23    11    12    2
    24    10    13    1
    25    10     9    1
    26    14    13    1
    27     9     3   am
    28     7     6   ar
    29     1     2    1
    30     3     4    2
    31     3     2    1
    32     2     5    1
    33     6     8   ar
    34     6     5    1
    35    43    41    1
    36    41    40    1
    37    36    37    1
    38    40    37    1
    39    40    42    1
    40    37    38    1
    41    79    78    1
    42    79    80    1
    43    54    52    1
    44    39    38    2
    45    78    77    1
    46    53    52    1
    47    38    44   am
    48    52    49    1
    49    71    69   ar
    50    70    69   ar
    51    69    68    1
    52    77    76    1
    53    76    73    1
    54    44    45    1
    55    49    48    1
    56    49    50    1
    57    47    46    2
    58    48    46   am
    59    46    45    1
    60    68    65    1
    61    75    74    2
    62    73    74    1
    63    73    72    1
    64    51    50    2
    65    63    61   am
    66    59    60    1
    67    59    56    1
    68    65    64    1
    69    65    66    1
    70    60    61    1
    71    61    62    2
    72    64    57   am
    73    58    57    2
    74    57    56    1
    75    67    66    2
    76    56    55    1
