@<TRIPOS>MOLECULE
tmp/3n5kB00.pdb
 198 189 0 0 0
SMALL
GASTEIGER

@<TRIPOS>ATOM
      1  N         18.1730   18.8300   19.3830 N.3   252  LYS252     -0.1231
      2  CA        19.3870   18.7230   18.5890 C.3   252  LYS252      0.1693
      3  C         19.0620   18.5390   17.1100 C.2   252  LYS252      0.2591
      4  O         19.6900   19.1630   16.2610 O.2   252  LYS252     -0.2718
      5  CB        20.2770   17.5820   19.0850 C.3   252  LYS252      0.0285
      6  CG        20.8250   17.7830   20.4910 C.3   252  LYS252      0.0035
      7  CD        21.5450   19.1260   20.6140 C.3   252  LYS252      0.0206
      8  CE        22.3050   19.2290   21.9290 C.3   252  LYS252      0.1093
      9  NZ        22.8680   20.5990   22.1320 N.3   252  LYS252     -0.1314
     10  N         18.0830   17.6920   16.8060 N.am  253  LEU253     -0.1980
     11  CA        17.6710   17.4780   15.4210 C.3   253  LEU253      0.1596
     12  C         17.0710   18.7540   14.8490 C.2   253  LEU253      0.2287
     13  O         17.2530   19.0610   13.6720 O.2   253  LEU253     -0.2864
     14  CB        16.6850   16.3180   15.3160 C.3   253  LEU253      0.0297
     15  CG        17.3480   14.9720   15.6180 C.3   253  LEU253      0.0022
     16  CD1       16.3300   13.8880   15.9140 C.3   253  LEU253      0.0001
     17  CD2       18.2310   14.5720   14.4490 C.3   253  LEU253      0.0001
     18  N         17.9560   21.9000   15.8790 N.3   255  GLU255     -0.1231
     19  CA        19.1170   22.7600   15.6790 C.3   255  GLU255      0.1699
     20  C         19.8480   22.3650   14.3840 C.2   255  GLU255      0.2592
     21  O         20.1710   23.2210   13.5590 O.2   255  GLU255     -0.2718
     22  CB        20.0550   22.6830   16.8890 C.3   255  GLU255      0.0402
     23  CG        21.3480   23.4650   16.7280 C.3   255  GLU255      0.1161
     24  CD        22.3070   23.2820   17.9010 C.2   255  GLU255      0.3649
     25  OE1       22.4500   22.1410   18.4020 O.co2 255  GLU255     -0.2457
     26  OE2       22.9260   24.2880   18.3190 O.co2 255  GLU255     -0.2457
     27  N         20.0910   21.0660   14.2120 N.am  256  PHE256     -0.1976
     28  CA        20.7210   20.5550   13.0000 C.3   256  PHE256      0.1639
     29  C         19.9970   21.0510   11.7560 C.2   256  PHE256      0.2290
     30  O         20.6250   21.5190   10.8350 O.2   256  PHE256     -0.2864
     31  CB        20.7760   19.0260   13.0100 C.3   256  PHE256      0.0560
     32  CG        20.9920   18.4140   11.6410 C.ar  256  PHE256     -0.0200
     33  CD1       22.2370   18.4770   11.0220 C.ar  256  PHE256     -0.0042
     34  CD2       19.9570   17.7570   10.9860 C.ar  256  PHE256     -0.0042
     35  CE1       22.4400   17.9070    9.7650 C.ar  256  PHE256     -0.0003
     36  CE2       20.1580   17.1880    9.7250 C.ar  256  PHE256     -0.0003
     37  CZ        21.3980   17.2640    9.1170 C.ar  256  PHE256     -0.0000
     38  N         20.5460   24.9190   11.1260 N.3   259  GLN259     -0.1231
     39  CA        21.8610   25.1680   10.5470 C.3   259  GLN259      0.1698
     40  C         21.9540   24.6590    9.1090 C.2   259  GLN259      0.2592
     41  O         22.5400   25.3160    8.2500 O.2   259  GLN259     -0.2718
     42  CB        22.9670   24.5630   11.4190 C.3   259  GLN259      0.0381
     43  CG        23.1240   25.2820   12.7530 C.3   259  GLN259      0.0905
     44  CD        23.0060   26.7930   12.6010 C.2   259  GLN259      0.2608
     45  OE1       22.1100   27.4180   13.1740 O.2   259  GLN259     -0.2717
     46  NE2       23.9050   27.3830   11.8110 N.am  259  GLN259     -0.0878
     47  N         21.3730   23.4900    8.8530 N.am  260  LEU260     -0.1980
     48  CA        21.4140   22.8990    7.5260 C.3   260  LEU260      0.1596
     49  C         20.7820   23.8640    6.5380 C.2   260  LEU260      0.2287
     50  O         21.3610   24.1860    5.5090 O.2   260  LEU260     -0.2864
     51  CB        20.6690   21.5670    7.5080 C.3   260  LEU260      0.0297
     52  CG        20.9680   20.7230    6.2720 C.3   260  LEU260      0.0022
     53  CD1       22.4480   20.3810    6.2440 C.3   260  LEU260      0.0001
     54  CD2       20.1360   19.4640    6.2500 C.3   260  LEU260      0.0001
     55  N         23.3230   26.4200    5.8720 N.3   263  VAL263     -0.1231
     56  CA        24.3930   25.9050    5.0280 C.3   263  VAL263      0.1692
     57  C         23.9220   25.7820    3.5790 C.2   263  VAL263      0.2591
     58  O         24.5630   26.2870    2.6560 O.2   263  VAL263     -0.2718
     59  CB        24.9090   24.5370    5.5250 C.3   263  VAL263      0.0266
     60  CG1       25.7410   23.8600    4.4480 C.3   263  VAL263      0.0020
     61  CG2       25.7130   24.7030    6.8050 C.3   263  VAL263      0.0020
     62  N         22.7930   25.1060    3.3930 N.am  264  ILE264     -0.1980
     63  CA        22.2250   24.9280    2.0720 C.3   264  ILE264      0.1595
     64  C         22.1220   26.2730    1.3740 C.2   264  ILE264      0.2287
     65  O         22.5680   26.4240    0.2390 O.2   264  ILE264     -0.2864
     66  CB        20.8380   24.2850    2.1390 C.3   264  ILE264      0.0276
     67  CG1       20.9620   22.8120    2.5180 C.3   264  ILE264      0.0022
     68  CG2       20.1430   24.4170    0.8020 C.3   264  ILE264      0.0022
     69  CD1       19.6300   22.0850    2.6210 C.3   264  ILE264      0.0001
     70  N         25.3860   27.5620    0.2330 N.3   267  ILE267     -0.1245
     71  CA        25.9190   26.8070   -0.8950 C.3   267  ILE267      0.1561
     72  C         25.2450   27.2760   -2.1700 C.2   267  ILE267      0.2260
     73  O         25.8750   27.3300   -3.2210 O.2   267  ILE267     -0.2867
     74  CB        25.7300   25.2880   -0.7500 C.3   267  ILE267      0.0252
     75  CG1       26.3840   24.7840    0.5390 C.3   267  ILE267      0.0019
     76  CG2       26.3200   24.5600   -1.9510 C.3   267  ILE267      0.0019
     77  CD1       26.3850   23.2690    0.6700 C.3   267  ILE267      0.0001
     78  N         21.6350   16.8520    1.2420 N.3   306  ALA306     -0.1245
     79  CA        21.8190   17.4510    2.5620 C.3   306  ALA306      0.1562
     80  C         21.0050   16.7560    3.6500 C.2   306  ALA306      0.2260
     81  O         21.4240   16.6910    4.8060 O.2   306  ALA306     -0.2867
     82  CB        21.4770   18.9460    2.5290 C.3   306  ALA306      0.0290
     83  N         23.0850    8.0590   13.9790 N.3   761  ILE761     -0.1245
     84  CA        22.8300    9.4380   13.5750 C.3   761  ILE761      0.1561
     85  C         24.1130   10.0550   13.0070 C.2   761  ILE761      0.2260
     86  O         24.0970   10.7150   11.9660 O.2   761  ILE761     -0.2867
     87  CB        22.2960   10.2710   14.7500 C.3   761  ILE761      0.0252
     88  CG1       20.8470    9.8780   15.0330 C.3   761  ILE761      0.0019
     89  CG2       22.3740   11.7460   14.4260 C.3   761  ILE761      0.0019
     90  CD1       20.3140   10.3770   16.3780 C.3   761  ILE761      0.0001
     91  N         24.2260   11.2780    8.9980 N.3   765  ILE765     -0.1231
     92  CA        24.4690   12.6780    8.7080 C.3   765  ILE765      0.1692
     93  C         25.8750   12.8800    8.1500 C.2   765  ILE765      0.2592
     94  O         26.0910   13.7300    7.2980 O.2   765  ILE765     -0.2718
     95  CB        24.2210   13.5560    9.9580 C.3   765  ILE765      0.0266
     96  CG1       22.7010   13.6860   10.1890 C.3   765  ILE765      0.0019
     97  CG2       24.9260   14.9100    9.8170 C.3   765  ILE765      0.0020
     98  CD1       22.2970   14.4250   11.4660 C.3   765  ILE765      0.0001
     99  N         26.8240   12.0840    8.6240 N.am  766  SER766     -0.1952
    100  CA        28.1640   12.0910    8.0680 C.3   766  SER766      0.1924
    101  C         28.1110   11.8960    6.5320 C.2   766  SER766      0.2314
    102  O         28.6990   12.6650    5.7680 O.2   766  SER766     -0.2863
    103  CB        29.0060   11.0030    8.7430 C.3   766  SER766      0.2116
    104  OG        30.0780   10.5730    7.9200 O.3   766  SER766     -0.2180
    105  N         25.7210   12.4620    4.5670 N.3   768  ASN768     -0.1225
    106  CA        25.0800   13.6160    3.9290 C.3   768  ASN768      0.1785
    107  C         26.0740   14.7460    3.6980 C.2   768  ASN768      0.2597
    108  O         25.9470   15.5130    2.7360 O.2   768  ASN768     -0.2718
    109  CB        23.8860   14.1320    4.7300 C.3   768  ASN768      0.1169
    110  CG        22.6790   13.2130    4.6510 C.2   768  ASN768      0.2627
    111  OD1       22.3510   12.5250    5.6180 O.2   768  ASN768     -0.2716
    112  ND2       22.0010   13.2110    3.5050 N.am  768  ASN768     -0.0877
    113  N         27.0670   14.8550    4.5760 N.am  769  VAL769     -0.1980
    114  CA        28.1200   15.8370    4.3500 C.3   769  VAL769      0.1595
    115  C         28.8450   15.5680    3.0180 C.2   769  VAL769      0.2287
    116  O         28.9890   16.4630    2.1720 O.2   769  VAL769     -0.2864
    117  CB        29.1410   15.8310    5.4860 C.3   769  VAL769      0.0276
    118  CG1       30.3280   16.7380    5.1230 C.3   769  VAL769      0.0022
    119  CG2       28.4710   16.2350    6.8250 C.3   769  VAL769      0.0022
    120  N         26.8260   16.1000   -0.2230 N.3   772  VAL772     -0.1231
    121  CA        26.7410   17.5250   -0.5160 C.3   772  VAL772      0.1692
    122  C         28.0430   18.0340   -1.1220 C.2   772  VAL772      0.2591
    123  O         28.0310   18.8260   -2.0660 O.2   772  VAL772     -0.2718
    124  CB        26.4180   18.3540    0.7390 C.3   772  VAL772      0.0266
    125  CG1       26.7850   19.8090    0.5130 C.3   772  VAL772      0.0020
    126  CG2       24.9430   18.2190    1.1090 C.3   772  VAL772      0.0020
    127  N         29.1700   17.5810   -0.5840 N.am  773  VAL773     -0.1980
    128  CA        30.4610   17.9480   -1.1520 C.3   773  VAL773      0.1595
    129  C         30.5200   17.5000   -2.6160 C.2   773  VAL773      0.2287
    130  O         31.0320   18.2160   -3.4820 O.2   773  VAL773     -0.2864
    131  CB        31.6420   17.3590   -0.3460 C.3   773  VAL773      0.0276
    132  CG1       32.9710   17.6900   -1.0260 C.3   773  VAL773      0.0022
    133  CG2       31.6260   17.8940    1.0640 C.3   773  VAL773      0.0022
    134  N         28.4190   19.9690   -4.5500 N.3   776  PHE776     -0.1241
    135  CA        29.0730   21.2620   -4.6530 C.3   776  PHE776      0.1605
    136  C         30.2850   21.2560   -5.5930 C.2   776  PHE776      0.2264
    137  O         30.4570   22.1770   -6.3880 O.2   776  PHE776     -0.2867
    138  CB        29.4550   21.8290   -3.2890 C.3   776  PHE776      0.0534
    139  CG        30.1750   23.1340   -3.3820 C.ar  776  PHE776     -0.0203
    140  CD1       29.4790   24.2980   -3.6700 C.ar  776  PHE776     -0.0042
    141  CD2       31.5520   23.1930   -3.2370 C.ar  776  PHE776     -0.0042
    142  CE1       30.1390   25.5060   -3.7880 C.ar  776  PHE776     -0.0003
    143  CE2       32.2240   24.3960   -3.3540 C.ar  776  PHE776     -0.0003
    144  CZ        31.5160   25.5570   -3.6290 C.ar  776  PHE776     -0.0000
    145  N         26.3880   17.9230   22.4640 N.3   827  PRO827     -0.2102
    146  CA        26.3340   17.8430   20.9970 C.3   827  PRO827      0.1504
    147  C         26.5860   16.4200   20.5030 C.2   827  PRO827      0.2576
    148  O         27.4490   15.7160   21.0470 O.2   827  PRO827     -0.2718
    149  CB        27.4950   18.7420   20.5530 C.3   827  PRO827      0.0282
    150  CG        27.8380   19.5790   21.7460 C.3   827  PRO827      0.0208
    151  CD        27.5280   18.7310   22.9290 C.3   827  PRO827      0.0893
    152  N         25.8510   15.9950   19.4820 N.am  828  LEU828     -0.1966
    153  CA        26.1440   14.7030   18.8590 C.3   828  LEU828      0.1728
    154  C         27.5210   14.7100   18.1930 C.2   828  LEU828      0.2616
    155  O         28.2750   13.7320   18.3020 O.2   828  LEU828     -0.2715
    156  CB        25.0420   14.2890   17.8750 C.3   828  LEU828      0.0311
    157  CG        23.8140   13.7480   18.6190 C.3   828  LEU828      0.0022
    158  CD1       23.0600   14.8700   19.3200 C.3   828  LEU828      0.0001
    159  CD2       22.8980   12.9970   17.6880 C.3   828  LEU828      0.0001
    160  N         27.8440   15.8270   17.5350 N.am  829  ILE829     -0.1977
    161  CA        29.1300   16.0270   16.8720 C.3   829  ILE829      0.1596
    162  C         29.7170   17.3750   17.2550 C.2   829  ILE829      0.2287
    163  O         29.0490   18.4070   17.1390 O.2   829  ILE829     -0.2864
    164  CB        29.0000   16.0950   15.3280 C.3   829  ILE829      0.0276
    165  CG1       28.1730   14.9370   14.7590 C.3   829  ILE829      0.0022
    166  CG2       30.3750   16.1730   14.6990 C.3   829  ILE829      0.0022
    167  CD1       28.8680   13.6210   14.7910 C.3   829  ILE829      0.0001
    168  N         34.0990   16.5720   14.8940 N.3   834  PHE834     -0.1241
    169  CA        33.6110   17.4640   13.8530 C.3   834  PHE834      0.1605
    170  C         34.6030   17.5240   12.6830 C.2   834  PHE834      0.2264
    171  O         34.2070   17.5630   11.5140 O.2   834  PHE834     -0.2867
    172  CB        33.3520   18.8540   14.4320 C.3   834  PHE834      0.0534
    173  CG        33.0260   19.8970   13.3990 C.ar  834  PHE834     -0.0203
    174  CD1       31.7110   20.1910   13.0820 C.ar  834  PHE834     -0.0042
    175  CD2       34.0350   20.5900   12.7500 C.ar  834  PHE834     -0.0042
    176  CE1       31.4000   21.1510   12.1350 C.ar  834  PHE834     -0.0003
    177  CE2       33.7300   21.5570   11.8060 C.ar  834  PHE834     -0.0003
    178  CZ        32.4050   21.8350   11.4950 C.ar  834  PHE834     -0.0000
    179  N         34.7140   14.0250   10.6540 N.3   837  TYR837     -0.1227
    180  CA        33.6270   13.9320    9.6720 C.3   837  TYR837      0.1736
    181  C         33.7330   14.9500    8.5370 C.2   837  TYR837      0.2595
    182  O         33.2170   14.7430    7.4390 O.2   837  TYR837     -0.2718
    183  CB        32.2720   14.0140   10.3640 C.3   837  TYR837      0.0548
    184  CG        31.9830   12.7720   11.1720 C.ar  837  TYR837     -0.0200
    185  CD1       32.6220   11.5790   10.8710 C.ar  837  TYR837     -0.0009
    186  CD2       31.0870   12.7890   12.2280 C.ar  837  TYR837     -0.0009
    187  CE1       32.3800   10.4430   11.5870 C.ar  837  TYR837      0.0417
    188  CE2       30.8360   11.6450   12.9610 C.ar  837  TYR837      0.0417
    189  CZ        31.4870   10.4760   12.6320 C.ar  837  TYR837      0.1957
    190  OH        31.2530    9.3250   13.3370 O.3   837  TYR837     -0.2866
    191  N         34.4120   16.0490    8.8110 N.am  838  MET838     -0.1979
    192  CA        34.6740   17.0450    7.7980 C.3   838  MET838      0.1605
    193  C         35.7290   16.4970    6.8140 C.2   838  MET838      0.2287
    194  O         35.6660   16.7300    5.5990 O.2   838  MET838     -0.2864
    195  CB        35.1430   18.3090    8.5010 C.3   838  MET838      0.0413
    196  CG        35.4440   19.4730    7.6100 C.3   838  MET838      0.0598
    197  SD        35.0800   20.9850    8.5120 S.3   838  MET838     -0.1393
    198  CE        33.2990   20.9690    8.3860 C.3   838  MET838      0.0692
@<TRIPOS>BOND
     1   137   136    2
     2   136   135    1
     3   135   134    1
     4   135   138    1
     5   142   140   ar
     6   142   144   ar
     7   140   139   ar
     8   144   143   ar
     9   130   129    2
    10   139   138    1
    11   139   141   ar
    12   143   141   ar
    13    73    72    2
    14   129   128    1
    15    72    71    1
    16   123   122    2
    17    76    74    1
    18   128   127    1
    19   128   131    1
    20   122   127   am
    21   122   121    1
    22   132   131    1
    23    71    74    1
    24    71    70    1
    25    74    75    1
    26   121   120    1
    27   121   124    1
    28   131   133    1
    29    65    64    2
    30   125   124    1
    31    75    77    1
    32   124   126    1
    33    68    66    1
    34    78    79    1
    35    64    63    1
    36    63    66    1
    37    63    62    1
    38    66    67    1
    39   116   115    2
    40    67    69    1
    41    82    79    1
    42    79    80    1
    43    58    57    2
    44   108   107    2
    45   115   114    1
    46    62    57   am
    47   112   110   am
    48    57    56    1
    49    80    81    2
    50   107   106    1
    51   107   113   am
    52   106   105    1
    53   106   109    1
    54   114   113    1
    55   114   117    1
    56    60    59    1
    57   110   109    1
    58   110   111    2
    59    56    59    1
    60    56    55    1
    61   118   117    1
    62   117   119    1
    63    50    49    2
    64    59    61    1
    65   194   193    2
    66   102   101    2
    67    53    52    1
    68    54    52    1
    69    52    51    1
    70   101   100    1
    71    49    48    1
    72   193   192    1
    73    94    93    2
    74   182   181    2
    75    51    48    1
    76    48    47    1
    77   196   195    1
    78   196   197    1
    79   192   195    1
    80   192   191    1
    81   104   103    1
    82   100    99    1
    83   100   103    1
    84    93    99   am
    85    93    92    1
    86    41    40    2
    87   198   197    1
    88   181   191   am
    89   181   180    1
    90    92    91    1
    91    92    95    1
    92    47    40   am
    93    40    39    1
    94    37    36   ar
    95    37    35   ar
    96   180   183    1
    97   180   179    1
    98    36    34   ar
    99    35    33   ar
   100    97    95    1
   101    95    96    1
   102    96    98    1
   103   183   184    1
   104    39    38    1
   105    39    42    1
   106    30    29    2
   107   185   184   ar
   108   185   187   ar
   109    34    32   ar
   110    33    32   ar
   111   184   186   ar
   112    42    43    1
   113   178   177   ar
   114   178   176   ar
   115   171   170    2
   116   187   189   ar
   117    32    31    1
   118    29    28    1
   119   177   175   ar
   120    46    44   am
   121    86    85    2
   122   176   174   ar
   123   186   188   ar
   124    44    43    1
   125    44    45    2
   126   189   188   ar
   127   189   190    1
   128   170   169    1
   129   175   173   ar
   130    28    31    1
   131    28    27    1
   132    85    84    1
   133   174   173   ar
   134   173   172    1
   135    21    20    2
   136    84    83    1
   137    84    87    1
   138    13    12    2
   139   169   172    1
   140   169   168    1
   141    27    20   am
   142    20    19    1
   143    89    87    1
   144    17    15    1
   145   166   164    1
   146    87    88    1
   147   165   167    1
   148   165   164    1
   149    12    11    1
   150    88    90    1
   151    14    11    1
   152    14    15    1
   153   164   161    1
   154    11    10    1
   155    15    16    1
   156    19    18    1
   157    19    22    1
   158     4     3    2
   159    23    22    1
   160    23    24    1
   161    10     3   am
   162   161   162    1
   163   161   160    1
   164     3     2    1
   165   163   162    2
   166   160   154   am
   167   159   157    1
   168   156   157    1
   169   156   153    1
   170    24    26   ar
   171    24    25   ar
   172   154   155    2
   173   154   153    1
   174     2     5    1
   175     2     1    1
   176   157   158    1
   177   153   152    1
   178     5     6    1
   179   152   147   am
   180     6     7    1
   181   147   146    1
   182   147   148    2
   183   149   146    1
   184   149   150    1
   185     7     8    1
   186   146   145    1
   187   150   151    1
   188     8     9    1
   189   145   151    1
