@<TRIPOS>MOLECULE
tmp/3n5lA00.pdb
 119 113 0 0 0
SMALL
GASTEIGER

@<TRIPOS>ATOM
      1  N          3.4100   34.8230   -3.2430 N.3    10  ILE10      -0.1245
      2  CA         4.3220   34.0360   -2.4110 C.3    10  ILE10       0.1561
      3  C          3.7970   32.6210   -2.1390 C.2    10  ILE10       0.2260
      4  O          2.5790   32.3710   -2.1270 O.2    10  ILE10      -0.2867
      5  CB         4.7010   34.7400   -1.0760 C.3    10  ILE10       0.0252
      6  CG1        3.4810   35.1750   -0.2780 C.3    10  ILE10       0.0019
      7  CG2        5.6820   35.9080   -1.3390 C.3    10  ILE10       0.0019
      8  CD1        3.7920   35.4260    1.2160 C.3    10  ILE10       0.0001
      9  N          2.9080   30.3820   -0.0020 N.3    12  THR12      -0.1218
     10  CA         2.3350   29.9440    1.2740 C.3    12  THR12       0.1862
     11  C          1.7350   28.5500    1.1660 C.2    12  THR12       0.2287
     12  O          1.6920   27.8160    2.1400 O.2    12  THR12      -0.2866
     13  CB         1.2550   30.9230    1.7240 C.3    12  THR12       0.1770
     14  OG1        0.3170   31.0260    0.6520 O.3    12  THR12      -0.2211
     15  CG2        1.8580   32.2470    2.0010 C.3    12  THR12       0.0375
     16  N          9.9020   32.3480   -1.3110 N.3    44  TYR44      -0.1241
     17  CA         9.5890   33.7860   -1.3840 C.3    44  TYR44       0.1605
     18  C         10.7180   34.5470   -2.0920 C.2    44  TYR44       0.2264
     19  O         10.4520   35.5360   -2.8060 O.2    44  TYR44      -0.2867
     20  CB         9.3990   34.3780    0.0120 C.3    44  TYR44       0.0534
     21  CG         8.2200   33.9050    0.8560 C.ar   44  TYR44      -0.0201
     22  CD1        7.4570   32.7920    0.5250 C.ar   44  TYR44      -0.0009
     23  CD2        7.8970   34.5840    2.0250 C.ar   44  TYR44      -0.0009
     24  CE1        6.4080   32.3700    1.3430 C.ar   44  TYR44       0.0417
     25  CE2        6.8370   34.1820    2.8320 C.ar   44  TYR44       0.0417
     26  CZ         6.1200   33.0610    2.5010 C.ar   44  TYR44       0.1957
     27  OH         5.1030   32.6640    3.3160 O.3    44  TYR44      -0.2866
     28  N          1.8460   40.2380   -3.8740 N.3    59  TRP59      -0.1241
     29  CA         1.3800   39.9870   -2.5140 C.3    59  TRP59       0.1605
     30  C          2.5320   39.3170   -1.7640 C.2    59  TRP59       0.2264
     31  O          3.0100   38.2330   -2.1470 O.2    59  TRP59      -0.2867
     32  CB         0.1080   39.1300   -2.5360 C.3    59  TRP59       0.0550
     33  CG        -0.2430   38.5440   -1.2040 C.ar   59  TRP59       0.0003
     34  CD1       -0.6740   39.2080   -0.0980 C.ar   59  TRP59       0.0946
     35  CD2       -0.2230   37.1660   -0.8570 C.ar   59  TRP59       0.0152
     36  NE1       -0.8790   38.3300    0.9290 N.ar   59  TRP59      -0.2442
     37  CE2       -0.6470   37.0650    0.4810 C.ar   59  TRP59       0.0810
     38  CE3        0.0820   35.9980   -1.5550 C.ar   59  TRP59       0.0012
     39  CZ2       -0.7340   35.8470    1.1470 C.ar   59  TRP59       0.0191
     40  CZ3       -0.0320   34.7920   -0.9010 C.ar   59  TRP59       0.0001
     41  CH2       -0.4140   34.7290    0.4430 C.ar   59  TRP59       0.0015
     42  N          4.3400   38.7150    2.3440 N.3    61  GLY61      -0.1225
     43  CA         4.3190   38.9540    3.8010 C.3    61  GLY61       0.1811
     44  C          5.1840   40.1460    4.1410 C.2    61  GLY61       0.2280
     45  O          5.9460   40.6610    3.3050 O.2    61  GLY61      -0.2866
     46  N         -2.6580   38.9600   11.8520 N.3    88  TYR88      -0.1241
     47  CA        -2.7000   37.5050   11.9800 C.3    88  TYR88       0.1605
     48  C         -1.5850   37.0880   12.9500 C.2    88  TYR88       0.2264
     49  O         -0.8380   37.9400   13.4860 O.2    88  TYR88      -0.2867
     50  CB        -2.5900   36.8200   10.6030 C.3    88  TYR88       0.0534
     51  CG        -1.2150   36.8990   10.0040 C.ar   88  TYR88      -0.0201
     52  CD1       -0.7260   38.1090    9.5180 C.ar   88  TYR88      -0.0009
     53  CD2       -0.3740   35.7760    9.9460 C.ar   88  TYR88      -0.0009
     54  CE1        0.5400   38.2020    8.9760 C.ar   88  TYR88       0.0417
     55  CE2        0.8900   35.8630    9.4000 C.ar   88  TYR88       0.0417
     56  CZ         1.3450   37.0830    8.9290 C.ar   88  TYR88       0.1957
     57  OH         2.6060   37.2440    8.4360 O.3    88  TYR88      -0.2866
     58  N         12.5410   34.0930    4.2690 N.3   120  ASN120     -0.1225
     59  CA        11.8960   35.4080    4.0450 C.3   120  ASN120      0.1785
     60  C         10.4580   35.5230    4.5720 C.2   120  ASN120      0.2598
     61  O          9.7640   36.5060    4.2710 O.2   120  ASN120     -0.2718
     62  CB        12.0000   35.7850    2.5600 C.3   120  ASN120      0.1169
     63  CG        13.4100   36.0600    2.1670 C.2   120  ASN120      0.2627
     64  OD1       13.9990   37.0210    2.6570 O.2   120  ASN120     -0.2716
     65  ND2       14.0070   35.1830    1.3320 N.am  120  ASN120     -0.0877
     66  N         10.0490   34.5780    5.4270 N.am  121  SER121     -0.1938
     67  CA         8.6960   34.5720    6.0430 C.3   121  SER121      0.2055
     68  C          8.6900   35.2890    7.3850 C.2   121  SER121      0.2644
     69  O          9.5840   35.0900    8.2340 O.2   121  SER121     -0.2714
     70  CB         8.2040   33.1460    6.2540 C.3   121  SER121      0.2130
     71  OG         6.9590   33.1160    6.9060 O.3   121  SER121     -0.2179
     72  N          7.6670   36.1060    7.5770 N.am  122  THR122     -0.1936
     73  CA         7.4460   36.7990    8.8310 C.3   122  THR122      0.2028
     74  C          7.0390   35.7900    9.9210 C.2   122  THR122      0.2642
     75  O          7.7060   35.6620   10.9610 O.2   122  THR122     -0.2714
     76  CB         6.3100   37.8780    8.6660 C.3   122  THR122      0.1808
     77  OG1        6.3480   38.4500    7.3410 O.3   122  THR122     -0.2208
     78  CG2        6.4070   38.9700    9.7610 C.3   122  THR122      0.0379
     79  N          5.9300   35.0860    9.6780 N.am  123  SER123     -0.1949
     80  CA         5.3660   34.1580   10.6570 C.3   123  SER123      0.1924
     81  C          6.1530   32.8580   10.7040 C.2   123  SER123      0.2314
     82  O          6.1460   32.1820   11.7330 O.2   123  SER123     -0.2863
     83  CB         3.9080   33.8410   10.3720 C.3   123  SER123      0.2116
     84  OG         3.7330   33.3050    9.0670 O.3   123  SER123     -0.2180
     85  N          4.7900   27.2210    4.5160 N.3   152  HIS152     -0.1241
     86  CA         3.7840   26.9480    5.5320 C.3   152  HIS152      0.1621
     87  C          3.0330   25.6470    5.2800 C.2   152  HIS152      0.2264
     88  O          2.8710   24.7790    6.1950 O.2   152  HIS152     -0.2867
     89  CB         2.7900   28.1060    5.5950 C.3   152  HIS152      0.0745
     90  CG         3.3820   29.3560    6.1350 C.ar  152  HIS152      0.0817
     91  ND1        3.9510   29.4210    7.3970 N.ar  152  HIS152     -0.2268
     92  CD2        3.4630   30.5990    5.6110 C.ar  152  HIS152      0.1154
     93  CE1        4.3650   30.6610    7.6100 C.ar  152  HIS152      0.1986
     94  NE2        4.0860   31.3950    6.5420 N.ar  152  HIS152     -0.2212
     95  N          1.0560   29.5180   10.6150 N.3   170  ASN170     -0.1240
     96  CA         0.3660   30.7520   10.9310 C.3   170  ASN170      0.1653
     97  C         -1.1460   30.5270   10.8700 C.2   170  ASN170      0.2266
     98  O         -1.6220   29.5080   10.3340 O.2   170  ASN170     -0.2867
     99  CB         0.8530   31.9040   10.0290 C.3   170  ASN170      0.1155
    100  CG         0.3370   31.8060    8.6140 C.2   170  ASN170      0.2627
    101  OD1       -0.8320   32.0810    8.3660 O.2   170  ASN170     -0.2716
    102  ND2        1.1840   31.3850    7.6910 N.am  170  ASN170     -0.0877
    103  N         -3.5700   32.1160    9.2880 N.3   172  GLU172     -0.1245
    104  CA        -4.2100   32.1740    7.9710 C.3   172  GLU172      0.1567
    105  C         -4.0320   30.8460    7.2060 C.2   172  GLU172      0.2260
    106  O         -4.9730   30.3340    6.5970 O.2   172  GLU172     -0.2867
    107  CB        -3.6280   33.3170    7.1360 C.3   172  GLU172      0.0388
    108  CG        -3.8430   34.7330    7.7300 C.3   172  GLU172      0.1160
    109  CD        -3.1180   35.8300    6.9030 C.2   172  GLU172      0.3649
    110  OE1       -2.4090   35.5170    5.9280 O.co2 172  GLU172     -0.2457
    111  OE2       -3.2450   37.0220    7.2100 O.co2 172  GLU172     -0.2457
    112  N         -0.6640   41.7340    5.4950 N.3   199  ASP199     -0.1239
    113  CA         0.2560   41.6960    4.3440 C.3   199  ASP199      0.1674
    114  C          0.0880   42.8950    3.4280 C.2   199  ASP199      0.2266
    115  O         -1.0480   43.2780    3.1020 O.2   199  ASP199     -0.2867
    116  CB        -0.0480   40.4590    3.5090 C.3   199  ASP199      0.1410
    117  CG         0.2380   39.1490    4.2280 C.2   199  ASP199      0.3668
    118  OD1        0.9800   39.1130    5.2440 O.co2 199  ASP199     -0.2456
    119  OD2       -0.3130   38.1450    3.7430 O.co2 199  ASP199     -0.2456
@<TRIPOS>BOND
     1    28    29    1
     2     1     2    1
     3    19    18    2
     4    32    29    1
     5    32    33    1
     6    29    30    1
     7     2     3    1
     8     2     5    1
     9    31    30    2
    10     3     4    2
    11    18    17    1
    12    38    40   ar
    13    38    35   ar
    14    17    16    1
    15    17    20    1
    16     7     5    1
    17    33    35   ar
    18    33    34   ar
    19     5     6    1
    20    40    41   ar
    21    35    37   ar
    22     6     8    1
    23    34    36   ar
    24     9    10    1
    25    20    21    1
    26    41    39   ar
    27    37    36   ar
    28    37    39   ar
    29    22    21   ar
    30    22    24   ar
    31    14    13    1
    32    21    23   ar
    33    11    10    1
    34    11    12    2
    35    10    13    1
    36    65    63   am
    37    24    26   ar
    38    13    15    1
    39    23    25   ar
    40    63    62    1
    41    63    64    2
    42    42    43    1
    43    26    25   ar
    44    26    27    1
    45    62    59    1
    46   115   114    2
    47    45    44    2
    48   114   113    1
    49   116   117    1
    50   116   113    1
    51   119   117   ar
    52    43    44    1
    53    59    58    1
    54    59    60    1
    55   117   118   ar
    56    61    60    2
    57   113   112    1
    58    85    86    1
    59    60    66   am
    60    87    86    1
    61    87    88    2
    62    66    67    1
    63    86    89    1
    64    89    90    1
    65    92    90   ar
    66    92    94   ar
    67   110   109   ar
    68    67    70    1
    69    67    68    1
    70    90    91   ar
    71    70    71    1
    72    94    93   ar
    73   106   105    2
    74   109   111   ar
    75   109   108    1
    76   107   108    1
    77   107   104    1
    78   105   104    1
    79    77    76    1
    80    68    72   am
    81    68    69    2
    82    91    93   ar
    83    72    73    1
    84   102   100   am
    85   104   103    1
    86   101   100    2
    87    57    56    1
    88   100    99    1
    89    76    73    1
    90    76    78    1
    91    73    74    1
    92    56    54   ar
    93    56    55   ar
    94    54    52   ar
    95    84    83    1
    96    55    53   ar
    97    52    51   ar
    98    79    74   am
    99    79    80    1
   100    74    75    2
   101    53    51   ar
   102    51    50    1
   103    99    96    1
   104    98    97    2
   105    83    80    1
   106    50    47    1
   107    95    96    1
   108    80    81    1
   109    81    82    2
   110    97    96    1
   111    46    47    1
   112    47    48    1
   113    48    49    2
