@<TRIPOS>MOLECULE
tmp/3n5oA00.pdb
 167 160 0 0 0
SMALL
GASTEIGER

@<TRIPOS>ATOM
      1  N          2.8230   29.5670    9.8880 N.3    12  SER12      -0.1202
      2  CA         3.2800   28.3180   10.4840 C.3    12  SER12       0.2020
      3  C          2.2910   27.9350   11.5850 C.2    12  SER12       0.2619
      4  O          2.0580   28.7340   12.5200 O.2    12  SER12      -0.2717
      5  CB         4.6780   28.5120   11.0720 C.3    12  SER12       0.2103
      6  OG         4.9480   27.5520   12.1120 O.3    12  SER12      -0.2182
      7  N          1.6940   26.7400   11.4970 N.am   13  SER13      -0.1937
      8  CA         0.7220   26.3600   12.5480 C.3    13  SER13       0.2055
      9  C          1.4380   26.1490   13.8840 C.2    13  SER13       0.2643
     10  O          0.9220   26.5530   14.9250 O.2    13  SER13      -0.2714
     11  CB        -0.1170   25.1220   12.1760 C.3    13  SER13       0.2130
     12  OG         0.6860   23.9500   12.1120 O.3    13  SER13      -0.2179
     13  N          2.6450   25.5680   13.8490 N.am   14  CYS14      -0.1967
     14  CA         3.3780   25.3110   15.0870 C.3    14  CYS14       0.1712
     15  C          3.7680   26.6140   15.7820 C.2    14  CYS14       0.2296
     16  O          3.7520   26.6870   17.0190 O.2    14  CYS14      -0.2864
     17  CB         4.6100   24.4790   14.8220 C.3    14  CYS14       0.0983
     18  SG         4.2190   22.8180   14.2370 S.3    14  CYS14      -0.0798
     19  N          0.6740   28.0830   17.5790 N.3    17  ARG17      -0.1245
     20  CA         0.4180   27.4820   18.8910 C.3    17  ARG17       0.1563
     21  C          1.0860   28.3660   19.9490 C.2    17  ARG17       0.2260
     22  O          0.4950   28.7170   20.9630 O.2    17  ARG17      -0.2867
     23  CB         1.0220   26.0770   18.9630 C.3    17  ARG17       0.0307
     24  CG         0.5490   25.1110   17.9160 C.3    17  ARG17       0.0489
     25  CD         1.3650   23.7870   18.0300 C.3    17  ARG17       0.2205
     26  NE         0.9610   22.8690   16.9630 N.pl3  17  ARG17      -0.0865
     27  CZ         1.6450   21.8070   16.5760 C.cat  17  ARG17       0.5346
     28  NH1        2.8180   21.4960   17.1470 N.pl3  17  ARG17       0.1354
     29  NH2        1.1570   21.0770   15.5730 N.pl3  17  ARG17       0.1354
     30  N          9.5870   31.1590    5.5050 N.3    36  LEU36      -0.1245
     31  CA         9.6290   29.7480    5.0920 C.3    36  LEU36       0.1561
     32  C          9.5080   29.5320    3.5790 C.2    36  LEU36       0.2260
     33  O         10.0390   28.5430    3.0300 O.2    36  LEU36      -0.2867
     34  CB         8.5270   28.9390    5.7940 C.3    36  LEU36       0.0270
     35  CG         8.5590   28.7150    7.3180 C.3    36  LEU36       0.0019
     36  CD1        7.4880   27.6890    7.7430 C.3    36  LEU36       0.0001
     37  CD2        9.9450   28.2690    7.8030 C.3    36  LEU36       0.0001
     38  N         14.4710   29.1350    6.7100 N.3    41  GLN41      -0.1231
     39  CA        14.6480   27.9870    7.6270 C.3    41  GLN41       0.1698
     40  C         15.8370   27.0730    7.2630 C.2    41  GLN41       0.2592
     41  O         16.3320   26.3280    8.1240 O.2    41  GLN41      -0.2718
     42  CB        13.3720   27.1270    7.7180 C.3    41  GLN41       0.0381
     43  CG        13.0630   26.2240    6.4880 C.3    41  GLN41       0.0905
     44  CD        12.2090   26.9170    5.4000 C.2    41  GLN41       0.2608
     45  OE1       12.3800   28.1200    5.1210 O.2    41  GLN41      -0.2717
     46  NE2       11.2840   26.1500    4.7800 N.am   41  GLN41      -0.0878
     47  N         16.2780   27.1360    5.9960 N.am   42  HIS42      -0.1976
     48  CA        17.3470   26.2620    5.4640 C.3    42  HIS42       0.1656
     49  C         18.7610   26.8280    5.5780 C.2    42  HIS42       0.2291
     50  O         19.7330   26.0720    5.4670 O.2    42  HIS42      -0.2864
     51  CB        17.0930   25.8850    3.9940 C.3    42  HIS42       0.0771
     52  CG        15.7940   25.1740    3.7570 C.ar   42  HIS42       0.0820
     53  ND1       15.4130   24.0540    4.4710 N.ar   42  HIS42      -0.2267
     54  CD2       14.8020   25.4050    2.8630 C.ar   42  HIS42       0.1154
     55  CE1       14.2350   23.6400    4.0390 C.ar   42  HIS42       0.1986
     56  NE2       13.8420   24.4420    3.0650 N.ar   42  HIS42      -0.2212
     57  N         15.7340   22.7380   11.3150 N.3    53  ASN53      -0.1225
     58  CA        15.3710   23.7510   10.3060 C.3    53  ASN53       0.1785
     59  C         13.8690   24.0040   10.2750 C.2    53  ASN53       0.2598
     60  O         13.2370   23.9990    9.2020 O.2    53  ASN53      -0.2718
     61  CB        15.8480   23.3060    8.9140 C.3    53  ASN53       0.1169
     62  CG        17.3570   23.1360    8.8390 C.2    53  ASN53       0.2627
     63  OD1       17.8710   22.0240    9.0260 O.2    53  ASN53      -0.2716
     64  ND2       18.0760   24.2340    8.5830 N.am   53  ASN53      -0.0877
     65  N         13.2880   24.1660   11.4630 N.am   54  THR54      -0.1939
     66  CA        11.8490   24.4060   11.5890 C.3    54  THR54       0.2028
     67  C         11.5890   25.6430   12.4630 C.2    54  THR54       0.2642
     68  O         12.4520   26.0880   13.2290 O.2    54  THR54      -0.2714
     69  CB        11.0980   23.1830   12.1980 C.3    54  THR54       0.1808
     70  OG1       11.7410   22.7870   13.4230 O.3    54  THR54      -0.2208
     71  CG2       11.0540   22.0020   11.2100 C.3    54  THR54       0.0379
     72  N         10.3860   26.1870   12.3260 N.am   55  VAL55      -0.1963
     73  CA         9.8790   27.1640   13.2650 C.3    55  VAL55       0.1712
     74  C          8.6860   26.4570   13.8500 C.2    55  VAL55       0.2458
     75  O          8.0430   25.6560   13.1540 O.2    55  VAL55      -0.2730
     76  CB         9.4500   28.5260   12.5990 C.3    55  VAL55       0.0289
     77  CG1       10.6440   29.2550   12.0900 C.3    55  VAL55       0.0023
     78  CG2        8.3910   28.3140   11.4980 C.3    55  VAL55       0.0023
     79  N          8.3750   26.7460   15.1110 N.am   56  PRO56      -0.2727
     80  CA         9.0620   27.7950   15.8600 C.3    56  PRO56       0.1402
     81  C         10.3880   27.3890   16.5370 C.2    56  PRO56       0.2269
     82  O         10.6850   26.2000   16.7170 O.2    56  PRO56      -0.2865
     83  CB         8.0440   28.1320   16.9280 C.3    56  PRO56       0.0296
     84  CG         7.4020   26.7840   17.2280 C.3    56  PRO56       0.0237
     85  CD         7.3620   26.0630   15.9250 C.3    56  PRO56       0.0939
     86  N         13.3880   23.9890   20.4730 N.3    77  GLY77      -0.1210
     87  CA        13.0580   23.8570   19.0390 C.3    77  GLY77       0.1956
     88  C         11.8100   23.0500   18.6870 C.2    77  GLY77       0.2612
     89  O         11.5430   22.8180   17.5030 O.2    77  GLY77      -0.2717
     90  N         11.0390   22.6250   19.6870 N.am   78  GLN78      -0.1965
     91  CA         9.7980   21.9000   19.4190 C.3    78  GLN78       0.1733
     92  C          8.6630   22.5580   20.1640 C.2    78  GLN78       0.2617
     93  O          8.7800   22.8230   21.3660 O.2    78  GLN78      -0.2715
     94  CB         9.9180   20.4270   19.8720 C.3    78  GLN78       0.0408
     95  CG        10.7990   19.5630   18.9640 C.3    78  GLN78       0.0908
     96  CD        10.0890   19.1400   17.7060 C.2    78  GLN78       0.2608
     97  OE1        8.8820   18.8700   17.7010 O.2    78  GLN78      -0.2717
     98  NE2       10.8280   19.0860   16.6120 N.am   78  GLN78      -0.0878
     99  N          7.5610   22.8390   19.4650 N.am   79  SER79      -0.1936
    100  CA         6.4670   23.6100   20.0900 C.3    79  SER79       0.2055
    101  C          5.8410   22.9910   21.3270 C.2    79  SER79       0.2642
    102  O          5.4960   23.7280   22.2220 O.2    79  SER79      -0.2714
    103  CB         5.3740   23.9850   19.0760 C.3    79  SER79       0.2130
    104  OG         4.7910   22.8040   18.4900 O.3    79  SER79      -0.2179
    105  N          5.6570   21.6640   21.3950 N.am   80  LEU80      -0.1977
    106  CA         4.9910   21.1010   22.6060 C.3    80  LEU80       0.1596
    107  C          5.9070   21.2150   23.8110 C.2    80  LEU80       0.2287
    108  O          5.4680   21.5350   24.9170 O.2    80  LEU80      -0.2864
    109  CB         4.5820   19.6300   22.4210 C.3    80  LEU80       0.0297
    110  CG         3.6120   19.3240   21.2790 C.3    80  LEU80       0.0022
    111  CD1        3.1350   17.8540   21.3950 C.3    80  LEU80       0.0001
    112  CD2        2.4320   20.2950   21.2840 C.3    80  LEU80       0.0001
    113  N         -0.1600   17.3100   16.7990 N.3   118  ALA118     -0.1245
    114  CA         1.2810   17.5790   16.6420 C.3   118  ALA118      0.1562
    115  C          2.1110   16.3860   16.1320 C.2   118  ALA118      0.2260
    116  O          3.2080   16.5760   15.5940 O.2   118  ALA118     -0.2867
    117  CB         1.8540   18.1050   17.9730 C.3   118  ALA118      0.0290
    118  N          0.0630   17.4930   11.7990 N.3   122  GLN122     -0.1231
    119  CA         0.9830   18.5450   11.3160 C.3   122  GLN122      0.1683
    120  C          2.2100   17.9900   10.5750 C.2   122  GLN122      0.2434
    121  O          2.5070   18.4620    9.4690 O.2   122  GLN122     -0.2733
    122  CB         1.3780   19.5490   12.4270 C.3   122  GLN122      0.0380
    123  CG         2.1700   20.7950   11.9220 C.3   122  GLN122      0.0905
    124  CD         3.6760   20.4920   11.7450 C.2   122  GLN122      0.2608
    125  OE1        4.2250   19.6240   12.4390 O.2   122  GLN122     -0.2717
    126  NE2        4.3320   21.1900   10.8120 N.am  122  GLN122     -0.0878
    127  N          2.9190   16.9990   11.1570 N.am  123  PRO123     -0.2729
    128  CA         4.1800   16.6000   10.5300 C.3   123  PRO123      0.1401
    129  C          3.9950   15.9860    9.1600 C.2   123  PRO123      0.2269
    130  O          4.8710   16.1650    8.3100 O.2   123  PRO123     -0.2865
    131  CB         4.7570   15.5470   11.4880 C.3   123  PRO123      0.0296
    132  CG         4.1840   15.9780   12.8590 C.3   123  PRO123      0.0237
    133  CD         2.7350   16.3350   12.4690 C.3   123  PRO123      0.0939
    134  N          3.0540   19.1140    6.4930 N.3   126  ASN126     -0.1225
    135  CA         3.8000   20.3560    6.4320 C.3   126  ASN126      0.1785
    136  C          4.4510   20.6070    5.0730 C.2   126  ASN126      0.2597
    137  O          4.3700   19.7850    4.1590 O.2   126  ASN126     -0.2718
    138  CB         4.8280   20.4810    7.5770 C.3   126  ASN126      0.1169
    139  CG         5.9910   19.5380    7.4430 C.2   126  ASN126      0.2627
    140  OD1        5.9870   18.6610    6.5850 O.2   126  ASN126     -0.2716
    141  ND2        7.0290   19.7250    8.2850 N.am  126  ASN126     -0.0877
    142  N          5.1170   21.7380    4.9490 N.am  127  LEU127     -0.1966
    143  CA         5.7240   22.0690    3.6730 C.3   127  LEU127      0.1728
    144  C          6.7500   21.0250    3.2350 C.2   127  LEU127      0.2616
    145  O          6.7300   20.6190    2.0720 O.2   127  LEU127     -0.2715
    146  CB         6.3380   23.4680    3.7020 C.3   127  LEU127      0.0311
    147  CG         6.9790   23.9760    2.4010 C.3   127  LEU127      0.0022
    148  CD1        5.9800   24.0540    1.2240 C.3   127  LEU127      0.0001
    149  CD2        7.5810   25.3430    2.7140 C.3   127  LEU127      0.0001
    150  N          7.6330   20.6080    4.1390 N.am  128  LYS128     -0.1977
    151  CA         8.6920   19.6540    3.7740 C.3   128  LYS128      0.1596
    152  C          8.0690   18.3820    3.1910 C.2   128  LYS128      0.2287
    153  O          8.5490   17.8290    2.1740 O.2   128  LYS128     -0.2864
    154  CB         9.6070   19.3210    4.9810 C.3   128  LYS128      0.0298
    155  CG        10.7800   18.3350    4.6440 C.3   128  LYS128      0.0038
    156  CD        11.6540   17.8710    5.8620 C.3   128  LYS128      0.0206
    157  CE        10.8960   17.0760    6.9400 C.3   128  LYS128      0.1093
    158  NZ        11.8190   16.5960    8.0430 N.3   128  LYS128     -0.1314
    159  N          6.3560   18.9260   -0.2250 N.3   131  LYS131     -0.1245
    160  CA         7.3900   18.9450   -1.2800 C.3   131  LYS131      0.1561
    161  C          7.8900   17.5430   -1.6760 C.2   131  LYS131      0.2260
    162  O          8.0660   17.2520   -2.8680 O.2   131  LYS131     -0.2867
    163  CB         8.5490   19.8360   -0.8790 C.3   131  LYS131      0.0271
    164  CG         8.1630   21.3030   -0.8760 C.3   131  LYS131      0.0035
    165  CD         9.3150   22.1750   -0.4200 C.3   131  LYS131      0.0206
    166  CE         8.9940   23.6330   -0.7360 C.3   131  LYS131      0.1093
    167  NZ         9.8260   24.5590    0.0950 N.3   131  LYS131     -0.1314
@<TRIPOS>BOND
     1   162   161    2
     2   161   160    1
     3   160   163    1
     4   160   159    1
     5   163   164    1
     6   164   165    1
     7   166   165    1
     8   166   167    1
     9   148   147    1
    10   145   144    2
    11   153   152    2
    12   147   149    1
    13   147   146    1
    14    54    56   ar
    15    54    52   ar
    16    33    32    2
    17    56    55   ar
    18   152   151    1
    19   144   143    1
    20   144   150   am
    21    32    31    1
    22   143   146    1
    23   143   142    1
    24    52    51    1
    25    52    53   ar
    26   151   150    1
    27   151   154    1
    28    51    48    1
    29    55    53   ar
    30   137   136    2
    31   155   154    1
    32   155   156    1
    33    46    44   am
    34   142   136   am
    35   136   135    1
    36    31    30    1
    37    31    34    1
    38    45    44    2
    39    44    43    1
    40    48    49    1
    41    48    47    1
    42    50    49    2
    43    34    35    1
    44   156   157    1
    45    47    40   am
    46   135   134    1
    47   135   138    1
    48    43    42    1
    49   140   139    2
    50    38    39    1
    51   157   158    1
    52    40    39    1
    53    40    41    2
    54    35    36    1
    55    35    37    1
    56   139   138    1
    57   139   141   am
    58    39    42    1
    59   130   129    2
    60    64    62   am
    61    62    61    1
    62    62    63    2
    63    61    58    1
    64   129   128    1
    65    60    59    2
    66   121   120    2
    67     1     2    1
    68    59    58    1
    69    59    65   am
    70    58    57    1
    71     2     5    1
    72     2     3    1
    73   128   127    1
    74   128   131    1
    75   120   127   am
    76   120   119    1
    77   126   124   am
    78     5     6    1
    79   127   133    1
    80    71    69    1
    81   119   118    1
    82   119   122    1
    83    65    66    1
    84   131   132    1
    85     7     3   am
    86     7     8    1
    87    78    76    1
    88     3     4    2
    89    66    69    1
    90    66    67    1
    91   124   123    1
    92   124   125    2
    93   123   122    1
    94    77    76    1
    95    12    11    1
    96    11     8    1
    97    69    70    1
    98    72    67   am
    99    72    73    1
   100    67    68    2
   101   133   132    1
   102     8     9    1
   103    76    73    1
   104    75    74    2
   105    73    74    1
   106    13     9   am
   107    13    14    1
   108    74    79   am
   109     9    10    2
   110    18    17    1
   111    17    14    1
   112    14    15    1
   113    79    80    1
   114    79    85    1
   115    29    27    1
   116   116   115    2
   117    15    16    2
   118    80    81    1
   119    80    83    1
   120    85    84    1
   121   115   114    1
   122    81    82    2
   123    27    26    2
   124    27    28    1
   125    98    96   am
   126   114   113    1
   127   114   117    1
   128    83    84    1
   129    26    25    1
   130    89    88    2
   131    19    20    1
   132    97    96    2
   133    96    95    1
   134    24    25    1
   135    24    23    1
   136   104   103    1
   137    88    87    1
   138    88    90   am
   139    20    23    1
   140    20    21    1
   141    95    94    1
   142    87    86    1
   143   103   100    1
   144    91    90    1
   145    91    94    1
   146    91    92    1
   147    99   100    1
   148    99    92   am
   149    21    22    2
   150   100   101    1
   151    92    93    2
   152   110   112    1
   153   110   111    1
   154   110   109    1
   155   101   105   am
   156   101   102    2
   157   105   106    1
   158   109   106    1
   159   106   107    1
   160   107   108    2
