@<TRIPOS>MOLECULE
tmp/3n5wB03.pdb
 128 122 0 0 0
SMALL
GASTEIGER

@<TRIPOS>ATOM
      1  N         14.3550   12.2430   42.9450 N.3    36  SER36      -0.1217
      2  CA        15.3600   11.2410   43.3620 C.3    36  SER36       0.1889
      3  C         16.5350   11.8080   44.1930 C.2    36  SER36       0.2288
      4  O         17.5330   11.1150   44.4120 O.2    36  SER36      -0.2866
      5  CB        15.8970   10.4330   42.1650 C.3    36  SER36       0.2089
      6  OG        16.6460   11.2450   41.2680 O.3    36  SER36      -0.2183
      7  N         17.9840   12.5550   47.7210 N.3    38  MET38      -0.1245
      8  CA        17.6680   11.9900   49.0380 C.3    38  MET38       0.1570
      9  C         17.4560   13.0350   50.1280 C.2    38  MET38       0.2261
     10  O         16.5950   12.8620   50.9890 O.2    38  MET38      -0.2867
     11  CB        18.6920   10.9500   49.4790 C.3    38  MET38       0.0387
     12  CG        18.1440   10.1070   50.6510 C.3    38  MET38       0.0595
     13  SD        19.1180    8.6610   51.0100 S.3    38  MET38      -0.1393
     14  CE        19.2160    7.9060   49.4030 C.3    38  MET38       0.0692
     15  N         22.4510   -1.7240   65.8000 N.3   174  ARG174     -0.1245
     16  CA        23.1550   -1.7220   64.5330 C.3   174  ARG174      0.1563
     17  C         24.5250   -2.2940   64.8070 C.2   174  ARG174      0.2260
     18  O         24.9740   -2.2690   65.9550 O.2   174  ARG174     -0.2867
     19  CB        23.2850   -0.2910   63.9790 C.3   174  ARG174      0.0307
     20  CG        22.7560   -0.2080   62.5400 C.3   174  ARG174      0.0489
     21  CD        23.0100    1.1220   61.8340 C.3   174  ARG174      0.2205
     22  NE        22.8020    0.9450   60.3970 N.pl3 174  ARG174     -0.0865
     23  CZ        22.9970    1.8820   59.4730 C.cat 174  ARG174      0.5346
     24  NH1       23.4600    3.0860   59.8130 N.pl3 174  ARG174      0.1354
     25  NH2       22.7300    1.6000   58.1950 N.pl3 174  ARG174      0.1354
     26  N         28.7430    0.8640   56.8490 N.3   190  ALA190     -0.1245
     27  CA        27.8890    2.0350   57.0730 C.3   190  ALA190      0.1562
     28  C         28.2120    2.6980   58.4140 C.2   190  ALA190      0.2260
     29  O         27.9330    3.8800   58.6000 O.2   190  ALA190     -0.2867
     30  CB        26.3870    1.6460   57.0640 C.3   190  ALA190      0.0290
     31  N         19.2860   -4.6430   50.7770 N.3   289  ARG289     -0.1245
     32  CA        19.9570   -3.4040   51.1900 C.3   289  ARG289      0.1563
     33  C         21.1670   -3.6850   52.1080 C.2   289  ARG289      0.2260
     34  O         22.3250   -3.3660   51.7720 O.2   289  ARG289     -0.2867
     35  CB        18.9260   -2.4710   51.8600 C.3   289  ARG289      0.0307
     36  CG        19.4650   -1.1160   52.3460 C.3   289  ARG289      0.0489
     37  CD        18.3920   -0.3900   53.2080 C.3   289  ARG289      0.2205
     38  NE        18.2510   -1.0340   54.5190 N.pl3 289  ARG289     -0.0865
     39  CZ        17.1780   -0.9680   55.3140 C.cat 289  ARG289      0.5346
     40  NH1       16.0810   -0.3220   54.9540 N.pl3 289  ARG289      0.1354
     41  NH2       17.1970   -1.5800   56.4850 N.pl3 289  ARG289      0.1354
     42  N         23.9910   -4.3360   49.1520 N.3   293  ASP293     -0.1239
     43  CA        24.5670   -3.0560   48.7470 C.3   293  ASP293      0.1674
     44  C         26.0920   -3.1810   48.7440 C.2   293  ASP293      0.2266
     45  O         26.6900   -3.8130   49.6400 O.2   293  ASP293     -0.2867
     46  CB        24.1400   -1.8950   49.6410 C.3   293  ASP293      0.1410
     47  CG        22.8300   -1.2540   49.2000 C.2   293  ASP293      0.3668
     48  OD1       22.3630   -0.3170   49.8950 O.co2 293  ASP293     -0.2456
     49  OD2       22.2660   -1.6910   48.1690 O.co2 293  ASP293     -0.2456
     50  N         28.2950   -0.9220   49.2310 N.3   295  SER295     -0.1202
     51  CA        28.8590   -0.2030   50.3800 C.3   295  SER295      0.2020
     52  C         28.4700   -0.7970   51.7460 C.2   295  SER295      0.2618
     53  O         28.7000   -0.1760   52.7870 O.2   295  SER295     -0.2717
     54  CB        28.4490    1.2670   50.3290 C.3   295  SER295      0.2103
     55  OG        27.0360    1.3980   50.4490 O.3   295  SER295     -0.2182
     56  N         27.8770   -1.9900   51.7510 N.am  296  ARG296     -0.1979
     57  CA        27.4790   -2.6430   53.0210 C.3   296  ARG296      0.1597
     58  C         28.1860   -3.9930   53.1690 C.2   296  ARG296      0.2287
     59  O         29.3840   -4.0800   52.8680 O.2   296  ARG296     -0.2864
     60  CB        25.9450   -2.7490   53.1010 C.3   296  ARG296      0.0334
     61  CG        25.2340   -1.3840   53.0420 C.3   296  ARG296      0.0492
     62  CD        25.5120   -0.4730   54.2520 C.3   296  ARG296      0.2205
     63  NE        25.0720   -1.0860   55.5290 N.pl3 296  ARG296     -0.0865
     64  CZ        23.8080   -1.2660   55.8980 C.cat 296  ARG296      0.5346
     65  NH1       22.8040   -0.8540   55.1150 N.pl3 296  ARG296      0.1354
     66  NH2       23.5380   -1.8520   57.0740 N.pl3 296  ARG296      0.1354
     67  N         10.0140    6.4270   44.7160 N.3   370  VAL370     -0.1231
     68  CA        11.4080    6.0080   44.7620 C.3   370  VAL370      0.1692
     69  C         11.7070    5.1050   45.9580 C.2   370  VAL370      0.2592
     70  O         12.4570    4.1330   45.8380 O.2   370  VAL370     -0.2718
     71  CB        12.3400    7.2460   44.7330 C.3   370  VAL370      0.0266
     72  CG1       13.7830    6.8230   44.9180 C.3   370  VAL370      0.0020
     73  CG2       12.1380    8.0190   43.3730 C.3   370  VAL370      0.0020
     74  N         11.1110    5.4050   47.1140 N.am  371  TRP371     -0.1976
     75  CA        11.3150    4.6060   48.3030 C.3   371  TRP371      0.1640
     76  C         10.3030    3.5000   48.4880 C.2   371  TRP371      0.2290
     77  O         10.6160    2.4730   49.1210 O.2   371  TRP371     -0.2864
     78  CB        11.2950    5.4830   49.5650 C.3   371  TRP371      0.0576
     79  CG        12.5380    6.3240   49.7730 C.ar  371  TRP371      0.0006
     80  CD1       13.1570    7.1430   48.8740 C.ar  371  TRP371      0.0946
     81  CD2       13.2850    6.4100   50.9860 C.ar  371  TRP371      0.0152
     82  NE1       14.2450    7.7460   49.4570 N.ar  371  TRP371     -0.2442
     83  CE2       14.3380    7.3240   50.7630 C.ar  371  TRP371      0.0810
     84  CE3       13.1370    5.8290   52.2560 C.ar  371  TRP371      0.0012
     85  CZ2       15.2660    7.6540   51.7550 C.ar  371  TRP371      0.0191
     86  CZ3       14.0690    6.1380   53.2540 C.ar  371  TRP371      0.0001
     87  CH2       15.1130    7.0570   52.9980 C.ar  371  TRP371      0.0015
     88  N          8.6970    1.6290   46.1190 N.3   373  VAL373     -0.1231
     89  CA         8.9490    0.4490   45.3070 C.3   373  VAL373      0.1678
     90  C         10.1330   -0.3330   45.9130 C.2   373  VAL373      0.2434
     91  O         11.1660    0.2470   46.1870 O.2   373  VAL373     -0.2733
     92  CB         9.2090    0.8270   43.8330 C.3   373  VAL373      0.0265
     93  CG1        9.5690   -0.4170   43.0280 C.3   373  VAL373      0.0020
     94  CG2        7.9350    1.4900   43.2430 C.3   373  VAL373      0.0020
     95  N          9.9630   -1.6450   46.1620 N.am  374  PRO374     -0.2718
     96  CA        11.0450   -2.4740   46.7170 C.3   374  PRO374      0.1520
     97  C         12.2900   -2.5370   45.8070 C.2   374  PRO374      0.2440
     98  O         12.1770   -2.3570   44.5630 O.2   374  PRO374     -0.2731
     99  CB        10.3930   -3.8660   46.8420 C.3   374  PRO374      0.0310
    100  CG         8.9310   -3.5600   46.9890 C.3   374  PRO374      0.0237
    101  CD         8.6880   -2.3810   46.0930 C.3   374  PRO374      0.0939
    102  N         13.4790   -2.7830   46.4060 N.am  375  PRO375     -0.2727
    103  CA        14.7320   -2.7300   45.6480 C.3   375  PRO375      0.1402
    104  C         15.0200   -3.9750   44.8120 C.2   375  PRO375      0.2269
    105  O         16.0410   -4.0230   44.1180 O.2   375  PRO375     -0.2865
    106  CB        15.7900   -2.5010   46.7430 C.3   375  PRO375      0.0296
    107  CG        15.2220   -3.1960   47.9300 C.3   375  PRO375      0.0237
    108  CD        13.7290   -2.9010   47.8550 C.3   375  PRO375      0.0939
    109  N         14.4890   14.3460   58.5140 N.3   399  TYR399     -0.1241
    110  CA        15.8730   13.9370   58.7190 C.3   399  TYR399      0.1605
    111  C         16.6060   15.0840   59.4360 C.2   399  TYR399      0.2264
    112  O         16.2580   16.2600   59.3200 O.2   399  TYR399     -0.2867
    113  CB        16.5280   13.5200   57.3870 C.3   399  TYR399      0.0534
    114  CG        17.7960   12.6700   57.5130 C.ar  399  TYR399     -0.0201
    115  CD1       17.7340   11.3200   57.8900 C.ar  399  TYR399     -0.0009
    116  CD2       19.0480   13.2210   57.2410 C.ar  399  TYR399     -0.0009
    117  CE1       18.9030   10.5370   58.0040 C.ar  399  TYR399      0.0417
    118  CE2       20.2270   12.4530   57.3480 C.ar  399  TYR399      0.0417
    119  CZ        20.1460   11.1220   57.7290 C.ar  399  TYR399      0.1957
    120  OH        21.3120   10.3810   57.8230 O.3   399  TYR399     -0.2866
    121  N         23.7700   14.2890   61.4340 N.3   402  ASP402     -0.1239
    122  CA        24.3830   13.5570   62.5360 C.3   402  ASP402      0.1674
    123  C         24.9260   14.5320   63.5700 C.2   402  ASP402      0.2266
    124  O         25.5560   15.5430   63.2180 O.2   402  ASP402     -0.2867
    125  CB        25.5010   12.6490   62.0430 C.3   402  ASP402      0.1410
    126  CG        24.9970   11.5100   61.1820 C.2   402  ASP402      0.3668
    127  OD1       23.9170   10.9380   61.4670 O.co2 402  ASP402     -0.2456
    128  OD2       25.7100   11.1700   60.2150 O.co2 402  ASP402     -0.2456
@<TRIPOS>BOND
     1     6     5    1
     2     5     2    1
     3     1     2    1
     4    93    92    1
     5    94    92    1
     6     2     3    1
     7    73    71    1
     8    92    89    1
     9   105   104    2
    10     3     4    2
    11    98    97    2
    12    67    68    1
    13    71    68    1
    14    71    72    1
    15    68    69    1
    16   104   103    1
    17    89    90    1
    18    89    88    1
    19   103   102    1
    20   103   106    1
    21    97   102   am
    22    97    96    1
    23    70    69    2
    24    90    95   am
    25    90    91    2
    26    69    74   am
    27   101    95    1
    28   101   100    1
    29    95    96    1
    30   102   108    1
    31    96    99    1
    32   106   107    1
    33    99   100    1
    34    74    75    1
    35     7     8    1
    36   108   107    1
    37    49    47   ar
    38    75    76    1
    39    75    78    1
    40    76    77    2
    41    44    43    1
    42    44    45    2
    43    43    42    1
    44    43    46    1
    45    80    82   ar
    46    80    79   ar
    47     8    11    1
    48     8     9    1
    49    47    46    1
    50    47    48   ar
    51    50    51    1
    52    14    13    1
    53    82    83   ar
    54    11    12    1
    55    78    79    1
    56    79    81   ar
    57     9    10    2
    58    54    51    1
    59    54    55    1
    60    51    52    1
    61    12    13    1
    62    83    81   ar
    63    83    85   ar
    64    31    32    1
    65    81    84   ar
    66    32    35    1
    67    32    33    1
    68    52    56   am
    69    52    53    2
    70    56    57    1
    71    85    87   ar
    72    34    33    2
    73    35    36    1
    74    84    86   ar
    75    36    37    1
    76    59    58    2
    77    87    86   ar
    78    57    60    1
    79    57    58    1
    80    61    60    1
    81    61    62    1
    82    37    38    1
    83    62    63    1
    84    38    39    2
    85    40    39    1
    86    65    64    1
    87    39    41    1
    88    63    64    2
    89    64    66    1
    90    26    27    1
    91    30    27    1
    92    27    28    1
    93   116   118   ar
    94   116   114   ar
    95   118   119   ar
    96   113   114    1
    97   113   110    1
    98   114   115   ar
    99   119   120    1
   100   119   117   ar
   101   115   117   ar
   102    25    23    1
   103    28    29    2
   104   109   110    1
   105   110   111    1
   106   112   111    2
   107    23    24    1
   108    23    22    2
   109   128   126   ar
   110    22    21    1
   111   126   127   ar
   112   126   125    1
   113   121   122    1
   114    21    20    1
   115   125   122    1
   116   122   123    1
   117    20    19    1
   118   124   123    2
   119    19    16    1
   120    16    17    1
   121    16    15    1
   122    17    18    2
