@<TRIPOS>MOLECULE
tmp/3n5xB02.pdb
 197 192 0 0 0
SMALL
GASTEIGER

@<TRIPOS>ATOM
      1  N         17.9630   12.5710   47.6970 N.3    38  MET38      -0.1230
      2  CA        17.6370   11.9970   49.0070 C.3    38  MET38       0.1702
      3  C         17.4030   13.0570   50.0820 C.2    38  MET38       0.2592
      4  O         16.5250   12.8910   50.9220 O.2    38  MET38      -0.2718
      5  CB        18.6740   10.9770   49.4600 C.3    38  MET38       0.0401
      6  CG        18.1920   10.1640   50.6730 C.3    38  MET38       0.0596
      7  SD        19.1680    8.6940   50.9840 S.3    38  MET38      -0.1393
      8  CE        19.0590    7.8540   49.4170 C.3    38  MET38       0.0692
      9  N         18.1700   14.1460   50.0170 N.am   39  LEU39      -0.1980
     10  CA        17.9950   15.3140   50.9050 C.3    39  LEU39       0.1596
     11  C         17.7300   16.5930   50.0760 C.2    39  LEU39       0.2287
     12  O         18.6410   17.3840   49.8510 O.2    39  LEU39      -0.2864
     13  CB        19.2410   15.5090   51.7800 C.3    39  LEU39       0.0297
     14  CG        19.7450   14.3040   52.5770 C.3    39  LEU39       0.0022
     15  CD1       21.1390   14.5550   53.1340 C.3    39  LEU39       0.0001
     16  CD2       18.7820   13.9820   53.6920 C.3    39  LEU39       0.0001
     17  N          7.6070    8.0260   52.5680 N.3   107  ARG107     -0.1245
     18  CA         8.5510    6.9780   52.1970 C.3   107  ARG107      0.1563
     19  C          8.2740    5.6150   52.8340 C.2   107  ARG107      0.2260
     20  O          8.9650    4.6410   52.5240 O.2   107  ARG107     -0.2867
     21  CB         9.9670    7.4400   52.5190 C.3   107  ARG107      0.0307
     22  CG        10.3760    8.5660   51.6020 C.3   107  ARG107      0.0489
     23  CD        11.6490    9.2300   52.0730 C.3   107  ARG107      0.2205
     24  NE        12.2820    9.9710   50.9810 N.pl3 107  ARG107     -0.0865
     25  CZ        13.3260   10.7800   51.1660 C.cat 107  ARG107      0.5346
     26  NH1       13.7840   10.9850   52.4090 N.pl3 107  ARG107      0.1354
     27  NH2       13.8970   11.3930   50.1360 N.pl3 107  ARG107      0.1354
     28  N         20.3350    3.9880   64.3020 N.3   171  GLN171     -0.1245
     29  CA        19.3120    2.9930   64.6900 C.3   171  GLN171      0.1566
     30  C         19.6530    2.5180   66.1040 C.2   171  GLN171      0.2260
     31  O         20.8240    2.4730   66.4620 O.2   171  GLN171     -0.2867
     32  CB        19.3140    1.7670   63.7510 C.3   171  GLN171      0.0367
     33  CG        18.9440    2.0410   62.2860 C.3   171  GLN171      0.0905
     34  CD        19.0200    0.7780   61.4150 C.2   171  GLN171      0.2608
     35  OE1       18.7320   -0.3290   61.8810 O.2   171  GLN171     -0.2717
     36  NE2       19.3980    0.9440   60.1480 N.am  171  GLN171     -0.0878
     37  N         22.4290   -1.7090   65.7840 N.3   174  ARG174     -0.1245
     38  CA        23.1030   -1.7070   64.5030 C.3   174  ARG174      0.1563
     39  C         24.4770   -2.2570   64.7720 C.2   174  ARG174      0.2260
     40  O         24.9180   -2.2290   65.9240 O.2   174  ARG174     -0.2867
     41  CB        23.1750   -0.2710   63.9410 C.3   174  ARG174      0.0307
     42  CG        22.7810   -0.2410   62.4630 C.3   174  ARG174      0.0489
     43  CD        22.9820    1.1040   61.7830 C.3   174  ARG174      0.2205
     44  NE        22.7390    0.9640   60.3450 N.pl3 174  ARG174     -0.0865
     45  CZ        22.9760    1.9020   59.4360 C.cat 174  ARG174      0.5346
     46  NH1       23.5220    3.0700   59.7840 N.pl3 174  ARG174      0.1354
     47  NH2       22.6680    1.6640   58.1670 N.pl3 174  ARG174      0.1354
     48  N         14.0350   -3.3260   63.7700 N.3   258  PRO258     -0.2116
     49  CA        14.4760   -2.1230   63.0500 C.3   258  PRO258      0.1372
     50  C         13.9330   -0.8910   63.7890 C.2   258  PRO258      0.2244
     51  O         12.7000   -0.7260   63.9250 O.2   258  PRO258     -0.2868
     52  CB        13.8230   -2.2850   61.6750 C.3   258  PRO258      0.0268
     53  CG        12.4840   -2.9700   61.9990 C.3   258  PRO258      0.0207
     54  CD        12.7650   -3.8560   63.2370 C.3   258  PRO258      0.0892
     55  N         14.5710    3.3070   64.1000 N.3   260  VAL260     -0.1245
     56  CA        15.2050    4.5530   63.6270 C.3   260  VAL260      0.1561
     57  C         15.3340    5.5330   64.7850 C.2   260  VAL260      0.2260
     58  O         14.3520    5.8180   65.4380 O.2   260  VAL260     -0.2867
     59  CB        14.3610    5.1680   62.5050 C.3   260  VAL260      0.0252
     60  CG1       14.7970    6.5990   62.1880 C.3   260  VAL260      0.0019
     61  CG2       14.4830    4.2910   61.2460 C.3   260  VAL260      0.0019
     62  N         17.4510    8.6050   64.6260 N.3   262  ASN262     -0.1225
     63  CA        18.0930    9.8570   64.2170 C.3   262  ASN262      0.1785
     64  C         17.1930   10.9220   63.6050 C.2   262  ASN262      0.2597
     65  O         17.6960   11.9300   63.0820 O.2   262  ASN262     -0.2718
     66  CB        19.2430    9.5710   63.2510 C.3   262  ASN262      0.1169
     67  CG        18.7870    8.8600   61.9810 C.2   262  ASN262      0.2627
     68  OD1       17.6130    8.5120   61.8190 O.2   262  ASN262     -0.2716
     69  ND2       19.7270    8.6570   61.0600 N.am  262  ASN262     -0.0877
     70  N         15.8820   10.7100   63.6380 N.am  263  MET263     -0.1979
     71  CA        14.9510   11.6410   63.0060 C.3   263  MET263      0.1605
     72  C         14.3140   12.6330   63.9890 C.2   263  MET263      0.2287
     73  O         14.4200   12.4580   65.2140 O.2   263  MET263     -0.2864
     74  CB        13.9110   10.8720   62.1640 C.3   263  MET263      0.0413
     75  CG        14.6040   10.2370   60.9210 C.3   263  MET263      0.0598
     76  SD        13.4660    9.4320   59.8270 S.3   263  MET263     -0.1393
     77  CE        12.9770   10.8480   58.7990 C.3   263  MET263      0.0692
     78  N         11.8300    5.2620   67.0560 N.3   277  PHE277     -0.1227
     79  CA        10.6370    4.4970   66.7070 C.3   277  PHE277      0.1736
     80  C         11.0300    3.2010   65.9980 C.2   277  PHE277      0.2596
     81  O         12.1010    3.1180   65.3990 O.2   277  PHE277     -0.2718
     82  CB         9.6730    5.3510   65.8790 C.3   277  PHE277      0.0547
     83  CG        10.2670    5.9260   64.5910 C.ar  277  PHE277     -0.0202
     84  CD1       10.2920    5.1700   63.4190 C.ar  277  PHE277     -0.0042
     85  CD2       10.7160    7.2450   64.5330 C.ar  277  PHE277     -0.0042
     86  CE1       10.7790    5.7140   62.2120 C.ar  277  PHE277     -0.0003
     87  CE2       11.2140    7.7790   63.3500 C.ar  277  PHE277     -0.0003
     88  CZ        11.2370    6.9970   62.1700 C.ar  277  PHE277     -0.0000
     89  N         10.1790    2.1900   66.0990 N.am  278  SER278     -0.1938
     90  CA        10.5090    0.8530   65.5910 C.3   278  SER278      0.2055
     91  C          9.2590    0.1480   65.0820 C.2   278  SER278      0.2644
     92  O          8.1570    0.4440   65.5440 O.2   278  SER278     -0.2714
     93  CB        11.1870    0.0140   66.7080 C.3   278  SER278      0.2130
     94  OG        10.3030   -0.1950   67.8250 O.3   278  SER278     -0.2179
     95  N          9.4310   -0.7540   64.1120 N.am  279  GLY279     -0.1939
     96  CA         8.3290   -1.5950   63.6400 C.3   279  GLY279      0.2014
     97  C          8.8480   -3.0220   63.5100 C.2   279  GLY279      0.2639
     98  O          9.3770   -3.5660   64.4710 O.2   279  GLY279     -0.2714
     99  N          8.7100   -3.6110   62.3230 N.am  280  TRP280     -0.1959
    100  CA         9.3480   -4.8860   61.9790 C.3   280  TRP280      0.1771
    101  C          9.8510   -4.8050   60.5420 C.2   280  TRP280      0.2620
    102  O          9.4040   -3.9450   59.7870 O.2   280  TRP280     -0.2715
    103  CB         8.3880   -6.0800   62.1310 C.3   280  TRP280      0.0590
    104  CG         7.0510   -5.9550   61.4420 C.ar  280  TRP280      0.0006
    105  CD1        6.7620   -6.1880   60.1060 C.ar  280  TRP280      0.0946
    106  CD2        5.8310   -5.5620   62.0580 C.ar  280  TRP280      0.0152
    107  NE1        5.4070   -5.9650   59.8780 N.ar  280  TRP280     -0.2442
    108  CE2        4.8220   -5.5750   61.0580 C.ar  280  TRP280      0.0810
    109  CE3        5.4870   -5.1880   63.3720 C.ar  280  TRP280      0.0012
    110  CZ2        3.4830   -5.2550   61.3350 C.ar  280  TRP280      0.0191
    111  CZ3        4.1350   -4.8720   63.6540 C.ar  280  TRP280      0.0001
    112  CH2        3.1600   -4.9090   62.6260 C.ar  280  TRP280      0.0015
    113  N         10.7460   -5.7140   60.1550 N.am  281  TYR281     -0.1960
    114  CA        11.3820   -5.6430   58.8430 C.3   281  TYR281      0.1771
    115  C         10.5100   -6.1090   57.6850 C.2   281  TYR281      0.2619
    116  O          9.6920   -7.0260   57.8370 O.2   281  TYR281     -0.2715
    117  CB        12.6370   -6.5300   58.8380 C.3   281  TYR281      0.0574
    118  CG        13.9000   -5.8400   59.3130 C.ar  281  TYR281     -0.0198
    119  CD1       14.4770   -6.1610   60.5510 C.ar  281  TYR281     -0.0009
    120  CD2       14.5130   -4.8870   58.5240 C.ar  281  TYR281     -0.0009
    121  CE1       15.6550   -5.5340   60.9790 C.ar  281  TYR281      0.0417
    122  CE2       15.6870   -4.2480   58.9420 C.ar  281  TYR281      0.0417
    123  CZ        16.2380   -4.5870   60.1670 C.ar  281  TYR281      0.1957
    124  OH        17.3910   -3.9730   60.5420 O.3   281  TYR281     -0.2866
    125  N         10.7170   -5.4820   56.5290 N.am  282  MET282     -0.1977
    126  CA        10.3880   -6.0970   55.2380 C.3   282  MET282      0.1605
    127  C         11.6560   -6.8120   54.8240 C.2   282  MET282      0.2287
    128  O         12.7620   -6.2600   54.9710 O.2   282  MET282     -0.2864
    129  CB         9.9640   -5.0290   54.2190 C.3   282  MET282      0.0413
    130  CG         9.5500   -5.6110   52.8280 C.3   282  MET282      0.0598
    131  SD         8.7730   -4.3490   51.7970 S.3   282  MET282     -0.1393
    132  CE        10.1790   -3.3840   51.2590 C.3   282  MET282      0.0692
    133  N         14.8520   -5.3640   53.1120 N.3   285  GLU285     -0.1245
    134  CA        15.7050   -4.4130   53.8150 C.3   285  GLU285      0.1567
    135  C         17.0040   -5.0820   54.2730 C.2   285  GLU285      0.2260
    136  O         18.0830   -4.4930   54.1560 O.2   285  GLU285     -0.2867
    137  CB        14.9880   -3.8120   55.0180 C.3   285  GLU285      0.0388
    138  CG        13.7900   -2.9720   54.6400 C.3   285  GLU285      0.1160
    139  CD        13.1610   -2.3960   55.8860 C.2   285  GLU285      0.3649
    140  OE1       13.6720   -1.3500   56.3400 O.co2 285  GLU285     -0.2457
    141  OE2       12.1990   -2.9830   56.4160 O.co2 285  GLU285     -0.2457
    142  N         19.2630   -4.6330   50.7280 N.3   289  ARG289     -0.1231
    143  CA        19.9760   -3.4170   51.1440 C.3   289  ARG289      0.1694
    144  C         21.2000   -3.7390   52.0530 C.2   289  ARG289      0.2592
    145  O         22.3530   -3.4930   51.6820 O.2   289  ARG289     -0.2718
    146  CB        18.9900   -2.4390   51.8200 C.3   289  ARG289      0.0321
    147  CG        19.5810   -1.1200   52.3560 C.3   289  ARG289      0.0489
    148  CD        18.5300   -0.3790   53.2560 C.3   289  ARG289      0.2205
    149  NE        18.3490   -1.0890   54.5320 N.pl3 289  ARG289     -0.0865
    150  CZ        17.2680   -1.0590   55.3160 C.cat 289  ARG289      0.5346
    151  NH1       16.1720   -0.3890   54.9900 N.pl3 289  ARG289      0.1354
    152  NH2       17.2790   -1.7430   56.4520 N.pl3 289  ARG289      0.1354
    153  N         20.9340   -4.2800   53.2350 N.am  290  ASP290     -0.1974
    154  CA        21.9820   -4.4720   54.2320 C.3   290  ASP290      0.1709
    155  C         23.0100   -5.5260   53.8000 C.2   290  ASP290      0.2293
    156  O         24.2130   -5.3460   54.0310 O.2   290  ASP290     -0.2864
    157  CB        21.3810   -4.8010   55.6220 C.3   290  ASP290      0.1436
    158  CG        20.4520   -3.6910   56.1700 C.2   290  ASP290      0.3671
    159  OD1       20.5980   -2.5190   55.7800 O.co2 290  ASP290     -0.2456
    160  OD2       19.5730   -3.9900   57.0320 O.co2 290  ASP290     -0.2456
    161  N         27.8600   -2.0390   51.7370 N.3   296  ARG296     -0.1245
    162  CA        27.4560   -2.6880   53.0050 C.3   296  ARG296      0.1563
    163  C         28.1590   -4.0340   53.1450 C.2   296  ARG296      0.2260
    164  O         29.3590   -4.1170   52.8380 O.2   296  ARG296     -0.2867
    165  CB        25.9180   -2.7870   53.0660 C.3   296  ARG296      0.0307
    166  CG        25.2390   -1.4070   53.0020 C.3   296  ARG296      0.0489
    167  CD        25.5040   -0.5000   54.2440 C.3   296  ARG296      0.2205
    168  NE        25.0490   -1.0890   55.5220 N.pl3 296  ARG296     -0.0865
    169  CZ        23.7800   -1.2490   55.8840 C.cat 296  ARG296      0.5346
    170  NH1       22.7920   -0.8340   55.0930 N.pl3 296  ARG296      0.1354
    171  NH2       23.4970   -1.7970   57.0680 N.pl3 296  ARG296      0.1354
    172  N         11.1200    5.3860   47.0930 N.3   371  TRP371     -0.1241
    173  CA        11.3170    4.5840   48.2930 C.3   371  TRP371      0.1605
    174  C         10.3050    3.4860   48.4710 C.2   371  TRP371      0.2264
    175  O         10.6240    2.4400   49.0630 O.2   371  TRP371     -0.2867
    176  CB        11.2720    5.4760   49.5510 C.3   371  TRP371      0.0550
    177  CG        12.5240    6.2950   49.7610 C.ar  371  TRP371      0.0003
    178  CD1       13.1500    7.1090   48.8510 C.ar  371  TRP371      0.0946
    179  CD2       13.2850    6.3770   50.9650 C.ar  371  TRP371      0.0152
    180  NE1       14.2490    7.6940   49.4230 N.ar  371  TRP371     -0.2442
    181  CE2       14.3450    7.2790   50.7270 C.ar  371  TRP371      0.0810
    182  CE3       13.1520    5.7960   52.2380 C.ar  371  TRP371      0.0012
    183  CZ2       15.2920    7.6020   51.7080 C.ar  371  TRP371      0.0191
    184  CZ3       14.0940    6.1130   53.2290 C.ar  371  TRP371      0.0001
    185  CH2       15.1450    7.0180   52.9600 C.ar  371  TRP371      0.0015
    186  N         14.4970   14.3800   58.4780 N.3   399  TYR399     -0.1241
    187  CA        15.9470   14.1100   58.5520 C.3   399  TYR399      0.1605
    188  C         16.6200   15.1580   59.4150 C.2   399  TYR399      0.2264
    189  O         16.2650   16.3360   59.3290 O.2   399  TYR399     -0.2867
    190  CB        16.5650   14.1630   57.1330 C.3   399  TYR399      0.0534
    191  CG        18.0850   14.2310   57.1070 C.ar  399  TYR399     -0.0201
    192  CD1       18.8540   13.0820   57.2640 C.ar  399  TYR399     -0.0009
    193  CD2       18.7520   15.4450   56.9310 C.ar  399  TYR399     -0.0009
    194  CE1       20.2570   13.1420   57.2540 C.ar  399  TYR399      0.0417
    195  CE2       20.1460   15.5100   56.9220 C.ar  399  TYR399      0.0417
    196  CZ        20.8850   14.3490   57.0860 C.ar  399  TYR399      0.1957
    197  OH        22.2600   14.3980   57.0780 O.3   399  TYR399     -0.2866
@<TRIPOS>BOND
     1   172   173    1
     2     1     2    1
     3   173   174    1
     4   173   176    1
     5   174   175    2
     6   178   180   ar
     7   178   177   ar
     8     2     5    1
     9     2     3    1
    10     8     7    1
    11   180   181   ar
    12     5     6    1
    13   176   177    1
    14   177   179   ar
    15    12    11    2
    16     9     3   am
    17     9    10    1
    18    11    10    1
    19     3     4    2
    20    27    25    1
    21     6     7    1
    22   181   179   ar
    23   181   183   ar
    24   142   143    1
    25    10    13    1
    26   179   182   ar
    27    24    25    2
    28    24    23    1
    29   143   146    1
    30   143   144    1
    31    25    26    1
    32   132   131    1
    33    22    23    1
    34    22    21    1
    35   145   144    2
    36   183   185   ar
    37   161   162    1
    38    13    14    1
    39   131   130    1
    40   146   147    1
    41   144   153   am
    42    18    21    1
    43    18    17    1
    44    18    19    1
    45   182   184   ar
    46   147   148    1
    47    20    19    2
    48    14    15    1
    49    14    16    1
    50   130   129    1
    51   164   163    2
    52   185   184   ar
    53   166   165    1
    54   166   167    1
    55   162   165    1
    56   162   163    1
    57   133   134    1
    58   153   154    1
    59   148   149    1
    60   155   156    2
    61   155   154    1
    62   134   135    1
    63   134   137    1
    64   136   135    2
    65   129   126    1
    66   154   157    1
    67   167   168    1
    68   149   150    2
    69   138   137    1
    70   138   139    1
    71   127   128    2
    72   127   126    1
    73   151   150    1
    74   170   169    1
    75   126   125    1
    76   150   152    1
    77   168   169    2
    78   157   158    1
    79   159   158   ar
    80   169   171    1
    81   139   140   ar
    82   139   141   ar
    83   158   160   ar
    84   125   115   am
    85   195   193   ar
    86   195   196   ar
    87   193   191   ar
    88   197   196    1
    89   196   194   ar
    90   191   190    1
    91   191   192   ar
    92   190   187    1
    93   194   192   ar
    94   115   116    2
    95   115   114    1
    96    47    45    1
    97   186   187    1
    98   120   122   ar
    99   120   118   ar
   100   187   188    1
   101    77    76    1
   102   117   114    1
   103   117   118    1
   104   114   113    1
   105   122   123   ar
   106   118   119   ar
   107   189   188    2
   108    45    46    1
   109    45    44    2
   110   102   101    2
   111    76    75    1
   112   107   105   ar
   113   107   108   ar
   114   105   104   ar
   115    36    34   am
   116   113   101   am
   117   123   124    1
   118   123   121   ar
   119    44    43    1
   120   101   100    1
   121   119   121   ar
   122    75    74    1
   123   108   110   ar
   124   108   106   ar
   125    69    67   am
   126    61    59    1
   127   110   112   ar
   128    34    35    2
   129    34    33    1
   130   104   106   ar
   131   104   103    1
   132    52    53    1
   133    52    49    1
   134    43    42    1
   135    68    67    2
   136   100   103    1
   137   100    99    1
   138    67    66    1
   139    53    54    1
   140   106   109   ar
   141    74    71    1
   142    88    86   ar
   143    88    87   ar
   144    60    59    1
   145    86    84   ar
   146    33    32    1
   147    99    97   am
   148    42    41    1
   149    59    56    1
   150   112   111   ar
   151    71    70    1
   152    71    72    1
   153    49    48    1
   154    49    50    1
   155    65    64    2
   156    54    48    1
   157    66    63    1
   158    87    85   ar
   159   109   111   ar
   160    84    83   ar
   161    97    96    1
   162    97    98    2
   163    64    70   am
   164    64    63    1
   165    56    55    1
   166    56    57    1
   167    96    95    1
   168    32    29    1
   169    50    51    2
   170    41    38    1
   171    72    73    2
   172    95    91   am
   173    63    62    1
   174    28    29    1
   175    38    39    1
   176    38    37    1
   177    85    83   ar
   178    83    82    1
   179    29    30    1
   180    39    40    2
   181    57    58    2
   182    91    92    2
   183    91    90    1
   184    81    80    2
   185    90    89    1
   186    90    93    1
   187    82    79    1
   188    80    89   am
   189    80    79    1
   190    30    31    2
   191    79    78    1
   192    93    94    1
