@<TRIPOS>MOLECULE
tmp/3n5xB03.pdb
 128 122 0 0 0
SMALL
GASTEIGER

@<TRIPOS>ATOM
      1  N         14.3580   12.2200   42.9400 N.3    36  SER36      -0.1217
      2  CA        15.3570   11.2110   43.3440 C.3    36  SER36       0.1889
      3  C         16.5250   11.7960   44.1600 C.2    36  SER36       0.2288
      4  O         17.5430   11.1400   44.3390 O.2    36  SER36      -0.2866
      5  CB        15.8760   10.4060   42.1360 C.3    36  SER36       0.2089
      6  OG        16.7030   11.2000   41.2870 O.3    36  SER36      -0.2183
      7  N         17.9630   12.5710   47.6970 N.3    38  MET38      -0.1245
      8  CA        17.6370   11.9970   49.0070 C.3    38  MET38       0.1570
      9  C         17.4030   13.0570   50.0820 C.2    38  MET38       0.2261
     10  O         16.5250   12.8910   50.9220 O.2    38  MET38      -0.2867
     11  CB        18.6740   10.9770   49.4600 C.3    38  MET38       0.0387
     12  CG        18.1920   10.1640   50.6730 C.3    38  MET38       0.0595
     13  SD        19.1680    8.6940   50.9840 S.3    38  MET38      -0.1393
     14  CE        19.0590    7.8540   49.4170 C.3    38  MET38       0.0692
     15  N         22.4290   -1.7090   65.7840 N.3   174  ARG174     -0.1245
     16  CA        23.1030   -1.7070   64.5030 C.3   174  ARG174      0.1563
     17  C         24.4770   -2.2570   64.7720 C.2   174  ARG174      0.2260
     18  O         24.9180   -2.2290   65.9240 O.2   174  ARG174     -0.2867
     19  CB        23.1750   -0.2710   63.9410 C.3   174  ARG174      0.0307
     20  CG        22.7810   -0.2410   62.4630 C.3   174  ARG174      0.0489
     21  CD        22.9820    1.1040   61.7830 C.3   174  ARG174      0.2205
     22  NE        22.7390    0.9640   60.3450 N.pl3 174  ARG174     -0.0865
     23  CZ        22.9760    1.9020   59.4360 C.cat 174  ARG174      0.5346
     24  NH1       23.5220    3.0700   59.7840 N.pl3 174  ARG174      0.1354
     25  NH2       22.6680    1.6640   58.1670 N.pl3 174  ARG174      0.1354
     26  N         28.7290    0.8500   56.7950 N.3   190  ALA190     -0.1245
     27  CA        27.8620    2.0120   57.0350 C.3   190  ALA190      0.1562
     28  C         28.1710    2.6990   58.3630 C.2   190  ALA190      0.2260
     29  O         27.8690    3.8800   58.5210 O.2   190  ALA190     -0.2867
     30  CB        26.3710    1.5960   57.0410 C.3   190  ALA190      0.0290
     31  N         19.2630   -4.6330   50.7280 N.3   289  ARG289     -0.1245
     32  CA        19.9760   -3.4170   51.1440 C.3   289  ARG289      0.1563
     33  C         21.2000   -3.7390   52.0530 C.2   289  ARG289      0.2260
     34  O         22.3530   -3.4930   51.6820 O.2   289  ARG289     -0.2867
     35  CB        18.9900   -2.4390   51.8200 C.3   289  ARG289      0.0307
     36  CG        19.5810   -1.1200   52.3560 C.3   289  ARG289      0.0489
     37  CD        18.5300   -0.3790   53.2560 C.3   289  ARG289      0.2205
     38  NE        18.3490   -1.0890   54.5320 N.pl3 289  ARG289     -0.0865
     39  CZ        17.2680   -1.0590   55.3160 C.cat 289  ARG289      0.5346
     40  NH1       16.1720   -0.3890   54.9900 N.pl3 289  ARG289      0.1354
     41  NH2       17.2790   -1.7430   56.4520 N.pl3 289  ARG289      0.1354
     42  N         24.0090   -4.3230   49.1280 N.3   293  ASP293     -0.1239
     43  CA        24.5950   -3.0520   48.6800 C.3   293  ASP293      0.1674
     44  C         26.1150   -3.2070   48.6990 C.2   293  ASP293      0.2266
     45  O         26.6710   -3.8120   49.6280 O.2   293  ASP293     -0.2867
     46  CB        24.1910   -1.8810   49.5630 C.3   293  ASP293      0.1410
     47  CG        22.8600   -1.2680   49.1640 C.2   293  ASP293      0.3668
     48  OD1       22.4240   -0.3200   49.8590 O.co2 293  ASP293     -0.2456
     49  OD2       22.2530   -1.7150   48.1670 O.co2 293  ASP293     -0.2456
     50  N         28.3340   -1.0150   49.2100 N.3   295  SER295     -0.1202
     51  CA        28.8770   -0.2750   50.3610 C.3   295  SER295      0.2020
     52  C         28.4890   -0.8640   51.7310 C.2   295  SER295      0.2618
     53  O         28.7550   -0.2500   52.7780 O.2   295  SER295     -0.2717
     54  CB        28.4180    1.1820   50.3080 C.3   295  SER295      0.2103
     55  OG        27.0000    1.2480   50.3830 O.3   295  SER295     -0.2182
     56  N         27.8600   -2.0390   51.7370 N.am  296  ARG296     -0.1979
     57  CA        27.4560   -2.6880   53.0050 C.3   296  ARG296      0.1597
     58  C         28.1590   -4.0340   53.1450 C.2   296  ARG296      0.2287
     59  O         29.3590   -4.1170   52.8380 O.2   296  ARG296     -0.2864
     60  CB        25.9180   -2.7870   53.0660 C.3   296  ARG296      0.0334
     61  CG        25.2390   -1.4070   53.0020 C.3   296  ARG296      0.0492
     62  CD        25.5040   -0.5000   54.2440 C.3   296  ARG296      0.2205
     63  NE        25.0490   -1.0890   55.5220 N.pl3 296  ARG296     -0.0865
     64  CZ        23.7800   -1.2490   55.8840 C.cat 296  ARG296      0.5346
     65  NH1       22.7920   -0.8340   55.0930 N.pl3 296  ARG296      0.1354
     66  NH2       23.4970   -1.7970   57.0680 N.pl3 296  ARG296      0.1354
     67  N         10.0170    6.3930   44.6880 N.3   370  VAL370     -0.1231
     68  CA        11.4330    5.9820   44.7350 C.3   370  VAL370      0.1692
     69  C         11.7120    5.0710   45.9370 C.2   370  VAL370      0.2592
     70  O         12.4270    4.0700   45.8160 O.2   370  VAL370     -0.2718
     71  CB        12.3470    7.2230   44.7390 C.3   370  VAL370      0.0266
     72  CG1       13.8140    6.8370   44.9300 C.3   370  VAL370      0.0020
     73  CG2       12.1650    8.0110   43.4120 C.3   370  VAL370      0.0020
     74  N         11.1200    5.3860   47.0930 N.am  371  TRP371     -0.1976
     75  CA        11.3170    4.5840   48.2930 C.3   371  TRP371      0.1640
     76  C         10.3050    3.4860   48.4710 C.2   371  TRP371      0.2290
     77  O         10.6240    2.4400   49.0630 O.2   371  TRP371     -0.2864
     78  CB        11.2720    5.4760   49.5510 C.3   371  TRP371      0.0576
     79  CG        12.5240    6.2950   49.7610 C.ar  371  TRP371      0.0006
     80  CD1       13.1500    7.1090   48.8510 C.ar  371  TRP371      0.0946
     81  CD2       13.2850    6.3770   50.9650 C.ar  371  TRP371      0.0152
     82  NE1       14.2490    7.6940   49.4230 N.ar  371  TRP371     -0.2442
     83  CE2       14.3450    7.2790   50.7270 C.ar  371  TRP371      0.0810
     84  CE3       13.1520    5.7960   52.2380 C.ar  371  TRP371      0.0012
     85  CZ2       15.2920    7.6020   51.7080 C.ar  371  TRP371      0.0191
     86  CZ3       14.0940    6.1130   53.2290 C.ar  371  TRP371      0.0001
     87  CH2       15.1450    7.0180   52.9600 C.ar  371  TRP371      0.0015
     88  N          8.6990    1.6190   46.1030 N.3   373  VAL373     -0.1231
     89  CA         8.9640    0.4300   45.2990 C.3   373  VAL373      0.1678
     90  C         10.1480   -0.3470   45.9050 C.2   373  VAL373      0.2434
     91  O         11.2090    0.2260   46.1460 O.2   373  VAL373     -0.2733
     92  CB         9.2280    0.7910   43.8310 C.3   373  VAL373      0.0265
     93  CG1        9.5960   -0.4530   43.0070 C.3   373  VAL373      0.0020
     94  CG2        7.9900    1.4760   43.2410 C.3   373  VAL373      0.0020
     95  N          9.9680   -1.6570   46.1440 N.am  374  PRO374     -0.2718
     96  CA        11.0510   -2.4770   46.7160 C.3   374  PRO374      0.1520
     97  C         12.2960   -2.5380   45.8170 C.2   374  PRO374      0.2440
     98  O         12.1910   -2.3720   44.5740 O.2   374  PRO374     -0.2731
     99  CB        10.4270   -3.8790   46.8300 C.3   374  PRO374      0.0310
    100  CG         8.9460   -3.6500   46.7680 C.3   374  PRO374      0.0237
    101  CD         8.7110   -2.4000   45.9930 C.3   374  PRO374      0.0939
    102  N         13.4770   -2.7950   46.4210 N.am  375  PRO375     -0.2727
    103  CA        14.7260   -2.7120   45.6590 C.3   375  PRO375      0.1402
    104  C         15.0320   -3.9330   44.7990 C.2   375  PRO375      0.2269
    105  O         16.0490   -3.9440   44.1010 O.2   375  PRO375     -0.2865
    106  CB        15.7820   -2.4990   46.7620 C.3   375  PRO375      0.0296
    107  CG        15.2130   -3.2180   47.9340 C.3   375  PRO375      0.0237
    108  CD        13.7350   -2.8740   47.8730 C.3   375  PRO375      0.0939
    109  N         14.4970   14.3800   58.4780 N.3   399  TYR399     -0.1241
    110  CA        15.9470   14.1100   58.5520 C.3   399  TYR399      0.1605
    111  C         16.6200   15.1580   59.4150 C.2   399  TYR399      0.2264
    112  O         16.2650   16.3360   59.3290 O.2   399  TYR399     -0.2867
    113  CB        16.5650   14.1630   57.1330 C.3   399  TYR399      0.0534
    114  CG        18.0850   14.2310   57.1070 C.ar  399  TYR399     -0.0201
    115  CD1       18.8540   13.0820   57.2640 C.ar  399  TYR399     -0.0009
    116  CD2       18.7520   15.4450   56.9310 C.ar  399  TYR399     -0.0009
    117  CE1       20.2570   13.1420   57.2540 C.ar  399  TYR399      0.0417
    118  CE2       20.1460   15.5100   56.9220 C.ar  399  TYR399      0.0417
    119  CZ        20.8850   14.3490   57.0860 C.ar  399  TYR399      0.1957
    120  OH        22.2600   14.3980   57.0780 O.3   399  TYR399     -0.2866
    121  N         23.7300   14.3420   61.4140 N.3   402  ASP402     -0.1239
    122  CA        24.3660   13.5980   62.4940 C.3   402  ASP402      0.1674
    123  C         24.9250   14.5630   63.5290 C.2   402  ASP402      0.2266
    124  O         25.5570   15.5660   63.1840 O.2   402  ASP402     -0.2867
    125  CB        25.4650   12.6860   61.9650 C.3   402  ASP402      0.1410
    126  CG        24.9190   11.5270   61.1450 C.2   402  ASP402      0.3668
    127  OD1       23.8600   10.9540   61.4970 O.co2 402  ASP402     -0.2456
    128  OD2       25.5780   11.1730   60.1490 O.co2 402  ASP402     -0.2456
@<TRIPOS>BOND
     1     6     5    1
     2     5     2    1
     3     1     2    1
     4    93    92    1
     5    94    92    1
     6     2     3    1
     7    73    71    1
     8    92    89    1
     9   105   104    2
    10     3     4    2
    11    98    97    2
    12    67    68    1
    13    68    71    1
    14    68    69    1
    15    71    72    1
    16   104   103    1
    17    89    90    1
    18    89    88    1
    19   103   102    1
    20   103   106    1
    21    70    69    2
    22    97   102   am
    23    97    96    1
    24    90    95   am
    25    90    91    2
    26    69    74   am
    27   101    95    1
    28   101   100    1
    29    95    96    1
    30   102   108    1
    31    96    99    1
    32   106   107    1
    33   100    99    1
    34    74    75    1
    35     7     8    1
    36   108   107    1
    37    49    47   ar
    38    75    76    1
    39    75    78    1
    40    76    77    2
    41    43    44    1
    42    43    42    1
    43    43    46    1
    44    44    45    2
    45    80    82   ar
    46    80    79   ar
    47     8    11    1
    48     8     9    1
    49    47    46    1
    50    47    48   ar
    51    50    51    1
    52    14    13    1
    53    82    83   ar
    54    11    12    1
    55    78    79    1
    56    79    81   ar
    57     9    10    2
    58    54    51    1
    59    54    55    1
    60    51    52    1
    61    12    13    1
    62    83    81   ar
    63    83    85   ar
    64    31    32    1
    65    81    84   ar
    66    32    35    1
    67    32    33    1
    68    34    33    2
    69    85    87   ar
    70    52    56   am
    71    52    53    2
    72    56    57    1
    73    35    36    1
    74    84    86   ar
    75    36    37    1
    76    59    58    2
    77    87    86   ar
    78    61    60    1
    79    61    62    1
    80    57    60    1
    81    57    58    1
    82    37    38    1
    83    62    63    1
    84    38    39    2
    85    40    39    1
    86    65    64    1
    87    39    41    1
    88    63    64    2
    89    64    66    1
    90    26    27    1
    91   118   116   ar
    92   118   119   ar
    93   116   114   ar
    94    27    30    1
    95    27    28    1
    96   120   119    1
    97   119   117   ar
    98   114   113    1
    99   114   115   ar
   100   113   110    1
   101   117   115   ar
   102    25    23    1
   103    28    29    2
   104   109   110    1
   105   110   111    1
   106   112   111    2
   107    23    24    1
   108    23    22    2
   109   128   126   ar
   110    22    21    1
   111   126   127   ar
   112   126   125    1
   113   121   122    1
   114    21    20    1
   115   125   122    1
   116    20    19    1
   117   122   123    1
   118   124   123    2
   119    19    16    1
   120    16    17    1
   121    16    15    1
   122    17    18    2
