@<TRIPOS>MOLECULE
tmp/3n5yA02.pdb
 159 157 0 0 0
SMALL
GASTEIGER

@<TRIPOS>ATOM
      1  N          2.8720    8.8640   34.5440 N.3    38  MET38      -0.1230
      2  CA         3.3090    8.4410   33.2120 C.3    38  MET38       0.1702
      3  C          3.2390    9.5410   32.1510 C.2    38  MET38       0.2592
      4  O          4.1700    9.6620   31.3590 O.2    38  MET38      -0.2718
      5  CB         2.5420    7.2050   32.7390 C.3    38  MET38       0.0401
      6  CG         3.1530    5.8880   33.2260 C.3    38  MET38       0.0596
      7  SD         2.8490    4.4790   32.1290 S.3    38  MET38      -0.1393
      8  CE         4.3440    4.4690   31.1630 C.3    38  MET38       0.0692
      9  N          2.1650   10.3480   32.1650 N.am   39  LEU39      -0.1980
     10  CA         1.9020   11.3570   31.1230 C.3    39  LEU39       0.1596
     11  C          1.3750   12.6860   31.6740 C.2    39  LEU39       0.2287
     12  O          0.2080   12.9940   31.4690 O.2    39  LEU39      -0.2864
     13  CB         0.8500   10.8300   30.1320 C.3    39  LEU39       0.0297
     14  CG         0.9490    9.4770   29.4120 C.3    39  LEU39       0.0022
     15  CD1       -0.2290    9.3040   28.4390 C.3    39  LEU39       0.0001
     16  CD2        2.2690    9.3000   28.6630 C.3    39  LEU39       0.0001
     17  N          1.7870    1.8450   17.6190 N.3   168  SER168     -0.1202
     18  CA         2.6300    2.3890   18.6830 C.3   168  SER168      0.2020
     19  C          4.1010    1.9670   18.5030 C.2   168  SER168      0.2618
     20  O          5.0100    2.7140   18.8470 O.2   168  SER168     -0.2717
     21  CB         2.0920    1.9910   20.0590 C.3   168  SER168      0.2103
     22  OG         2.1070    0.5830   20.1860 O.3   168  SER168     -0.2182
     23  N          4.3220    0.7650   17.9750 N.am  169  GLN169     -0.1979
     24  CA         5.6380    0.3380   17.5050 C.3   169  GLN169      0.1601
     25  C          5.4390   -0.2070   16.0890 C.2   169  GLN169      0.2287
     26  O          4.3400   -0.6580   15.7450 O.2   169  GLN169     -0.2864
     27  CB         6.2630   -0.7410   18.3910 C.3   169  GLN169      0.0394
     28  CG         6.6990   -0.2890   19.8020 C.3   169  GLN169      0.0908
     29  CD         7.2690   -1.4450   20.6230 C.2   169  GLN169      0.2608
     30  OE1        7.8850   -2.3690   20.0820 O.2   169  GLN169     -0.2717
     31  NE2        7.0420   -1.4070   21.9270 N.am  169  GLN169     -0.0878
     32  N         13.0350   -3.1920   18.4700 N.3   256  PRO256     -0.2116
     33  CA        12.1200   -2.2630   19.1120 C.3   256  PRO256      0.1372
     34  C         12.1040   -0.9300   18.3820 C.2   256  PRO256      0.2244
     35  O         13.1310   -0.2820   18.2500 O.2   256  PRO256     -0.2868
     36  CB        12.7040   -2.1090   20.5290 C.3   256  PRO256      0.0268
     37  CG        14.1750   -2.3090   20.3540 C.3   256  PRO256      0.0207
     38  CD        14.3020   -3.3430   19.2250 C.3   256  PRO256      0.0892
     39  N          9.7450    2.5100   18.2010 N.3   258  VAL258     -0.1245
     40  CA         8.6160    3.3000   18.6640 C.3   258  VAL258      0.1561
     41  C          8.1560    4.1990   17.5520 C.2   258  VAL258      0.2260
     42  O          8.9760    4.8930   16.9500 O.2   258  VAL258     -0.2867
     43  CB         9.0220    4.1210   19.8930 C.3   258  VAL258      0.0252
     44  CG1        8.0020    5.2600   20.1980 C.3   258  VAL258      0.0019
     45  CG2        9.2290    3.1660   21.0990 C.3   258  VAL258      0.0019
     46  N          4.9180    6.1470   17.5660 N.3   260  ASN260     -0.1225
     47  CA         3.7890    7.0320   17.8370 C.3   260  ASN260      0.1785
     48  C          4.1430    8.3600   18.5180 C.2   260  ASN260      0.2597
     49  O          3.2530    9.1040   18.9370 O.2   260  ASN260     -0.2718
     50  CB         2.6710    6.2910   18.5960 C.3   260  ASN260      0.1169
     51  CG         3.0900    5.8120   19.9850 C.2   260  ASN260      0.2627
     52  OD1        2.2660    5.2830   20.7110 O.2   260  ASN260     -0.2716
     53  ND2        4.3570    5.9870   20.3570 N.am  260  ASN260     -0.0877
     54  N          5.4300    8.6630   18.6210 N.am  261  MET261     -0.1979
     55  CA         5.8520    9.8710   19.3260 C.3   261  MET261      0.1605
     56  C          6.0370   11.0350   18.3710 C.2   261  MET261      0.2287
     57  O          5.9780   10.8620   17.1490 O.2   261  MET261     -0.2864
     58  CB         7.1160    9.5880   20.1360 C.3   261  MET261      0.0413
     59  CG         6.8260    8.6340   21.3020 C.3   261  MET261      0.0598
     60  SD         8.2060    8.5370   22.4600 S.3   261  MET261     -0.1393
     61  CE         7.8730    9.9630   23.5050 C.3   261  MET261      0.0692
     62  N         11.4270    5.4750   15.3480 N.3   275  PHE275     -0.1227
     63  CA        12.8340    5.2750   15.7090 C.3   275  PHE275      0.1736
     64  C         13.0790    3.9220   16.3720 C.2   275  PHE275      0.2596
     65  O         12.2120    3.3740   17.0190 O.2   275  PHE275     -0.2718
     66  CB        13.3440    6.4090   16.5880 C.3   275  PHE275      0.0547
     67  CG        12.5620    6.6250   17.8500 C.ar  275  PHE275     -0.0202
     68  CD1       12.8680    5.9210   19.0010 C.ar  275  PHE275     -0.0042
     69  CD2       11.5600    7.5890   17.9060 C.ar  275  PHE275     -0.0042
     70  CE1       12.1780    6.1680   20.1920 C.ar  275  PHE275     -0.0003
     71  CE2       10.8630    7.8400   19.0950 C.ar  275  PHE275     -0.0003
     72  CZ        11.1750    7.1320   20.2270 C.ar  275  PHE275     -0.0000
     73  N         14.2620    3.3660   16.1990 N.am  276  SER276     -0.1938
     74  CA        14.4980    2.0360   16.7000 C.3   276  SER276      0.2055
     75  C         15.9010    1.9120   17.2720 C.2   276  SER276      0.2644
     76  O         16.8350    2.6400   16.8630 O.2   276  SER276     -0.2714
     77  CB        14.2740    1.0020   15.5820 C.3   276  SER276      0.2130
     78  OG        15.1970    1.2200   14.5000 O.3   276  SER276     -0.2179
     79  N         16.0550    0.9940   18.2320 N.am  277  GLY277     -0.1939
     80  CA        17.3990    0.6420   18.6880 C.3   277  GLY277      0.2014
     81  C         17.5120   -0.8590   18.8090 C.2   277  GLY277      0.2639
     82  O         17.3100   -1.5930   17.8400 O.2   277  GLY277     -0.2714
     83  N         17.8600   -1.3080   20.0070 N.am  278  TRP278     -0.1959
     84  CA        17.8460   -2.7190   20.3560 C.3   278  TRP278      0.1771
     85  C         17.3850   -2.8530   21.8040 C.2   278  TRP278      0.2620
     86  O         17.5070   -1.9260   22.5980 O.2   278  TRP278     -0.2715
     87  CB        19.2170   -3.3550   20.1800 C.3   278  TRP278      0.0590
     88  CG        20.3420   -2.6870   20.9430 C.ar  278  TRP278      0.0006
     89  CD1       20.6420   -2.8180   22.2960 C.ar  278  TRP278      0.0946
     90  CD2       21.3300   -1.8100   20.4010 C.ar  278  TRP278      0.0152
     91  NE1       21.7500   -2.0670   22.6080 N.ar  278  TRP278     -0.2442
     92  CE2       22.1960   -1.4380   21.4680 C.ar  278  TRP278      0.0810
     93  CE3       21.5700   -1.2920   19.1160 C.ar  278  TRP278      0.0012
     94  CZ2       23.2980   -0.5780   21.2800 C.ar  278  TRP278      0.0191
     95  CZ3       22.6730   -0.4360   18.9300 C.ar  278  TRP278      0.0001
     96  CH2       23.5180   -0.0950   20.0040 C.ar  278  TRP278      0.0015
     97  N         16.8650   -4.0240   22.1300 N.am  279  TYR279     -0.1960
     98  CA        16.2200   -4.2230   23.4040 C.3   279  TYR279      0.1771
     99  C         17.1750   -4.3210   24.5620 C.2   279  TYR279      0.2619
    100  O         18.2950   -4.8000   24.4360 O.2   279  TYR279     -0.2715
    101  CB        15.4450   -5.5130   23.3530 C.3   279  TYR279      0.0574
    102  CG        14.0090   -5.3510   22.9480 C.ar  279  TYR279     -0.0198
    103  CD1       13.5170   -5.9850   21.8120 C.ar  279  TYR279     -0.0009
    104  CD2       13.1180   -4.6130   23.7420 C.ar  279  TYR279     -0.0009
    105  CE1       12.1760   -5.8730   21.4620 C.ar  279  TYR279      0.0417
    106  CE2       11.7850   -4.5000   23.4070 C.ar  279  TYR279      0.0417
    107  CZ        11.3210   -5.1240   22.2580 C.ar  279  TYR279      0.1957
    108  OH         9.9950   -5.0080   21.9190 O.3   279  TYR279     -0.2866
    109  N         16.7030   -3.8690   25.7080 N.am  280  MET280     -0.1977
    110  CA        17.2750   -4.2940   26.9620 C.3   280  MET280      0.1605
    111  C         16.4110   -5.4800   27.3510 C.2   280  MET280      0.2287
    112  O         15.1880   -5.4020   27.2440 O.2   280  MET280     -0.2864
    113  CB        17.2070   -3.1590   27.9980 C.3   280  MET280      0.0413
    114  CG        17.8380   -3.5490   29.3810 C.3   280  MET280      0.0598
    115  SD        18.1440   -2.1270   30.4410 S.3   280  MET280     -0.1393
    116  CE        16.4740   -1.7380   30.9690 C.3   280  MET280      0.0692
    117  N         12.7990   -5.4790   29.1680 N.3   283  GLU283     -0.1245
    118  CA        11.6400   -4.9670   28.4380 C.3   283  GLU283      0.1567
    119  C         10.7250   -6.1170   27.9820 C.2   283  GLU283      0.2260
    120  O          9.5170   -6.0600   28.1440 O.2   283  GLU283     -0.2867
    121  CB        12.0810   -4.1300   27.2370 C.3   283  GLU283      0.0388
    122  CG        12.9050   -2.9060   27.5970 C.3   283  GLU283      0.1160
    123  CD        13.3240   -2.1140   26.3250 C.2   283  GLU283      0.3649
    124  OE1       12.4730   -1.3490   25.8350 O.co2 283  GLU283     -0.2457
    125  OE2       14.4710   -2.2560   25.8180 O.co2 283  GLU283     -0.2457
    126  N         12.0160    5.6880   35.4080 N.3   369  TRP369     -0.1241
    127  CA        12.1200    4.9490   34.1670 C.3   369  TRP369      0.1605
    128  C         13.4960    4.3390   33.9200 C.2   369  TRP369      0.2264
    129  O         13.6100    3.3050   33.2600 O.2   369  TRP369     -0.2867
    130  CB        11.7810    5.8690   32.9920 C.3   369  TRP369      0.0550
    131  CG        10.3270    5.9650   32.7620 C.ar  369  TRP369      0.0003
    132  CD1        9.3720    6.4640   33.6190 C.ar  369  TRP369      0.0946
    133  CD2        9.6310    5.5150   31.5930 C.ar  369  TRP369      0.0152
    134  NE1        8.1290    6.3540   33.0380 N.ar  369  TRP369     -0.2442
    135  CE2        8.2590    5.7880   31.7940 C.ar  369  TRP369      0.0810
    136  CE3       10.0420    4.9410   30.3870 C.ar  369  TRP369      0.0012
    137  CZ2        7.2850    5.4950   30.8260 C.ar  369  TRP369      0.0191
    138  CZ3        9.0690    4.6500   29.4050 C.ar  369  TRP369      0.0001
    139  CH2        7.7070    4.9290   29.6410 C.ar  369  TRP369      0.0015
    140  N          5.0620   12.6980   23.7450 N.3   397  TYR397     -0.1241
    141  CA         3.8390   11.9480   23.5000 C.3   397  TYR397      0.1605
    142  C          2.8230   12.7760   22.7060 C.2   397  TYR397      0.2264
    143  O          2.9550   13.9950   22.5880 O.2   397  TYR397     -0.2867
    144  CB         3.2810   11.4310   24.8350 C.3   397  TYR397      0.0534
    145  CG         4.1080   10.2640   25.3060 C.ar  397  TYR397     -0.0201
    146  CD1        4.9440   10.3660   26.4240 C.ar  397  TYR397     -0.0009
    147  CD2        4.1100    9.0690   24.5830 C.ar  397  TYR397     -0.0009
    148  CE1        5.7300    9.2750   26.8420 C.ar  397  TYR397      0.0417
    149  CE2        4.8920    7.9880   24.9750 C.ar  397  TYR397      0.0417
    150  CZ         5.6980    8.0960   26.1030 C.ar  397  TYR397      0.1957
    151  OH         6.4600    6.9980   26.4630 O.3   397  TYR397     -0.2866
    152  N         -3.4160    9.4450   20.6620 N.3   400  ASP400     -0.1239
    153  CA        -3.6660    8.4050   19.6710 C.3   400  ASP400      0.1674
    154  C         -4.5190    8.9790   18.5360 C.2   400  ASP400      0.2266
    155  O         -5.5040    9.6980   18.7920 O.2   400  ASP400     -0.2867
    156  CB        -4.3560    7.1910   20.3020 C.3   400  ASP400      0.1410
    157  CG        -3.3870    6.2710   21.0410 C.2   400  ASP400      0.3668
    158  OD1       -2.2050    6.1400   20.6240 O.co2 400  ASP400     -0.2456
    159  OD2       -3.8200    5.6580   22.0390 O.co2 400  ASP400     -0.2456
@<TRIPOS>BOND
     1    78    77    1
     2    62    63    1
     3    77    74    1
     4    63    64    1
     5    63    66    1
     6    26    25    2
     7    25    24    1
     8    73    64   am
     9    73    74    1
    10    64    65    2
    11    66    67    1
    12    74    75    1
    13    76    75    2
    14    42    41    2
    15    57    56    2
    16    75    79   am
    17    24    23    1
    18    24    27    1
    19    41    40    1
    20    46    47    1
    21    17    18    1
    22    47    48    1
    23    47    50    1
    24    82    81    2
    25    67    69   ar
    26    67    68   ar
    27    69    71   ar
    28    23    19   am
    29    39    40    1
    30    79    80    1
    31    35    34    2
    32    56    55    1
    33    34    33    1
    34    27    28    1
    35    32    33    1
    36    32    38    1
    37    19    18    1
    38    19    20    2
    39    48    54   am
    40    48    49    2
    41   154   155    2
    42   154   153    1
    43    50    51    1
    44    54    55    1
    45    40    43    1
    46    18    21    1
    47    80    81    1
    48    81    83   am
    49    95    93   ar
    50    95    96   ar
    51    68    70   ar
    52    71    72   ar
    53    33    36    1
    54    93    90   ar
    55    38    37    1
    56    55    58    1
    57   153   156    1
    58   153   152    1
    59    28    29    1
    60    43    44    1
    61    43    45    1
    62    51    53   am
    63    51    52    2
    64    96    94   ar
    65    83    84    1
    66    21    22    1
    67    30    29    2
    68    58    59    1
    69    87    84    1
    70    87    88    1
    71    70    72   ar
    72   156   157    1
    73    37    36    1
    74    84    85    1
    75    90    88   ar
    76    90    92   ar
    77    29    31   am
    78   158   157   ar
    79    88    89   ar
    80   157   159   ar
    81    94    92   ar
    82    59    60    1
    83   105   103   ar
    84   105   107   ar
    85    92    91   ar
    86    85    97   am
    87    85    86    2
    88   103   102   ar
    89   108   107    1
    90    97    98    1
    91   107   106   ar
    92    89    91   ar
    93    60    61    1
    94   143   142    2
    95   142   141    1
    96   102   101    1
    97   102   104   ar
    98   101    98    1
    99    98    99    1
   100   106   104   ar
   101   141   140    1
   102   141   144    1
   103   100    99    2
   104    99   109   am
   105   147   149   ar
   106   147   145   ar
   107   144   145    1
   108   149   150   ar
   109   145   146   ar
   110   109   110    1
   111   125   123   ar
   112   124   123   ar
   113   150   151    1
   114   150   148   ar
   115   123   122    1
   116   146   148   ar
   117   110   111    1
   118   110   113    1
   119   121   122    1
   120   121   118    1
   121   112   111    2
   122   119   120    2
   123   119   118    1
   124   113   114    1
   125   118   117    1
   126    15    14    1
   127    16    14    1
   128   114   115    1
   129   138   139   ar
   130   138   136   ar
   131    14    13    1
   132   139   137   ar
   133    13    10    1
   134   136   133   ar
   135   115   116    1
   136   137   135   ar
   137    10    11    1
   138    10     9    1
   139     8     7    1
   140     4     3    2
   141    12    11    2
   142   133   135   ar
   143   133   131   ar
   144   135   134   ar
   145     7     6    1
   146     3     9   am
   147     3     2    1
   148     5     2    1
   149     5     6    1
   150   131   130    1
   151   131   132   ar
   152   130   127    1
   153   134   132   ar
   154     2     1    1
   155   129   128    2
   156   128   127    1
   157   127   126    1
