@<TRIPOS>MOLECULE
tmp/3n5zB03.pdb
 156 154 0 0 0
SMALL
GASTEIGER

@<TRIPOS>ATOM
      1  N         18.0500   12.2040   47.5890 N.3    38  MET38      -0.1230
      2  CA        17.9360   11.5100   48.8870 C.3    38  MET38       0.1702
      3  C         17.5420   12.4660   50.0340 C.2    38  MET38       0.2592
      4  O         16.5670   12.2070   50.7400 O.2    38  MET38      -0.2718
      5  CB        19.2430   10.7620   49.1920 C.3    38  MET38       0.0401
      6  CG        19.2800    9.8810   50.4500 C.3    38  MET38       0.0596
      7  SD        19.1650    8.0860   50.1380 S.3    38  MET38      -0.1393
      8  CE        20.6200    7.7420   49.1880 C.3    38  MET38       0.0692
      9  N         18.2820   13.5740   50.1780 N.am   39  LEU39      -0.1980
     10  CA        18.0500   14.5840   51.2280 C.3    39  LEU39       0.1596
     11  C         17.7250   15.9630   50.6590 C.2    39  LEU39       0.2287
     12  O         18.5940   16.8430   50.6370 O.2    39  LEU39      -0.2864
     13  CB        19.2760   14.7090   52.1470 C.3    39  LEU39       0.0297
     14  CG        19.5880   13.5080   53.0350 C.3    39  LEU39       0.0022
     15  CD1       21.0240   13.5500   53.5780 C.3    39  LEU39       0.0001
     16  CD2       18.5730   13.4500   54.1750 C.3    39  LEU39       0.0001
     17  N         20.3560    3.7740   64.3180 N.3   171  GLN171     -0.1245
     18  CA        19.2940    2.8640   64.7450 C.3   171  GLN171      0.1566
     19  C         19.6900    2.3870   66.1550 C.2   171  GLN171      0.2260
     20  O         20.8920    2.4070   66.4860 O.2   171  GLN171     -0.2867
     21  CB        19.1430    1.6490   63.7990 C.3   171  GLN171      0.0367
     22  CG        18.6840    1.9420   62.3100 C.3   171  GLN171      0.0905
     23  CD        18.5260    0.6510   61.4490 C.2   171  GLN171      0.2608
     24  OE1       18.3700   -0.4500   61.9750 O.2   171  GLN171     -0.2717
     25  NE2       18.5680    0.8010   60.1320 N.am  171  GLN171     -0.0878
     26  N         22.3560   -1.8510   65.7450 N.3   174  ARG174     -0.1245
     27  CA        23.0940   -1.8440   64.5080 C.3   174  ARG174      0.1563
     28  C         24.4770   -2.4100   64.7660 C.2   174  ARG174      0.2260
     29  O         24.9680   -2.3200   65.8750 O.2   174  ARG174     -0.2867
     30  CB        23.2310   -0.4050   64.0300 C.3   174  ARG174      0.0307
     31  CG        22.3340   -0.0580   62.8800 C.3   174  ARG174      0.0489
     32  CD        23.0090    0.9160   61.9530 C.3   174  ARG174      0.2205
     33  NE        22.5190    0.8010   60.5760 N.pl3 174  ARG174     -0.0865
     34  CZ        22.6900    1.7380   59.6420 C.cat 174  ARG174      0.5346
     35  NH1       23.2950    2.8910   59.9270 N.pl3 174  ARG174      0.1354
     36  NH2       22.2250    1.5370   58.4180 N.pl3 174  ARG174      0.1354
     37  N         14.0000   -3.3390   63.8170 N.3   258  PRO258     -0.2116
     38  CA        14.4030   -2.1230   63.1310 C.3   258  PRO258      0.1372
     39  C         13.8760   -0.9080   63.9000 C.2   258  PRO258      0.2244
     40  O         12.6580   -0.7370   64.0320 O.2   258  PRO258     -0.2868
     41  CB        13.7120   -2.2480   61.7640 C.3   258  PRO258      0.0268
     42  CG        12.4580   -2.9790   62.0750 C.3   258  PRO258      0.0207
     43  CD        12.9130   -4.0220   63.1090 C.3   258  PRO258      0.0892
     44  N         14.5830    3.2470   64.1560 N.3   260  VAL260     -0.1245
     45  CA        15.3080    4.4710   63.7070 C.3   260  VAL260      0.1561
     46  C         15.3690    5.4770   64.8460 C.2   260  VAL260      0.2260
     47  O         14.3410    5.8330   65.4280 O.2   260  VAL260     -0.2867
     48  CB        14.6590    5.0730   62.4280 C.3   260  VAL260      0.0252
     49  CG1       15.1420    6.5280   62.1420 C.3   260  VAL260      0.0019
     50  CG2       14.9250    4.1290   61.1980 C.3   260  VAL260      0.0019
     51  N         17.4300    8.5940   64.7160 N.3   262  ASN262     -0.1225
     52  CA        18.0990    9.8480   64.3320 C.3   262  ASN262      0.1785
     53  C         17.2350   10.9080   63.6370 C.2   262  ASN262      0.2597
     54  O         17.7570   11.9120   63.1370 O.2   262  ASN262     -0.2718
     55  CB        19.3880    9.5920   63.5370 C.3   262  ASN262      0.1169
     56  CG        19.1630    8.9330   62.1810 C.2   262  ASN262      0.2627
     57  OD1       18.0610    8.4850   61.8170 O.2   262  ASN262     -0.2716
     58  ND2       20.2440    8.8470   61.4190 N.am  262  ASN262     -0.0877
     59  N         15.9280   10.6810   63.6120 N.am  263  MET263     -0.1979
     60  CA        15.0170   11.5720   62.9380 C.3   263  MET263      0.1605
     61  C         14.3570   12.4990   63.9430 C.2   263  MET263      0.2287
     62  O         14.4340   12.2640   65.1420 O.2   263  MET263     -0.2864
     63  CB        13.9680   10.7810   62.1100 C.3   263  MET263      0.0413
     64  CG        14.5900    9.9680   60.9330 C.3   263  MET263      0.0598
     65  SD        13.3320    9.3640   59.7960 S.3   263  MET263     -0.1393
     66  CE        12.9960   10.8710   58.8460 C.3   263  MET263      0.0692
     67  N         11.7680    5.2170   66.9370 N.3   277  PHE277     -0.1227
     68  CA        10.5770    4.4270   66.6490 C.3   277  PHE277      0.1736
     69  C         11.0070    3.1200   65.9940 C.2   277  PHE277      0.2596
     70  O         12.0850    3.0300   65.3910 O.2   277  PHE277     -0.2718
     71  CB         9.6060    5.2170   65.7490 C.3   277  PHE277      0.0547
     72  CG        10.2440    5.7480   64.4730 C.ar  277  PHE277     -0.0202
     73  CD1       10.3500    4.9520   63.3460 C.ar  277  PHE277     -0.0042
     74  CD2       10.7320    7.0570   64.4120 C.ar  277  PHE277     -0.0042
     75  CE1       10.9160    5.4390   62.1840 C.ar  277  PHE277     -0.0003
     76  CE2       11.3130    7.5420   63.2490 C.ar  277  PHE277     -0.0003
     77  CZ        11.4000    6.7290   62.1350 C.ar  277  PHE277     -0.0000
     78  N         10.1460    2.1240   66.0710 N.am  278  SER278     -0.1938
     79  CA        10.4690    0.8110   65.5820 C.3   278  SER278      0.2055
     80  C          9.2040    0.1310   65.1030 C.2   278  SER278      0.2644
     81  O          8.1010    0.4580   65.5560 O.2   278  SER278     -0.2714
     82  CB        11.1660   -0.0280   66.6810 C.3   278  SER278      0.2130
     83  OG        10.3080   -0.1920   67.8140 O.3   278  SER278     -0.2179
     84  N          9.3600   -0.7650   64.1250 N.am  279  GLY279     -0.1939
     85  CA         8.2630   -1.6040   63.6390 C.3   279  GLY279      0.2014
     86  C          8.7840   -3.0150   63.4660 C.2   279  GLY279      0.2639
     87  O          9.3620   -3.5860   64.3920 O.2   279  GLY279     -0.2714
     88  N          8.5900   -3.5820   62.2810 N.am  280  TRP280     -0.1959
     89  CA         9.2670   -4.8100   61.9140 C.3   280  TRP280      0.1771
     90  C          9.7520   -4.7400   60.4360 C.2   280  TRP280      0.2620
     91  O          9.3010   -3.9030   59.6430 O.2   280  TRP280     -0.2715
     92  CB         8.3490   -5.9940   62.1220 C.3   280  TRP280      0.0590
     93  CG         7.0250   -5.8760   61.4560 C.ar  280  TRP280      0.0006
     94  CD1        6.7260   -6.1870   60.1520 C.ar  280  TRP280      0.0946
     95  CD2        5.7960   -5.4440   62.0530 C.ar  280  TRP280      0.0152
     96  NE1        5.3910   -5.9750   59.9050 N.ar  280  TRP280     -0.2442
     97  CE2        4.7940   -5.5180   61.0530 C.ar  280  TRP280      0.0810
     98  CE3        5.4370   -5.0110   63.3410 C.ar  280  TRP280      0.0012
     99  CZ2        3.4510   -5.1750   61.3000 C.ar  280  TRP280      0.0191
    100  CZ3        4.0980   -4.6770   63.5920 C.ar  280  TRP280      0.0001
    101  CH2        3.1190   -4.7810   62.5740 C.ar  280  TRP280      0.0015
    102  N         10.6360   -5.6500   60.0710 N.am  281  TYR281     -0.1960
    103  CA        11.3470   -5.5280   58.8180 C.3   281  TYR281      0.1771
    104  C         10.5190   -6.0520   57.6780 C.2   281  TYR281      0.2619
    105  O          9.7290   -6.9910   57.8500 O.2   281  TYR281     -0.2715
    106  CB        12.6050   -6.3600   58.8930 C.3   281  TYR281      0.0574
    107  CG        13.8540   -5.6340   59.3150 C.ar  281  TYR281     -0.0198
    108  CD1       14.5860   -6.0600   60.4270 C.ar  281  TYR281     -0.0009
    109  CD2       14.3700   -4.5980   58.5530 C.ar  281  TYR281     -0.0009
    110  CE1       15.7650   -5.4310   60.8070 C.ar  281  TYR281      0.0417
    111  CE2       15.5990   -3.9610   58.9180 C.ar  281  TYR281      0.0417
    112  CZ        16.2610   -4.3920   60.0400 C.ar  281  TYR281      0.1957
    113  OH        17.4310   -3.7870   60.3610 O.3   281  TYR281     -0.2866
    114  N         10.7080   -5.4400   56.5160 N.am  282  MET282     -0.1977
    115  CA        10.3920   -6.0710   55.2290 C.3   282  MET282      0.1605
    116  C         11.6680   -6.7900   54.7970 C.2   282  MET282      0.2287
    117  O         12.7990   -6.2670   54.9470 O.2   282  MET282     -0.2864
    118  CB         9.9780   -5.0130   54.1960 C.3   282  MET282      0.0413
    119  CG         9.6640   -5.5440   52.7600 C.3   282  MET282      0.0598
    120  SD         8.7110   -4.3700   51.7410 S.3   282  MET282     -0.1393
    121  CE        10.0660   -3.2520   51.2640 C.3   282  MET282      0.0692
    122  N         14.8670   -5.2910   53.0750 N.3   285  GLU285     -0.1245
    123  CA        15.7580   -4.3450   53.7620 C.3   285  GLU285      0.1567
    124  C         17.0630   -5.0200   54.1780 C.2   285  GLU285      0.2260
    125  O         18.1260   -4.4200   54.0260 O.2   285  GLU285     -0.2867
    126  CB        15.0990   -3.6780   54.9660 C.3   285  GLU285      0.0388
    127  CG        13.8190   -2.8920   54.6280 C.3   285  GLU285      0.1160
    128  CD        13.1470   -2.3580   55.8800 C.2   285  GLU285      0.3649
    129  OE1       13.7290   -1.4070   56.4340 O.co2 285  GLU285     -0.2457
    130  OE2       12.0550   -2.8640   56.3010 O.co2 285  GLU285     -0.2457
    131  N         10.8700    5.4950   46.8120 N.3   371  TRP371     -0.1241
    132  CA        11.1290    4.7700   48.0420 C.3   371  TRP371      0.1605
    133  C         10.1770    3.6140   48.3160 C.2   371  TRP371      0.2264
    134  O         10.5710    2.6420   48.9580 O.2   371  TRP371     -0.2867
    135  CB        11.1430    5.7340   49.2480 C.3   371  TRP371      0.0550
    136  CG        12.4650    6.4610   49.4290 C.ar  371  TRP371      0.0003
    137  CD1       13.0450    7.3410   48.5570 C.ar  371  TRP371      0.0946
    138  CD2       13.3390    6.3580   50.5440 C.ar  371  TRP371      0.0152
    139  NE1       14.2360    7.7880   49.0630 N.ar  371  TRP371     -0.2442
    140  CE2       14.4380    7.2060   50.2910 C.ar  371  TRP371      0.0810
    141  CE3       13.2970    5.6380   51.7580 C.ar  371  TRP371      0.0012
    142  CZ2       15.5040    7.3460   51.1970 C.ar  371  TRP371      0.0191
    143  CZ3       14.3490    5.7920   52.6780 C.ar  371  TRP371      0.0001
    144  CH2       15.4440    6.6360   52.3790 C.ar  371  TRP371      0.0015
    145  N         14.6810   14.6910   58.6930 N.3   399  TYR399     -0.1241
    146  CA        16.0800   14.4770   59.0020 C.3   399  TYR399      0.1605
    147  C         16.6660   15.6480   59.7480 C.2   399  TYR399      0.2264
    148  O         16.0890   16.7420   59.7890 O.2   399  TYR399     -0.2867
    149  CB        16.8760   14.2210   57.7360 C.3   399  TYR399      0.0534
    150  CG        16.3530   13.0370   57.0100 C.ar  399  TYR399     -0.0201
    151  CD1       15.4350   13.2100   55.9810 C.ar  399  TYR399     -0.0009
    152  CD2       16.7020   11.7340   57.3980 C.ar  399  TYR399     -0.0009
    153  CE1       14.9300   12.1580   55.3310 C.ar  399  TYR399      0.0417
    154  CE2       16.1930   10.6570   56.7380 C.ar  399  TYR399      0.0417
    155  CZ        15.3090   10.8900   55.6980 C.ar  399  TYR399      0.1957
    156  OH        14.7780    9.8630   54.9770 O.3   399  TYR399     -0.2866
@<TRIPOS>BOND
     1   131   132    1
     2     1     2    1
     3   132   133    1
     4   132   135    1
     5   133   134    2
     6   137   139   ar
     7   137   136   ar
     8     2     5    1
     9     2     3    1
    10   139   140   ar
    11     8     7    1
    12     5     6    1
    13   135   136    1
    14   136   138   ar
    15     3     9   am
    16     3     4    2
    17     7     6    1
    18     9    10    1
    19   140   138   ar
    20   140   142   ar
    21   138   141   ar
    22    12    11    2
    23    11    10    1
    24   142   144   ar
    25    10    13    1
    26   121   120    1
    27   120   119    1
    28   141   143   ar
    29    13    14    1
    30   144   143   ar
    31   119   118    1
    32    14    15    1
    33    14    16    1
    34   122   123    1
    35   123   124    1
    36   123   126    1
    37   125   124    2
    38   118   115    1
    39   127   126    1
    40   127   128    1
    41   116   117    2
    42   116   115    1
    43   156   155    1
    44   115   114    1
    45   153   155   ar
    46   153   151   ar
    47   155   154   ar
    48   128   130   ar
    49   128   129   ar
    50   151   150   ar
    51   114   104   am
    52   154   152   ar
    53   150   152   ar
    54   150   149    1
    55   104   105    2
    56   104   103    1
    57   149   146    1
    58    36    34    1
    59   109   111   ar
    60   109   107   ar
    61   145   146    1
    62   103   106    1
    63   103   102    1
    64    66    65    1
    65   106   107    1
    66   111   112   ar
    67   146   147    1
    68   107   108   ar
    69    34    35    1
    70    34    33    2
    71    91    90    2
    72   147   148    2
    73    65    64    1
    74    96    94   ar
    75    96    97   ar
    76   112   113    1
    77   112   110   ar
    78   102    90   am
    79    25    23   am
    80    94    93   ar
    81   108   110   ar
    82    90    89    1
    83    33    32    1
    84    64    63    1
    85    97    99   ar
    86    97    95   ar
    87    50    48    1
    88    99   101   ar
    89    58    56   am
    90    23    24    2
    91    23    22    1
    92    93    95   ar
    93    93    92    1
    94    41    42    1
    95    41    38    1
    96    57    56    2
    97    89    92    1
    98    89    88    1
    99    32    31    1
   100    95    98   ar
   101    42    43    1
   102    63    60    1
   103    77    75   ar
   104    77    76   ar
   105    49    48    1
   106    56    55    1
   107    75    73   ar
   108    88    86   am
   109    22    21    1
   110    48    45    1
   111   101   100   ar
   112    31    30    1
   113    60    59    1
   114    60    61    1
   115    43    37    1
   116    38    37    1
   117    38    39    1
   118    54    53    2
   119    76    74   ar
   120    98   100   ar
   121    73    72   ar
   122    86    85    1
   123    86    87    2
   124    55    52    1
   125    59    53   am
   126    53    52    1
   127    85    84    1
   128    45    44    1
   129    45    46    1
   130    21    18    1
   131    39    40    2
   132    61    62    2
   133    30    27    1
   134    84    80   am
   135    17    18    1
   136    52    51    1
   137    74    72   ar
   138    72    71    1
   139    27    28    1
   140    27    26    1
   141    18    19    1
   142    28    29    2
   143    46    47    2
   144    80    81    2
   145    80    79    1
   146    70    69    2
   147    79    78    1
   148    79    82    1
   149    71    68    1
   150    69    78   am
   151    69    68    1
   152    19    20    2
   153    68    67    1
   154    82    83    1
