@<TRIPOS>MOLECULE
tmp/3n62B03.pdb
 208 199 0 0 0
SMALL
GASTEIGER

@<TRIPOS>ATOM
      1  N          3.7440    9.1540   61.2030 N.3   102  TRP102     -0.1241
      2  CA         3.8780    7.8700   60.4860 C.3   102  TRP102      0.1605
      3  C          2.9090    7.7950   59.3010 C.2   102  TRP102      0.2264
      4  O          3.2940    7.4690   58.1900 O.2   102  TRP102     -0.2867
      5  CB         3.6510    6.7020   61.4560 C.3   102  TRP102      0.0550
      6  CG         3.9170    5.3210   60.8620 C.ar  102  TRP102      0.0003
      7  CD1        4.5000    5.0310   59.6520 C.ar  102  TRP102      0.0946
      8  CD2        3.6340    4.0630   61.4750 C.ar  102  TRP102      0.0152
      9  NE1        4.5650    3.6770   59.4710 N.ar  102  TRP102     -0.2442
     10  CE2        4.0280    3.0560   60.5690 C.ar  102  TRP102      0.0810
     11  CE3        3.0520    3.6830   62.6950 C.ar  102  TRP102      0.0012
     12  CZ2        3.8990    1.6920   60.8620 C.ar  102  TRP102      0.0191
     13  CZ3        2.8910    2.3200   62.9780 C.ar  102  TRP102      0.0001
     14  CH2        3.3270    1.3440   62.0780 C.ar  102  TRP102      0.0015
     15  N          4.2590    9.6500   56.4480 N.3   105  ALA105     -0.1245
     16  CA         5.6320    9.3930   56.0190 C.3   105  ALA105      0.1562
     17  C          5.6290    8.8320   54.5830 C.2   105  ALA105      0.2260
     18  O          5.3990    7.6500   54.3660 O.2   105  ALA105     -0.2867
     19  CB         6.3370    8.4050   56.9950 C.3   105  ALA105      0.0290
     20  N          7.7090    7.8980   52.3680 N.3   107  ARG107     -0.1231
     21  CA         8.6470    6.8570   51.9630 C.3   107  ARG107      0.1694
     22  C          8.3320    5.4790   52.5770 C.2   107  ARG107      0.2592
     23  O          9.0360    4.4840   52.2850 O.2   107  ARG107     -0.2718
     24  CB        10.0960    7.2780   52.2830 C.3   107  ARG107      0.0321
     25  CG        10.5210    8.4130   51.3720 C.3   107  ARG107      0.0489
     26  CD        11.7490    9.1110   51.8900 C.3   107  ARG107      0.2205
     27  NE        12.3950    9.7890   50.7880 N.pl3 107  ARG107     -0.0865
     28  CZ        13.4230   10.6190   50.9450 C.cat 107  ARG107      0.5346
     29  NH1       13.8720   10.8720   52.1750 N.pl3 107  ARG107      0.1354
     30  NH2       13.9710   11.2130   49.8880 N.pl3 107  ARG107      0.1354
     31  N          7.2970    5.4210   53.4150 N.am  108  CYS108     -0.1956
     32  CA         7.0390    4.2180   54.2390 C.3   108  CYS108      0.1843
     33  C          5.9970    3.3230   53.6230 C.2   108  CYS108      0.2625
     34  O          4.8310    3.6900   53.5050 O.2   108  CYS108     -0.2714
     35  CB         6.6590    4.5640   55.7000 C.3   108  CYS108      0.0997
     36  SG         6.3800    3.0490   56.6730 S.3   108  CYS108     -0.0797
     37  N          6.4140    2.1130   53.2370 N.am  109  VAL109     -0.1963
     38  CA         5.4810    1.1950   52.6100 C.3   109  VAL109      0.1727
     39  C          4.6410    0.4670   53.6720 C.2   109  VAL109      0.2616
     40  O          3.6850   -0.2260   53.3510 O.2   109  VAL109     -0.2715
     41  CB         6.2290    0.1830   51.7000 C.3   109  VAL109      0.0290
     42  CG1        6.9870   -0.8180   52.5580 C.3   109  VAL109      0.0023
     43  CG2        5.2270   -0.5480   50.7330 C.3   109  VAL109      0.0023
     44  N          5.0170    0.6040   54.9370 N.am  110  GLY110     -0.1955
     45  CA         4.3510   -0.1610   56.0030 C.3   110  GLY110      0.1869
     46  C          3.2040    0.5850   56.6690 C.2   110  GLY110      0.2309
     47  O          2.7330    0.1670   57.7180 O.2   110  GLY110     -0.2863
     48  N         -0.2890    0.0440   58.9710 N.3   113  GLN113     -0.1245
     49  CA        -0.1960   -0.2350   60.4030 C.3   113  GLN113      0.1566
     50  C         -0.2170    1.0520   61.2610 C.2   113  GLN113      0.2260
     51  O         -0.0890    0.9720   62.4920 O.2   113  GLN113     -0.2867
     52  CB         1.1640   -0.9420   60.6660 C.3   113  GLN113      0.0367
     53  CG         1.2440   -2.4100   60.2020 C.3   113  GLN113      0.0905
     54  CD         0.3540   -3.3070   61.0230 C.2   113  GLN113      0.2608
     55  OE1        0.1920   -3.0980   62.2330 O.2   113  GLN113     -0.2717
     56  NE2       -0.2230   -4.3230   60.3780 N.am  113  GLN113     -0.0878
     57  N          0.3560    1.9410   66.9180 N.3   117  LEU117     -0.1245
     58  CA         1.6820    2.4090   67.2410 C.3   117  LEU117      0.1561
     59  C          1.5950    2.6000   68.7380 C.2   117  LEU117      0.2260
     60  O          0.7020    3.2830   69.1970 O.2   117  LEU117     -0.2867
     61  CB         1.9520    3.7720   66.6020 C.3   117  LEU117      0.0270
     62  CG         3.3110    4.3980   66.9600 C.3   117  LEU117      0.0019
     63  CD1        4.4840    3.4920   66.5540 C.3   117  LEU117      0.0001
     64  CD2        3.4590    5.8100   66.3280 C.3   117  LEU117      0.0001
     65  N          5.0350   -2.2780   66.8740 N.3   150  SER150     -0.1217
     66  CA         5.5080   -0.9510   66.5370 C.3   150  SER150      0.1889
     67  C          5.4610   -0.0550   67.7380 C.2   150  SER150      0.2288
     68  O          4.4850   -0.0760   68.4880 O.2   150  SER150     -0.2866
     69  CB         4.6020   -0.3180   65.4710 C.3   150  SER150      0.2089
     70  OG         4.6320   -1.1210   64.3180 O.3   150  SER150     -0.2183
     71  N          7.0780    3.9410   69.4810 N.3   152  ILE152     -0.1245
     72  CA         7.9180    5.1210   69.4010 C.3   152  ILE152      0.1561
     73  C          8.1640    5.6160   70.8100 C.2   152  ILE152      0.2260
     74  O          7.2550    5.5770   71.6150 O.2   152  ILE152     -0.2867
     75  CB         7.2950    6.2400   68.5310 C.3   152  ILE152      0.0252
     76  CG1        8.2240    7.4650   68.4980 C.3   152  ILE152      0.0019
     77  CG2        5.8750    6.6470   69.0210 C.3   152  ILE152      0.0019
     78  CD1        7.9730    8.4050   67.2700 C.3   152  ILE152      0.0001
     79  N         14.0390   -3.3030   63.4700 N.3   258  PRO258     -0.2116
     80  CA        14.5290   -2.0880   62.8180 C.3   258  PRO258      0.1372
     81  C         13.9880   -0.8700   63.5910 C.2   258  PRO258      0.2244
     82  O         12.7640   -0.6990   63.6950 O.2   258  PRO258     -0.2868
     83  CB        13.8900   -2.1640   61.4310 C.3   258  PRO258      0.0268
     84  CG        12.5800   -2.8640   61.6610 C.3   258  PRO258      0.0207
     85  CD        12.8430   -3.8520   62.7840 C.3   258  PRO258      0.0892
     86  N         14.5630    3.2210   63.8660 N.3   260  VAL260     -0.1245
     87  CA        15.1940    4.4790   63.4020 C.3   260  VAL260      0.1561
     88  C         15.3090    5.4560   64.5730 C.2   260  VAL260      0.2260
     89  O         14.3140    5.7640   65.2290 O.2   260  VAL260     -0.2867
     90  CB        14.3560    5.0990   62.2510 C.3   260  VAL260      0.0252
     91  CG1       14.8310    6.5250   61.8970 C.3   260  VAL260      0.0019
     92  CG2       14.4770    4.2170   61.0130 C.3   260  VAL260      0.0019
     93  N         17.4740    8.4650   64.4130 N.3   262  ASN262     -0.1225
     94  CA        18.1490    9.6990   64.0300 C.3   262  ASN262      0.1785
     95  C         17.2560   10.7730   63.4060 C.2   262  ASN262      0.2597
     96  O         17.7510   11.7930   62.9040 O.2   262  ASN262     -0.2718
     97  CB        19.3440    9.3940   63.1100 C.3   262  ASN262      0.1169
     98  CG        18.9300    8.7360   61.8050 C.2   262  ASN262      0.2627
     99  OD1       17.7550    8.4340   61.5810 O.2   262  ASN262     -0.2716
    100  ND2       19.9020    8.5160   60.9310 N.am  262  ASN262     -0.0877
    101  N         15.9460   10.5630   63.4330 N.am  263  MET263     -0.1979
    102  CA        15.0440   11.5080   62.7900 C.3   263  MET263      0.1605
    103  C         14.4020   12.4690   63.7750 C.2   263  MET263      0.2287
    104  O         14.4780   12.2570   64.9900 O.2   263  MET263     -0.2864
    105  CB        13.9940   10.7610   61.9430 C.3   263  MET263      0.0413
    106  CG        14.6870   10.0210   60.7610 C.3   263  MET263      0.0598
    107  SD        13.5240    9.3160   59.6220 S.3   263  MET263     -0.1393
    108  CE        13.1230   10.7520   58.5860 C.3   263  MET263      0.0692
    109  N         11.8330    5.2180   66.7630 N.3   277  PHE277     -0.1227
    110  CA        10.6400    4.4630   66.4340 C.3   277  PHE277      0.1736
    111  C         11.0190    3.1600   65.7420 C.2   277  PHE277      0.2596
    112  O         12.0180    3.0860   65.0570 O.2   277  PHE277     -0.2718
    113  CB         9.6870    5.2870   65.5560 C.3   277  PHE277      0.0547
    114  CG        10.3240    5.8750   64.2830 C.ar  277  PHE277     -0.0202
    115  CD1       10.3230    5.1580   63.0770 C.ar  277  PHE277     -0.0042
    116  CD2       10.8340    7.1690   64.2670 C.ar  277  PHE277     -0.0042
    117  CE1       10.8410    5.6940   61.9090 C.ar  277  PHE277     -0.0003
    118  CE2       11.3840    7.7030   63.0820 C.ar  277  PHE277     -0.0003
    119  CZ        11.3610    6.9600   61.8980 C.ar  277  PHE277     -0.0000
    120  N         10.1850    2.1550   65.8800 N.am  278  SER278     -0.1938
    121  CA        10.5310    0.8550   65.3360 C.3   278  SER278      0.2055
    122  C          9.2900    0.1480   64.8110 C.2   278  SER278      0.2644
    123  O          8.1860    0.4100   65.2750 O.2   278  SER278     -0.2714
    124  CB        11.2060   -0.0140   66.4180 C.3   278  SER278      0.2130
    125  OG        10.3080   -0.2490   67.5140 O.3   278  SER278     -0.2179
    126  N          9.4960   -0.7710   63.8600 N.am  279  GLY279     -0.1939
    127  CA         8.4190   -1.5990   63.3560 C.3   279  GLY279      0.2014
    128  C          8.9400   -3.0230   63.2510 C.2   279  GLY279      0.2638
    129  O          9.4660   -3.5590   64.2240 O.2   279  GLY279     -0.2714
    130  N          8.8130   -3.6150   62.0640 N.am  280  TRP280     -0.1973
    131  CA         9.4480   -4.9150   61.7470 C.3   280  TRP280      0.1640
    132  C          9.9110   -4.8480   60.3060 C.2   280  TRP280      0.2290
    133  O          9.4630   -3.9860   59.5590 O.2   280  TRP280     -0.2864
    134  CB         8.4900   -6.0970   61.9070 C.3   280  TRP280      0.0576
    135  CG         7.1750   -5.9390   61.2180 C.ar  280  TRP280      0.0006
    136  CD1        6.9020   -6.1580   59.8810 C.ar  280  TRP280      0.0946
    137  CD2        5.9380   -5.5500   61.8250 C.ar  280  TRP280      0.0152
    138  NE1        5.5580   -5.9210   59.6390 N.ar  280  TRP280     -0.2442
    139  CE2        4.9520   -5.5380   60.8080 C.ar  280  TRP280      0.0810
    140  CE3        5.5750   -5.1690   63.1330 C.ar  280  TRP280      0.0012
    141  CZ2        3.6090   -5.1790   61.0560 C.ar  280  TRP280      0.0191
    142  CZ3        4.2280   -4.8200   63.3900 C.ar  280  TRP280      0.0001
    143  CH2        3.2630   -4.8520   62.3510 C.ar  280  TRP280      0.0015
    144  N         10.7490   -5.5580   56.3150 N.3   282  MET282     -0.1245
    145  CA        10.4200   -6.1710   55.0270 C.3   282  MET282      0.1570
    146  C         11.6830   -6.9140   54.5930 C.2   282  MET282      0.2261
    147  O         12.7910   -6.3770   54.7100 O.2   282  MET282     -0.2867
    148  CB        10.0220   -5.0900   54.0140 C.3   282  MET282      0.0387
    149  CG         9.7050   -5.6450   52.5970 C.3   282  MET282      0.0595
    150  SD         8.7960   -4.4510   51.5980 S.3   282  MET282     -0.1393
    151  CE        10.1270   -3.4090   50.9950 C.3   282  MET282      0.0692
    152  N         14.8610   -5.4820   52.8360 N.3   285  GLU285     -0.1245
    153  CA        15.7620   -4.5360   53.5280 C.3   285  GLU285      0.1567
    154  C         17.0530   -5.2360   53.9690 C.2   285  GLU285      0.2260
    155  O         18.1620   -4.6800   53.8470 O.2   285  GLU285     -0.2867
    156  CB        15.0720   -3.9380   54.7450 C.3   285  GLU285      0.0388
    157  CG        13.8980   -3.0220   54.3720 C.3   285  GLU285      0.1160
    158  CD        13.2630   -2.4110   55.6070 C.2   285  GLU285      0.3649
    159  OE1       13.7430   -1.3390   56.0240 O.co2 285  GLU285     -0.2457
    160  OE2       12.2740   -2.9750   56.1500 O.co2 285  GLU285     -0.2457
    161  N         19.2110   -4.8180   50.4080 N.3   289  ARG289     -0.1245
    162  CA        20.0130   -3.6580   50.7680 C.3   289  ARG289      0.1563
    163  C         21.1950   -4.0200   51.7120 C.2   289  ARG289      0.2260
    164  O         22.3400   -3.8120   51.3640 O.2   289  ARG289     -0.2867
    165  CB        19.1310   -2.5530   51.3640 C.3   289  ARG289      0.0307
    166  CG        19.9120   -1.5290   52.1830 C.3   289  ARG289      0.0489
    167  CD        19.0180   -0.4580   52.8440 C.3   289  ARG289      0.2205
    168  NE        18.3460   -0.8110   54.1040 N.pl3 289  ARG289     -0.0865
    169  CZ        17.0270   -0.7890   54.2690 C.cat 289  ARG289      0.5346
    170  NH1       16.2630   -0.5100   53.2220 N.pl3 289  ARG289      0.1354
    171  NH2       16.4600   -1.0400   55.4550 N.pl3 289  ARG289      0.1354
    172  N          7.8910   -9.3020   56.8610 N.3   342  VAL342     -0.1245
    173  CA         6.9530   -9.2820   55.7520 C.3   342  VAL342      0.1561
    174  C          7.7400   -9.3480   54.4280 C.2   342  VAL342      0.2260
    175  O          8.7900   -8.7050   54.2740 O.2   342  VAL342     -0.2867
    176  CB         5.9490   -8.0400   55.8430 C.3   342  VAL342      0.0252
    177  CG1        6.6660   -6.6840   55.7110 C.3   342  VAL342      0.0019
    178  CG2        4.7850   -8.1480   54.8520 C.3   342  VAL342      0.0019
    179  N          3.8020   -6.9080   51.5050 N.3   347  ALA347     -0.1245
    180  CA         3.9390   -5.5190   51.9550 C.3   347  ALA347      0.1562
    181  C          3.3830   -4.5300   50.9600 C.2   347  ALA347      0.2260
    182  O          2.6860   -3.5730   51.3550 O.2   347  ALA347     -0.2867
    183  CB         5.3990   -5.1630   52.2840 C.3   347  ALA347      0.0290
    184  N         11.1350    5.2850   46.8780 N.3   371  TRP371     -0.1241
    185  CA        11.3680    4.4710   48.0560 C.3   371  TRP371      0.1605
    186  C         10.3380    3.3740   48.2340 C.2   371  TRP371      0.2264
    187  O         10.6490    2.3530   48.8440 O.2   371  TRP371     -0.2867
    188  CB        11.3410    5.3510   49.3350 C.3   371  TRP371      0.0550
    189  CG        12.5740    6.2000   49.5180 C.ar  371  TRP371      0.0003
    190  CD1       13.1340    7.0430   48.6000 C.ar  371  TRP371      0.0946
    191  CD2       13.3870    6.2790   50.6850 C.ar  371  TRP371      0.0152
    192  NE1       14.2450    7.6430   49.1240 N.ar  371  TRP371     -0.2442
    193  CE2       14.4240    7.1980   50.4060 C.ar  371  TRP371      0.0810
    194  CE3       13.3310    5.6740   51.9570 C.ar  371  TRP371      0.0012
    195  CZ2       15.4040    7.5380   51.3530 C.ar  371  TRP371      0.0191
    196  CZ3       14.3160    6.0020   52.9050 C.ar  371  TRP371      0.0001
    197  CH2       15.3320    6.9310   52.5940 C.ar  371  TRP371      0.0015
    198  N          8.0190   13.0970   60.1470 N.3   397  PHE397     -0.1241
    199  CA         9.3980   12.7550   60.4440 C.3   397  PHE397      0.1605
    200  C         10.3240   13.3760   59.4380 C.2   397  PHE397      0.2264
    201  O         10.0740   13.2650   58.2450 O.2   397  PHE397     -0.2867
    202  CB         9.5890   11.2290   60.4340 C.3   397  PHE397      0.0534
    203  CG         8.8900   10.5530   61.5610 C.ar  397  PHE397     -0.0203
    204  CD1        7.8070    9.7080   61.3190 C.ar  397  PHE397     -0.0042
    205  CD2        9.2800   10.8030   62.8790 C.ar  397  PHE397     -0.0042
    206  CE1        7.1380    9.0800   62.3720 C.ar  397  PHE397     -0.0003
    207  CE2        8.6220   10.1600   63.9270 C.ar  397  PHE397     -0.0003
    208  CZ         7.5610    9.3140   63.6730 C.ar  397  PHE397     -0.0000
@<TRIPOS>BOND
     1   184   185    1
     2   185   186    1
     3   185   188    1
     4   186   187    2
     5   190   192   ar
     6   190   189   ar
     7   192   193   ar
     8   188   189    1
     9   189   191   ar
    10    30    28    1
    11   193   191   ar
    12   193   195   ar
    13   161   162    1
    14   191   194   ar
    15    43    41    1
    16   162   165    1
    17   162   163    1
    18    27    28    2
    19    27    26    1
    20    28    29    1
    21   181   182    2
    22   181   180    1
    23   151   150    1
    24   195   197   ar
    25   165   166    1
    26   164   163    2
    27    25    26    1
    28    25    24    1
    29   179   180    1
    30   150   149    1
    31    41    42    1
    32    41    38    1
    33   180   183    1
    34   194   196   ar
    35    21    24    1
    36    21    20    1
    37    21    22    1
    38   166   167    1
    39    23    22    2
    40    22    31   am
    41   197   196   ar
    42   149   148    1
    43    38    37    1
    44    38    39    1
    45   152   153    1
    46   167   168    1
    47   170   169    1
    48    37    33   am
    49    40    39    2
    50    31    32    1
    51    34    33    2
    52   153   154    1
    53   153   156    1
    54    33    32    1
    55    39    44   am
    56   155   154    2
    57   148   145    1
    58   168   169    2
    59    32    35    1
    60   169   171    1
    61   175   174    2
    62    18    17    2
    63   157   156    1
    64   157   158    1
    65   174   173    1
    66    17    16    1
    67   146   147    2
    68   146   145    1
    69   178   176    1
    70    44    45    1
    71   145   144    1
    72   158   159   ar
    73   158   160   ar
    74    35    36    1
    75   177   176    1
    76   173   176    1
    77   173   172    1
    78    45    46    1
    79    16    15    1
    80    16    19    1
    81    46    47    2
    82     4     3    2
    83   201   200    2
    84   108   107    1
    85    48    49    1
    86     3     2    1
    87   200   199    1
    88     9     7   ar
    89     9    10   ar
    90   133   132    2
    91   107   106    1
    92   138   136   ar
    93   138   139   ar
    94     7     6   ar
    95   136   135   ar
    96   198   199    1
    97    53    52    1
    98    53    54    1
    99   132   131    1
   100    56    54   am
   101    49    52    1
   102    49    50    1
   103   202   199    1
   104   202   203    1
   105     2     1    1
   106     2     5    1
   107    10    12   ar
   108    10     8   ar
   109   106   105    1
   110   139   141   ar
   111   139   137   ar
   112     6     5    1
   113     6     8   ar
   114    12    14   ar
   115   100    98   am
   116    92    90    1
   117    54    55    2
   118   141   143   ar
   119   135   137   ar
   120   135   134    1
   121    50    51    2
   122   204   203   ar
   123   204   206   ar
   124    83    84    1
   125    83    80    1
   126     8    11   ar
   127   203   205   ar
   128    99    98    2
   129    84    85    1
   130   131   134    1
   131   131   130    1
   132    98    97    1
   133   137   140   ar
   134    91    90    1
   135   119   117   ar
   136   119   118   ar
   137   117   115   ar
   138   105   102    1
   139   130   128   am
   140    14    13   ar
   141    90    87    1
   142   143   142   ar
   143   206   208   ar
   144    11    13   ar
   145    85    79    1
   146   102   101    1
   147   102   103    1
   148    80    79    1
   149    80    81    1
   150   205   207   ar
   151    96    95    2
   152   115   114   ar
   153   118   116   ar
   154    97    94    1
   155   140   142   ar
   156   128   127    1
   157   128   129    2
   158   127   126    1
   159    87    86    1
   160    87    88    1
   161    95   101   am
   162    95    94    1
   163    81    82    2
   164   208   207   ar
   165   103   104    2
   166   126   122   am
   167    94    93    1
   168   116   114   ar
   169   114   113    1
   170    70    69    1
   171    88    89    2
   172   122   123    2
   173   122   121    1
   174   112   111    2
   175   121   120    1
   176   121   124    1
   177    69    66    1
   178   113   110    1
   179   111   120   am
   180   111   110    1
   181    64    62    1
   182   124   125    1
   183   110   109    1
   184    66    65    1
   185    66    67    1
   186    63    62    1
   187    61    62    1
   188    61    58    1
   189    57    58    1
   190    58    59    1
   191    78    76    1
   192    67    68    2
   193    76    75    1
   194    75    77    1
   195    75    72    1
   196    59    60    2
   197    72    71    1
   198    72    73    1
   199    73    74    2
