@<TRIPOS>MOLECULE
tmp/3n66B01.pdb
 169 164 0 0 0
SMALL
GASTEIGER

@<TRIPOS>ATOM
      1  N         18.1530   12.2570   47.4850 N.3    38  MET38      -0.1245
      2  CA        17.8090   11.6630   48.7710 C.3    38  MET38       0.1570
      3  C         17.4770   12.7020   49.8460 C.2    38  MET38       0.2261
      4  O         16.5280   12.5230   50.6210 O.2    38  MET38      -0.2867
      5  CB        18.8730   10.6700   49.2190 C.3    38  MET38       0.0387
      6  CG        18.9690    9.4440   48.3170 C.3    38  MET38       0.0595
      7  SD        17.4670    8.4060   48.3510 S.3    38  MET38      -0.1393
      8  CE        16.3960    9.1590   47.0990 C.3    38  MET38       0.0692
      9  N          7.4000    5.3640   53.2640 N.3   108  CYS108     -0.1235
     10  CA         7.0870    4.1570   54.0760 C.3   108  CYS108      0.1677
     11  C          6.0080    3.2650   53.4910 C.2   108  CYS108      0.2270
     12  O          4.8270    3.6320   53.4520 O.2   108  CYS108     -0.2867
     13  CB         6.7860    4.4790   55.5690 C.3   108  CYS108      0.0956
     14  SG         6.5300    2.9250   56.5120 S.3   108  CYS108     -0.0801
     15  N         20.5370    3.7470   63.9900 N.3   171  GLN171     -0.1245
     16  CA        19.4900    2.8120   64.4260 C.3   171  GLN171      0.1566
     17  C         19.8310    2.3240   65.8410 C.2   171  GLN171      0.2260
     18  O         20.9910    2.2580   66.2060 O.2   171  GLN171     -0.2867
     19  CB        19.4010    1.5840   63.5030 C.3   171  GLN171      0.0367
     20  CG        18.8270    1.8730   62.0990 C.3   171  GLN171      0.0905
     21  CD        18.8190    0.6080   61.2160 C.2   171  GLN171      0.2608
     22  OE1       18.5720   -0.4800   61.7120 O.2   171  GLN171     -0.2717
     23  NE2       19.0800    0.7600   59.9190 N.am  171  GLN171     -0.0878
     24  N         22.5460   -1.9470   65.4770 N.3   174  ARG174     -0.1245
     25  CA        23.2070   -1.9190   64.1900 C.3   174  ARG174      0.1563
     26  C         24.5910   -2.4550   64.4500 C.2   174  ARG174      0.2260
     27  O         25.0590   -2.3940   65.5910 O.2   174  ARG174     -0.2867
     28  CB        23.2980   -0.4900   63.6390 C.3   174  ARG174      0.0307
     29  CG        22.8020   -0.4190   62.1860 C.3   174  ARG174      0.0489
     30  CD        22.9070    0.9610   61.5630 C.3   174  ARG174      0.2205
     31  NE        22.6950    0.8550   60.1170 N.pl3 174  ARG174     -0.0865
     32  CZ        22.9210    1.8360   59.2480 C.cat 174  ARG174      0.5346
     33  NH1       23.4060    3.0060   59.6520 N.pl3 174  ARG174      0.1354
     34  NH2       22.6550    1.6440   57.9600 N.pl3 174  ARG174      0.1354
     35  N         14.2320   -3.4270   63.4480 N.3   258  PRO258     -0.2116
     36  CA        14.6970   -2.2030   62.7650 C.3   258  PRO258      0.1372
     37  C         14.1600   -0.9680   63.5050 C.2   258  PRO258      0.2244
     38  O         12.9410   -0.7900   63.6220 O.2   258  PRO258     -0.2868
     39  CB        14.0760   -2.3350   61.3740 C.3   258  PRO258      0.0268
     40  CG        12.7220   -3.0230   61.6340 C.3   258  PRO258      0.0207
     41  CD        12.9670   -3.9280   62.8740 C.3   258  PRO258      0.0892
     42  N         14.8340    3.0790   63.7340 N.3   260  VAL260     -0.1245
     43  CA        15.4830    4.3110   63.2310 C.3   260  VAL260      0.1561
     44  C         15.5680    5.3380   64.3560 C.2   260  VAL260      0.2260
     45  O         14.5560    5.6940   64.9360 O.2   260  VAL260     -0.2867
     46  CB        14.6560    4.8900   62.0660 C.3   260  VAL260      0.0252
     47  CG1       15.1870    6.2830   61.6320 C.3   260  VAL260      0.0019
     48  CG2       14.7000    3.9270   60.8670 C.3   260  VAL260      0.0019
     49  N         12.0470    5.1280   66.6030 N.3   277  PHE277     -0.1227
     50  CA        10.8600    4.3900   66.2670 C.3   277  PHE277      0.1736
     51  C         11.2250    3.0900   65.5740 C.2   277  PHE277      0.2596
     52  O         12.2170    3.0130   64.8870 O.2   277  PHE277     -0.2718
     53  CB         9.9130    5.2320   65.4070 C.3   277  PHE277      0.0547
     54  CG        10.5580    5.8420   64.1580 C.ar  277  PHE277     -0.0202
     55  CD1       10.6160    5.1240   62.9560 C.ar  277  PHE277     -0.0042
     56  CD2       11.0140    7.1680   64.1550 C.ar  277  PHE277     -0.0042
     57  CE1       11.1510    5.7010   61.7720 C.ar  277  PHE277     -0.0003
     58  CE2       11.5510    7.7250   62.9780 C.ar  277  PHE277     -0.0003
     59  CZ        11.6150    6.9830   61.7880 C.ar  277  PHE277     -0.0000
     60  N         10.3840    2.0890   65.7440 N.am  278  SER278     -0.1938
     61  CA        10.6680    0.7610   65.2470 C.3   278  SER278      0.2055
     62  C          9.4270    0.0730   64.7260 C.2   278  SER278      0.2644
     63  O          8.2800    0.3700   65.1530 O.2   278  SER278     -0.2714
     64  CB        11.3390   -0.1160   66.3650 C.3   278  SER278      0.2130
     65  OG        10.4650   -0.2590   67.5040 O.3   278  SER278     -0.2179
     66  N          9.6650   -0.8490   63.7880 N.am  279  GLY279     -0.1939
     67  CA         8.5940   -1.6650   63.2510 C.3   279  GLY279      0.2014
     68  C          9.0780   -3.0930   63.1780 C.2   279  GLY279      0.2639
     69  O          9.5900   -3.6410   64.1660 O.2   279  GLY279     -0.2714
     70  N          8.9390   -3.6860   62.0010 N.am  280  TRP280     -0.1959
     71  CA         9.5590   -4.9820   61.7010 C.3   280  TRP280      0.1771
     72  C         10.0600   -4.9020   60.2560 C.2   280  TRP280      0.2620
     73  O          9.6400   -4.0200   59.4940 O.2   280  TRP280     -0.2715
     74  CB         8.5800   -6.1540   61.8570 C.3   280  TRP280      0.0590
     75  CG         7.2850   -6.0180   61.1560 C.ar  280  TRP280      0.0006
     76  CD1        7.0240   -6.2870   59.8180 C.ar  280  TRP280      0.0946
     77  CD2        6.0530   -5.6040   61.7320 C.ar  280  TRP280      0.0152
     78  NE1        5.6860   -6.0340   59.5440 N.ar  280  TRP280     -0.2442
     79  CE2        5.0730   -5.6230   60.7030 C.ar  280  TRP280      0.0810
     80  CE3        5.6740   -5.2030   63.0300 C.ar  280  TRP280      0.0012
     81  CZ2        3.7320   -5.2690   60.9350 C.ar  280  TRP280      0.0191
     82  CZ3        4.3420   -4.8410   63.2620 C.ar  280  TRP280      0.0001
     83  CH2        3.3840   -4.8980   62.2180 C.ar  280  TRP280      0.0015
     84  N         10.9500   -5.8100   59.8820 N.am  281  TYR281     -0.1960
     85  CA        11.5940   -5.7440   58.5750 C.3   281  TYR281      0.1771
     86  C         10.7190   -6.2630   57.4320 C.2   281  TYR281      0.2619
     87  O          9.9490   -7.2190   57.5940 O.2   281  TYR281     -0.2715
     88  CB        12.8600   -6.6160   58.5940 C.3   281  TYR281      0.0574
     89  CG        14.1050   -5.8730   58.9880 C.ar  281  TYR281     -0.0198
     90  CD1       14.8180   -6.2050   60.1390 C.ar  281  TYR281     -0.0009
     91  CD2       14.5900   -4.8390   58.1880 C.ar  281  TYR281     -0.0009
     92  CE1       15.9780   -5.5060   60.4730 C.ar  281  TYR281      0.0417
     93  CE2       15.7610   -4.1630   58.5020 C.ar  281  TYR281      0.0417
     94  CZ        16.4330   -4.4990   59.6590 C.ar  281  TYR281      0.1957
     95  OH        17.5900   -3.8120   59.9530 O.3   281  TYR281     -0.2866
     96  N         10.8680   -5.6210   56.2750 N.am  282  MET282     -0.1977
     97  CA        10.5690   -6.2500   54.9970 C.3   282  MET282      0.1605
     98  C         11.8530   -6.9670   54.5800 C.2   282  MET282      0.2287
     99  O         12.9470   -6.4110   54.7240 O.2   282  MET282     -0.2864
    100  CB        10.1740   -5.1990   53.9580 C.3   282  MET282      0.0413
    101  CG         9.8650   -5.7750   52.5390 C.3   282  MET282      0.0598
    102  SD         8.9680   -4.5270   51.5520 S.3   282  MET282     -0.1393
    103  CE        10.3070   -3.5470   50.9390 C.3   282  MET282      0.0692
    104  N         15.0540   -5.4980   52.8110 N.3   285  GLU285     -0.1245
    105  CA        15.8970   -4.5100   53.4930 C.3   285  GLU285      0.1567
    106  C         17.1720   -5.2190   53.9240 C.2   285  GLU285      0.2260
    107  O         18.2840   -4.6740   53.8130 O.2   285  GLU285     -0.2867
    108  CB        15.1850   -3.9430   54.7170 C.3   285  GLU285      0.0388
    109  CG        13.9270   -3.1330   54.3340 C.3   285  GLU285      0.1160
    110  CD        13.3230   -2.5070   55.5600 C.2   285  GLU285      0.3649
    111  OE1       13.8850   -1.4710   55.9790 O.co2 285  GLU285     -0.2457
    112  OE2       12.3230   -3.0470   56.0870 O.co2 285  GLU285     -0.2457
    113  N         19.4220   -4.8150   50.3790 N.3   289  ARG289     -0.1245
    114  CA        20.2590   -3.6870   50.7930 C.3   289  ARG289      0.1563
    115  C         21.4600   -4.0830   51.7000 C.2   289  ARG289      0.2260
    116  O         22.6190   -3.8550   51.3510 O.2   289  ARG289     -0.2867
    117  CB        19.4090   -2.6320   51.5190 C.3   289  ARG289      0.0307
    118  CG        20.2760   -1.5080   52.1120 C.3   289  ARG289      0.0489
    119  CD        19.4190   -0.3730   52.7470 C.3   289  ARG289      0.2205
    120  NE        18.5710   -0.7240   53.8920 N.pl3 289  ARG289     -0.0865
    121  CZ        17.2240   -0.7530   53.8570 C.cat 289  ARG289      0.5346
    122  NH1       16.5570   -0.5440   52.7190 N.pl3 289  ARG289      0.1354
    123  NH2       16.5350   -0.9790   54.9690 N.pl3 289  ARG289      0.1354
    124  N         27.8890   -2.3370   51.4550 N.3   296  ARG296     -0.1245
    125  CA        27.4290   -2.9520   52.7200 C.3   296  ARG296      0.1563
    126  C         28.1160   -4.3220   52.8770 C.2   296  ARG296      0.2260
    127  O         29.3120   -4.4130   52.6260 O.2   296  ARG296     -0.2867
    128  CB        25.8890   -3.0100   52.7720 C.3   296  ARG296      0.0307
    129  CG        25.2420   -1.6020   52.7260 C.3   296  ARG296      0.0489
    130  CD        25.5780   -0.7280   53.9420 C.3   296  ARG296      0.2205
    131  NE        25.1160   -1.2830   55.2240 N.pl3 296  ARG296     -0.0865
    132  CZ        23.8370   -1.3230   55.6100 C.cat 296  ARG296      0.5346
    133  NH1       22.8820   -0.8500   54.8170 N.pl3 296  ARG296      0.1354
    134  NH2       23.5030   -1.8050   56.7980 N.pl3 296  ARG296      0.1354
    135  N         10.0710    6.1170   44.2960 N.3   370  VAL370     -0.1231
    136  CA        11.4830    5.7110   44.3660 C.3   370  VAL370      0.1692
    137  C         11.7680    4.8080   45.5770 C.2   370  VAL370      0.2592
    138  O         12.5410    3.8560   45.4740 O.2   370  VAL370     -0.2718
    139  CB        12.3800    6.9710   44.3540 C.3   370  VAL370      0.0266
    140  CG1       13.8410    6.5990   44.6300 C.3   370  VAL370      0.0020
    141  CG2       12.2200    7.7160   42.9920 C.3   370  VAL370      0.0020
    142  N         11.1270    5.1020   46.7140 N.am  371  TRP371     -0.1976
    143  CA        11.2840    4.3230   47.9350 C.3   371  TRP371      0.1640
    144  C         10.2390    3.2290   48.1210 C.2   371  TRP371      0.2290
    145  O         10.5160    2.2220   48.7660 O.2   371  TRP371     -0.2864
    146  CB        11.2300    5.2750   49.1520 C.3   371  TRP371      0.0576
    147  CG        12.5110    6.0710   49.2970 C.ar  371  TRP371      0.0006
    148  CD1       13.0610    6.9650   48.3940 C.ar  371  TRP371      0.0946
    149  CD2       13.3910    6.0250   50.4090 C.ar  371  TRP371      0.0152
    150  NE1       14.2330    7.4680   48.8980 N.ar  371  TRP371     -0.2442
    151  CE2       14.4590    6.9150   50.1350 C.ar  371  TRP371      0.0810
    152  CE3       13.3750    5.3300   51.6350 C.ar  371  TRP371      0.0012
    153  CZ2       15.5130    7.1120   51.0360 C.ar  371  TRP371      0.0191
    154  CZ3       14.3960    5.5530   52.5600 C.ar  371  TRP371      0.0001
    155  CH2       15.4670    6.4240   52.2390 C.ar  371  TRP371      0.0015
    156  N          8.5960    1.3860   45.7450 N.3   373  VAL373     -0.1245
    157  CA         8.8580    0.2010   44.9110 C.3   373  VAL373      0.1561
    158  C         10.0830   -0.5410   45.4990 C.2   373  VAL373      0.2260
    159  O         11.1270    0.0670   45.7330 O.2   373  VAL373     -0.2867
    160  CB         9.0860    0.6190   43.4400 C.3   373  VAL373      0.0252
    161  CG1        9.5710   -0.5710   42.6100 C.3   373  VAL373      0.0019
    162  CG2        7.7670    1.2120   42.8590 C.3   373  VAL373      0.0019
    163  N         13.5010   -2.8780   46.1850 N.3   375  PRO375     -0.2116
    164  CA        14.8040   -2.8240   45.5010 C.3   375  PRO375      0.1372
    165  C         15.1390   -4.0810   44.6810 C.2   375  PRO375      0.2244
    166  O         16.2120   -4.1640   44.0770 O.2   375  PRO375     -0.2868
    167  CB        15.7820   -2.6360   46.6670 C.3   375  PRO375      0.0268
    168  CG        15.1020   -3.3990   47.7910 C.3   375  PRO375      0.0207
    169  CD        13.6660   -2.9480   47.6460 C.3   375  PRO375      0.0892
@<TRIPOS>BOND
     1   161   160    1
     2   162   160    1
     3   141   139    1
     4   160   157    1
     5   166   165    2
     6   135   136    1
     7   139   136    1
     8   139   140    1
     9   136   137    1
    10   165   164    1
    11   157   158    1
    12   157   156    1
    13   138   137    2
    14   158   159    2
    15   164   163    1
    16   164   167    1
    17   137   142   am
    18   163   169    1
    19   167   168    1
    20   142   143    1
    21     8     7    1
    22     1     2    1
    23   169   168    1
    24   143   144    1
    25   143   146    1
    26   144   145    2
    27     6     7    1
    28     6     5    1
    29   148   150   ar
    30   148   147   ar
    31     2     5    1
    32     2     3    1
    33   150   151   ar
    34   146   147    1
    35   147   149   ar
    36     3     4    2
    37   151   149   ar
    38   151   153   ar
    39   113   114    1
    40   149   152   ar
    41   114   117    1
    42   114   115    1
    43   103   102    1
    44   153   155   ar
    45   116   115    2
    46   124   125    1
    47   117   118    1
    48   102   101    1
    49   152   154   ar
    50   118   119    1
    51   155   154   ar
    52   101   100    1
    53   127   126    2
    54   122   121    1
    55   125   128    1
    56   125   126    1
    57   129   128    1
    58   129   130    1
    59   119   120    1
    60   104   105    1
    61     9    10    1
    62    12    11    2
    63    11    10    1
    64   105   106    1
    65   105   108    1
    66   107   106    2
    67   121   120    2
    68   121   123    1
    69   130   131    1
    70   100    97    1
    71    10    13    1
    72   109   108    1
    73   109   110    1
    74    98    99    2
    75    98    97    1
    76   133   132    1
    77    97    96    1
    78   131   132    2
    79   110   111   ar
    80   110   112   ar
    81    13    14    1
    82   132   134    1
    83    96    86   am
    84    86    87    2
    85    86    85    1
    86    34    32    1
    87    91    93   ar
    88    91    89   ar
    89    93    94   ar
    90    85    88    1
    91    85    84    1
    92    88    89    1
    93    89    90   ar
    94    32    33    1
    95    32    31    2
    96    73    72    2
    97    78    76   ar
    98    78    79   ar
    99    94    95    1
   100    94    92   ar
   101    76    75   ar
   102    84    72   am
   103    23    21   am
   104    31    30    1
   105    90    92   ar
   106    72    71    1
   107    79    81   ar
   108    79    77   ar
   109    48    46    1
   110    81    83   ar
   111    75    77   ar
   112    75    74    1
   113    21    22    2
   114    21    20    1
   115    39    40    1
   116    39    36    1
   117    30    29    1
   118    47    46    1
   119    40    41    1
   120    71    74    1
   121    71    70    1
   122    77    80   ar
   123    57    59   ar
   124    57    55   ar
   125    59    58   ar
   126    70    68   am
   127    46    43    1
   128    20    19    1
   129    29    28    1
   130    83    82   ar
   131    36    35    1
   132    36    37    1
   133    41    35    1
   134    55    54   ar
   135    58    56   ar
   136    80    82   ar
   137    68    67    1
   138    68    69    2
   139    43    42    1
   140    43    44    1
   141    67    66    1
   142    19    16    1
   143    37    38    2
   144    28    25    1
   145    66    62   am
   146    15    16    1
   147    56    54   ar
   148    54    53    1
   149    25    26    1
   150    25    24    1
   151    44    45    2
   152    16    17    1
   153    26    27    2
   154    62    63    2
   155    62    61    1
   156    52    51    2
   157    61    60    1
   158    61    64    1
   159    53    50    1
   160    51    60   am
   161    51    50    1
   162    17    18    2
   163    50    49    1
   164    64    65    1
