@<TRIPOS>MOLECULE
tmp/3n6cB03.pdb
 158 156 0 0 0
SMALL
GASTEIGER

@<TRIPOS>ATOM
      1  N          7.1230   -3.0830   55.4100 N.3    38  VAL38      -0.1231
      2  CA         6.5450   -2.7310   56.7140 C.3    38  VAL38       0.1692
      3  C          7.1410   -3.5080   57.8880 C.2    38  VAL38       0.2591
      4  O          7.3210   -2.9340   58.9620 O.2    38  VAL38      -0.2718
      5  CB         4.9980   -2.7860   56.7160 C.3    38  VAL38       0.0266
      6  CG1        4.4410   -2.7120   58.1210 C.3    38  VAL38       0.0020
      7  CG2        4.4570   -1.6470   55.9100 C.3    38  VAL38       0.0020
      8  N          7.4590   -4.7930   57.7100 N.am   39  LEU39      -0.1980
      9  CA         8.1150   -5.5170   58.8120 C.3    39  LEU39       0.1596
     10  C          9.3280   -6.4380   58.5090 C.2    39  LEU39       0.2287
     11  O          9.3600   -7.1240   57.4890 O.2    39  LEU39      -0.2864
     12  CB         7.0850   -6.2290   59.6950 C.3    39  LEU39       0.0297
     13  CG         5.6890   -6.5440   59.1620 C.3    39  LEU39       0.0022
     14  CD1        5.7240   -7.6390   58.0860 C.3    39  LEU39       0.0001
     15  CD2        4.7590   -6.9220   60.3230 C.3    39  LEU39       0.0001
     16  N         -3.5280   -3.2910   71.1610 N.3   167  SER167     -0.1202
     17  CA        -2.4470   -2.6330   70.4550 C.3   167  SER167      0.2020
     18  C         -2.5160   -1.1350   70.5420 C.2   167  SER167      0.2618
     19  O         -2.0400   -0.4360   69.6350 O.2   167  SER167     -0.2717
     20  CB        -2.5260   -3.0450   68.9950 C.3   167  SER167      0.2103
     21  OG        -3.8930   -3.0390   68.5930 O.3   167  SER167     -0.2182
     22  N         -3.0960   -0.6590   71.6430 N.am  168  GLN168     -0.1979
     23  CA        -3.3400    0.7610   71.9290 C.3   168  GLN168      0.1601
     24  C         -4.3590    0.8150   73.0540 C.2   168  GLN168      0.2287
     25  O         -5.5390    0.4600   72.8680 O.2   168  GLN168     -0.2864
     26  CB        -3.9090    1.5380   70.7350 C.3   168  GLN168      0.0394
     27  CG        -2.9260    2.3050   69.8740 C.3   168  GLN168      0.0908
     28  CD        -3.5740    3.5490   69.3060 C.2   168  GLN168      0.2608
     29  OE1       -3.8960    4.4750   70.0610 O.2   168  GLN168     -0.2717
     30  NE2       -3.7790    3.5840   67.9830 N.am  168  GLN168     -0.0878
     31  N         -3.5590    8.6760   72.2250 N.3   255  PRO255     -0.2116
     32  CA        -3.0540    7.5820   71.4330 C.3   255  PRO255      0.1372
     33  C         -1.9510    6.8440   72.1970 C.2   255  PRO255      0.2244
     34  O         -0.7820    7.2880   72.1810 O.2   255  PRO255     -0.2868
     35  CB        -2.5060    8.2930   70.1810 C.3   255  PRO255      0.0268
     36  CG        -2.3700    9.7680   70.5650 C.3   255  PRO255      0.0207
     37  CD        -2.7870    9.9070   72.0010 C.3   255  PRO255      0.0892
     38  N          0.2240    3.5440   72.4740 N.3   257  VAL257     -0.1245
     39  CA         0.6460    2.3250   71.8110 C.3   257  VAL257      0.1561
     40  C          1.2060    1.3230   72.8180 C.2   257  VAL257      0.2260
     41  O          2.2550    1.5620   73.4380 O.2   257  VAL257     -0.2867
     42  CB         1.6210    2.6410   70.6580 C.3   257  VAL257      0.0252
     43  CG1        2.6060    1.4970   70.3990 C.3   257  VAL257      0.0019
     44  CG2        0.8030    2.9900   69.3980 C.3   257  VAL257      0.0019
     45  N          1.3100   -2.3900   72.1870 N.3   259  ASN259     -0.1225
     46  CA         1.8240   -3.6310   71.6120 C.3   259  ASN259      0.1785
     47  C          3.3190   -3.6980   71.2250 C.2   259  ASN259      0.2597
     48  O          3.7440   -4.6680   70.5910 O.2   259  ASN259     -0.2718
     49  CB         0.9350   -4.0720   70.4330 C.3   259  ASN259      0.1169
     50  CG         1.1050   -3.1980   69.1800 C.2   259  ASN259      0.2627
     51  OD1        0.6590   -3.5750   68.0900 O.2   259  ASN259     -0.2716
     52  ND2        1.7340   -2.0350   69.3300 N.am  259  ASN259     -0.0877
     53  N          4.1230   -2.7080   71.6070 N.am  260  MET260     -0.1979
     54  CA         5.5370   -2.7190   71.1890 C.3   260  MET260      0.1605
     55  C          6.5580   -3.0620   72.2720 C.2   260  MET260      0.2287
     56  O          6.3330   -2.8340   73.4540 O.2   260  MET260     -0.2864
     57  CB         5.9180   -1.4120   70.4810 C.3   260  MET260      0.0413
     58  CG         5.5060   -1.3640   69.0050 C.3   260  MET260      0.0598
     59  SD         6.1750    0.0510   68.0900 S.3   260  MET260     -0.1393
     60  CE         7.8930   -0.3860   67.8800 C.3   260  MET260      0.0692
     61  N          3.1230    3.6920   75.7060 N.3   274  PHE274     -0.1227
     62  CA         3.5230    5.1020   75.5930 C.3   274  PHE274      0.1736
     63  C          2.5880    5.8990   74.7120 C.2   274  PHE274      0.2596
     64  O          1.9830    5.3430   73.8000 O.2   274  PHE274     -0.2718
     65  CB         4.9710    5.2380   75.0960 C.3   274  PHE274      0.0547
     66  CG         5.2780    4.4610   73.8390 C.ar  274  PHE274     -0.0202
     67  CD1        4.9830    4.9820   72.5880 C.ar  274  PHE274     -0.0042
     68  CD2        5.8930    3.2200   73.9080 C.ar  274  PHE274     -0.0042
     69  CE1        5.2880    4.2820   71.4300 C.ar  274  PHE274     -0.0003
     70  CE2        6.1900    2.5080   72.7480 C.ar  274  PHE274     -0.0003
     71  CZ         5.8940    3.0490   71.5100 C.ar  274  PHE274     -0.0000
     72  N          2.4970    7.2040   74.9760 N.am  275  SER275     -0.1938
     73  CA         1.4450    8.0410   74.3810 C.3   275  SER275      0.2055
     74  C          1.6800    9.5680   74.3800 C.2   275  SER275      0.2644
     75  O          1.6450   10.2280   75.4310 O.2   275  SER275     -0.2714
     76  CB         0.0930    7.7360   75.0470 C.3   275  SER275      0.2130
     77  OG         0.1190    8.0520   76.4300 O.3   275  SER275     -0.2179
     78  N          1.8720   10.1160   73.1820 N.am  276  GLY276     -0.1939
     79  CA         2.0000   11.5590   72.9720 C.3   276  GLY276      0.2014
     80  C          0.6510   12.1760   72.6860 C.2   276  GLY276      0.2639
     81  O         -0.2150   12.1760   73.5550 O.2   276  GLY276     -0.2714
     82  N          0.4640   12.7030   71.4780 N.am  277  TRP277     -0.1959
     83  CA        -0.8450   13.2310   71.0390 C.3   277  TRP277      0.1771
     84  C         -1.0290   13.1020   69.5120 C.2   277  TRP277      0.2620
     85  O         -0.0510   12.8800   68.7650 O.2   277  TRP277     -0.2715
     86  CB        -1.0290   14.6860   71.4870 C.3   277  TRP277      0.0590
     87  CG         0.0690   15.5990   71.0080 C.ar  277  TRP277      0.0006
     88  CD1        0.1950   16.1430   69.7670 C.ar  277  TRP277      0.0946
     89  CD2        1.1840   16.0690   71.7640 C.ar  277  TRP277      0.0152
     90  NE1        1.3140   16.9250   69.6990 N.ar  277  TRP277     -0.2442
     91  CE2        1.9400   16.9020   70.9150 C.ar  277  TRP277      0.0810
     92  CE3        1.6170   15.8720   73.0800 C.ar  277  TRP277      0.0012
     93  CZ2        3.1180   17.5330   71.3340 C.ar  277  TRP277      0.0191
     94  CZ3        2.7820   16.5020   73.5020 C.ar  277  TRP277      0.0001
     95  CH2        3.5200   17.3230   72.6280 C.ar  277  TRP277      0.0015
     96  N         -2.2680   13.2550   69.0490 N.am  278  TYR278     -0.1960
     97  CA        -2.5830   12.9760   67.6470 C.3   278  TYR278      0.1771
     98  C         -2.0910   14.0020   66.6240 C.2   278  TYR278      0.2619
     99  O         -2.0290   15.2170   66.8900 O.2   278  TYR278     -0.2715
    100  CB        -4.0850   12.7320   67.4420 C.3   278  TYR278      0.0574
    101  CG        -4.5320   11.2900   67.4840 C.ar  278  TYR278     -0.0198
    102  CD1       -3.8300   10.2870   66.8080 C.ar  278  TYR278     -0.0009
    103  CD2       -5.6890   10.9350   68.1720 C.ar  278  TYR278     -0.0009
    104  CE1       -4.2530    8.9610   66.8470 C.ar  278  TYR278      0.0417
    105  CE2       -6.1290    9.6180   68.2080 C.ar  278  TYR278      0.0417
    106  CZ        -5.4140    8.6370   67.5460 C.ar  278  TYR278      0.1957
    107  OH        -5.8750    7.3420   67.6000 O.3   278  TYR278     -0.2866
    108  N         -1.7430   13.4720   65.4500 N.am  279  MET279     -0.1977
    109  CA        -1.5200   14.2570   64.2430 C.3   279  MET279      0.1605
    110  C         -2.7100   14.0970   63.2850 C.2   279  MET279      0.2287
    111  O         -2.8010   13.1310   62.5310 O.2   279  MET279     -0.2864
    112  CB        -0.2060   13.8690   63.5620 C.3   279  MET279      0.0413
    113  CG         0.0940   14.6890   62.3330 C.3   279  MET279      0.0598
    114  SD         1.5320   14.0680   61.4660 S.3   279  MET279     -0.1393
    115  CE         0.8350   12.7320   60.4980 C.3   279  MET279      0.0692
    116  N         -3.7340   11.0890   60.9090 N.3   282  GLU282     -0.1245
    117  CA        -3.9240    9.8090   61.5720 C.3   282  GLU282      0.1567
    118  C         -5.3900    9.5250   61.8120 C.2   282  GLU282      0.2260
    119  O         -5.8730    8.4600   61.4350 O.2   282  GLU282     -0.2867
    120  CB        -3.1550    9.7460   62.8870 C.3   282  GLU282      0.0388
    121  CG        -1.6230    9.8100   62.7270 C.3   282  GLU282      0.1160
    122  CD        -0.9210    9.6390   64.0510 C.2   282  GLU282      0.3649
    123  OE1       -0.9710    8.5160   64.5920 O.co2 282  GLU282     -0.2457
    124  OE2       -0.3380   10.6180   64.5580 O.co2 282  GLU282     -0.2457
    125  N          7.5330    7.3870   55.5410 N.3   368  TRP368     -0.1241
    126  CA         6.6480    7.4720   56.6860 C.3   368  TRP368      0.1605
    127  C          6.5310    8.8680   57.2840 C.2   368  TRP368      0.2264
    128  O          5.4680    9.2470   57.7990 O.2   368  TRP368     -0.2867
    129  CB         7.1210    6.5260   57.7580 C.3   368  TRP368      0.0550
    130  CG         6.8380    5.1180   57.4600 C.ar  368  TRP368      0.0003
    131  CD1        7.4280    4.3460   56.5110 C.ar  368  TRP368      0.0946
    132  CD2        5.8870    4.2840   58.1330 C.ar  368  TRP368      0.0152
    133  NE1        6.9100    3.0730   56.5520 N.ar  368  TRP368     -0.2442
    134  CE2        5.9580    3.0120   57.5370 C.ar  368  TRP368      0.0810
    135  CE3        4.9840    4.4920   59.1890 C.ar  368  TRP368      0.0012
    136  CZ2        5.1730    1.9530   57.9610 C.ar  368  TRP368      0.0191
    137  CZ3        4.2110    3.4440   59.6080 C.ar  368  TRP368      0.0001
    138  CH2        4.3020    2.1910   58.9930 C.ar  368  TRP368      0.0015
    139  N          8.8690   -4.2670   67.1290 N.3   396  TYR396     -0.1241
    140  CA         7.5990   -5.0080   67.2240 C.3   396  TYR396      0.1605
    141  C          7.8230   -6.3710   67.8350 C.2   396  TYR396      0.2264
    142  O          8.9620   -6.8350   67.9400 O.2   396  TYR396     -0.2867
    143  CB         6.9650   -5.2380   65.8610 C.3   396  TYR396      0.0534
    144  CG         6.8870   -4.0420   64.9550 C.ar  396  TYR396     -0.0201
    145  CD1        6.1760   -2.8940   65.3260 C.ar  396  TYR396     -0.0009
    146  CD2        7.4800   -4.0760   63.6920 C.ar  396  TYR396     -0.0009
    147  CE1        6.0900   -1.7880   64.4580 C.ar  396  TYR396      0.0417
    148  CE2        7.3980   -2.9900   62.8170 C.ar  396  TYR396      0.0417
    149  CZ         6.7070   -1.8500   63.2030 C.ar  396  TYR396      0.1957
    150  OH         6.6330   -0.7800   62.3340 O.3   396  TYR396     -0.2866
    151  N          2.0570  -11.1050   68.3040 N.3   399  ASP399     -0.1239
    152  CA         0.7950  -11.0170   69.0330 C.3   399  ASP399      0.1674
    153  C          0.7590  -12.1240   70.0830 C.2   399  ASP399      0.2266
    154  O          0.8300  -13.2930   69.7260 O.2   399  ASP399     -0.2867
    155  CB        -0.3610  -11.1760   68.0590 C.3   399  ASP399      0.1410
    156  CG        -0.5770   -9.9410   67.2140 C.2   399  ASP399      0.3668
    157  OD1       -0.7360   -8.8560   67.8200 O.co2 399  ASP399     -0.2456
    158  OD2       -0.5960  -10.0500   65.9580 O.co2 399  ASP399     -0.2456
@<TRIPOS>BOND
     1     1     2    1
     2   125   126    1
     3     7     5    1
     4   131   133   ar
     5   131   130   ar
     6   133   134   ar
     7   126   127    1
     8   126   129    1
     9     2     5    1
    10     2     3    1
    11     5     6    1
    12   127   128    2
    13   130   129    1
    14   130   132   ar
    15    11    10    2
    16   134   136   ar
    17   134   132   ar
    18     8     3   am
    19     8     9    1
    20     3     4    2
    21   136   138   ar
    22    14    13    1
    23   132   135   ar
    24    10     9    1
    25     9    12    1
    26   138   137   ar
    27    13    12    1
    28    13    15    1
    29   135   137   ar
    30   115   114    1
    31   116   117    1
    32   119   118    2
    33   114   113    1
    34   117   118    1
    35   117   120    1
    36   113   112    1
    37   150   149    1
    38   111   110    2
    39   121   120    1
    40   121   122    1
    41   148   149   ar
    42   148   146   ar
    43   149   147   ar
    44   110   109    1
    45   112   109    1
    46   146   144   ar
    47   122   124   ar
    48   122   123   ar
    49   109   108    1
    50   147   145   ar
    51   144   145   ar
    52   144   143    1
    53   108    98   am
    54   143   140    1
    55   158   156   ar
    56    98    99    2
    57    98    97    1
    58   102   104   ar
    59   102   101   ar
    60   104   106   ar
    61   139   140    1
    62   156   157   ar
    63   156   155    1
    64   140   141    1
    65   100   101    1
    66   100    97    1
    67   101   103   ar
    68   106   107    1
    69   106   105   ar
    70    97    96    1
    71   141   142    2
    72    60    59    1
    73    30    28   am
    74   155   152    1
    75    51    50    2
    76    59    58    1
    77   103   105   ar
    78   151   152    1
    79    21    20    1
    80    85    84    2
    81    20    17    1
    82    58    57    1
    83   152   153    1
    84    96    84   am
    85    50    52   am
    86    50    49    1
    87    28    27    1
    88    28    29    2
    89    44    42    1
    90    84    83    1
    91    19    18    2
    92    90    88   ar
    93    90    91   ar
    94   154   153    2
    95    88    87   ar
    96    27    26    1
    97    35    36    1
    98    35    32    1
    99    43    42    1
   100    49    46    1
   101    17    18    1
   102    17    16    1
   103    57    54    1
   104    18    22   am
   105    36    37    1
   106    48    47    2
   107    42    39    1
   108    26    23    1
   109    91    93   ar
   110    91    89   ar
   111    87    86    1
   112    87    89   ar
   113    83    82    1
   114    83    86    1
   115    54    53    1
   116    54    55    1
   117    47    53   am
   118    47    46    1
   119    93    95   ar
   120    69    71   ar
   121    69    67   ar
   122    32    33    1
   123    32    31    1
   124    82    80   am
   125    71    70   ar
   126    46    45    1
   127    22    23    1
   128    89    92   ar
   129    39    38    1
   130    39    40    1
   131    23    24    1
   132    37    31    1
   133    34    33    2
   134    55    56    2
   135    67    66   ar
   136    95    94   ar
   137    80    79    1
   138    80    81    2
   139    70    68   ar
   140    40    41    2
   141    25    24    2
   142    79    78    1
   143    92    94   ar
   144    78    74   am
   145    64    63    2
   146    66    68   ar
   147    66    65    1
   148    74    73    1
   149    74    75    2
   150    73    72    1
   151    73    76    1
   152    63    72   am
   153    63    62    1
   154    76    77    1
   155    65    62    1
   156    62    61    1
