@<TRIPOS>MOLECULE
tmp/3n6gB02.pdb
 191 186 0 0 0
SMALL
GASTEIGER

@<TRIPOS>ATOM
      1  N          6.2530   -2.1380   55.5040 N.3    38  VAL38      -0.1231
      2  CA         5.7070   -1.7300   56.7860 C.3    38  VAL38       0.1692
      3  C          6.3260   -2.5320   57.9360 C.2    38  VAL38       0.2591
      4  O          6.7760   -1.9550   58.9130 O.2    38  VAL38      -0.2718
      5  CB         4.1680   -1.8980   56.8070 C.3    38  VAL38       0.0266
      6  CG1        3.6280   -1.5810   58.1760 C.3    38  VAL38       0.0020
      7  CG2        3.5170   -1.0380   55.7240 C.3    38  VAL38       0.0020
      8  N          6.2900   -3.8580   57.8350 N.am   39  LEU39      -0.1980
      9  CA         7.0300   -4.7280   58.7520 C.3    39  LEU39       0.1596
     10  C          7.8700   -5.6820   57.9350 C.2    39  LEU39       0.2287
     11  O          7.3620   -6.6690   57.3890 O.2    39  LEU39      -0.2864
     12  CB         6.1440   -5.4980   59.7440 C.3    39  LEU39       0.0297
     13  CG         4.6800   -5.8320   59.4700 C.3    39  LEU39       0.0022
     14  CD1        4.2810   -7.1790   60.0670 C.3    39  LEU39       0.0001
     15  CD2        3.8140   -4.7450   60.0380 C.3    39  LEU39       0.0001
     16  N          9.5140    6.9230   62.0300 N.3   107  ARG107     -0.1245
     17  CA         8.2020    7.1580   61.4250 C.3   107  ARG107      0.1563
     18  C          7.3790    8.2460   62.1040 C.2   107  ARG107      0.2260
     19  O          6.1900    8.4300   61.7690 O.2   107  ARG107     -0.2867
     20  CB         7.4050    5.8350   61.3540 C.3   107  ARG107      0.0307
     21  CG         8.1010    4.8330   60.4420 C.3   107  ARG107      0.0489
     22  CD         7.4790    3.5030   60.4200 C.3   107  ARG107      0.2205
     23  NE         8.0150    2.7180   59.3120 N.pl3 107  ARG107     -0.0865
     24  CZ         7.6300    1.4770   59.0070 C.cat 107  ARG107      0.5346
     25  NH1        6.7020    0.8640   59.7140 N.pl3 107  ARG107      0.1354
     26  NH2        8.1840    0.8410   57.9890 N.pl3 107  ARG107      0.1354
     27  N         -4.5810   -2.5370   70.1550 N.3   170  SER170     -0.1202
     28  CA        -3.4530   -1.8930   69.4880 C.3   170  SER170      0.2020
     29  C         -3.3650   -0.4330   69.8970 C.2   170  SER170      0.2618
     30  O         -2.3000    0.1490   69.9000 O.2   170  SER170     -0.2717
     31  CB        -3.5480   -2.0280   67.9690 C.3   170  SER170      0.2103
     32  OG        -4.6560   -1.3000   67.5040 O.3   170  SER170     -0.2182
     33  N         -4.5100    0.1450   70.2420 N.am  171  GLN171     -0.1979
     34  CA        -4.5400    1.4810   70.8190 C.3   171  GLN171      0.1601
     35  C         -5.4500    1.4610   72.0250 C.2   171  GLN171      0.2287
     36  O         -6.4370    0.6830   72.0650 O.2   171  GLN171     -0.2864
     37  CB        -5.0800    2.5110   69.8170 C.3   171  GLN171      0.0394
     38  CG        -4.2130    2.8150   68.6000 C.3   171  GLN171      0.0908
     39  CD        -4.9460    3.7450   67.5920 C.2   171  GLN171      0.2608
     40  OE1       -5.6080    4.7380   67.9800 O.2   171  GLN171     -0.2717
     41  NE2       -4.8360    3.4140   66.2990 N.am  171  GLN171     -0.0878
     42  N        -10.0870    2.8550   70.5990 N.3   174  ARG174     -0.1245
     43  CA       -10.3370    2.3670   69.2400 C.3   174  ARG174      0.1563
     44  C        -11.8210    2.0590   69.1360 C.2   174  ARG174      0.2260
     45  O        -12.4580    1.7320   70.1460 O.2   174  ARG174     -0.2867
     46  CB        -9.6540    1.0270   69.0190 C.3   174  ARG174      0.0307
     47  CG        -8.1610    1.0460   68.8820 C.3   174  ARG174      0.0489
     48  CD        -7.8240    0.7410   67.4740 C.3   174  ARG174      0.2205
     49  NE        -7.7770    1.9630   66.7130 N.pl3 174  ARG174     -0.0865
     50  CZ        -7.3830    2.0340   65.4530 C.cat 174  ARG174      0.5346
     51  NH1       -7.0050    0.9310   64.8030 N.pl3 174  ARG174      0.1354
     52  NH2       -7.3760    3.2310   64.8510 N.pl3 174  ARG174      0.1354
     53  N         -4.6840    9.7220   70.6980 N.3   258  PRO258     -0.2116
     54  CA        -4.0810    8.6350   69.9680 C.3   258  PRO258      0.1372
     55  C         -3.0380    7.9770   70.8780 C.2   258  PRO258      0.2244
     56  O         -2.0090    8.5800   71.1760 O.2   258  PRO258     -0.2868
     57  CB        -3.4310    9.3440   68.7660 C.3   258  PRO258      0.0268
     58  CG        -2.9800   10.6630   69.3280 C.3   258  PRO258      0.0207
     59  CD        -4.0150   11.0080   70.4300 C.3   258  PRO258      0.0892
     60  N         -0.7880    4.5520   71.4080 N.3   260  VAL260     -0.1245
     61  CA        -0.3240    3.2550   70.9080 C.3   260  VAL260      0.1561
     62  C         -0.0310    2.3460   72.0880 C.2   260  VAL260      0.2260
     63  O          0.6690    2.7570   73.0020 O.2   260  VAL260     -0.2867
     64  CB         0.9300    3.3940   69.9830 C.3   260  VAL260      0.0252
     65  CG1        1.4800    2.0130   69.5850 C.3   260  VAL260      0.0019
     66  CG2        0.5330    4.1920   68.6960 C.3   260  VAL260      0.0019
     67  N          0.3480   -1.4440   71.6310 N.3   262  ASN262     -0.1225
     68  CA         0.9050   -2.7520   71.2140 C.3   262  ASN262      0.1785
     69  C          2.4050   -2.7560   70.9110 C.2   262  ASN262      0.2597
     70  O          2.9470   -3.7550   70.4090 O.2   262  ASN262     -0.2718
     71  CB         0.1590   -3.3120   70.0080 C.3   262  ASN262      0.1169
     72  CG         0.3520   -2.4750   68.7310 C.2   262  ASN262      0.2627
     73  OD1       -0.1020   -2.8750   67.6450 O.2   262  ASN262     -0.2716
     74  ND2        0.9800   -1.3130   68.8480 N.am  262  ASN262     -0.0877
     75  N          3.0670   -1.6320   71.1340 N.am  263  MET263     -0.1979
     76  CA         4.4850   -1.5610   70.7700 C.3   263  MET263      0.1605
     77  C          5.3910   -1.9300   71.9260 C.2   263  MET263      0.2287
     78  O          5.0210   -1.8020   73.0900 O.2   263  MET263     -0.2864
     79  CB         4.8490   -0.2000   70.1510 C.3   263  MET263      0.0413
     80  CG         4.2570   -0.0200   68.7190 C.3   263  MET263      0.0598
     81  SD         5.0470    1.3000   67.7860 S.3   263  MET263     -0.1393
     82  CE         6.4770    0.4690   67.1810 C.3   263  MET263      0.0692
     83  N          1.8050    4.6930   74.8530 N.3   277  PHE277     -0.1227
     84  CA         2.2150    6.0860   74.7940 C.3   277  PHE277      0.1736
     85  C          1.1990    6.8530   73.9940 C.2   277  PHE277      0.2596
     86  O          0.4600    6.2730   73.2070 O.2   277  PHE277     -0.2718
     87  CB         3.6140    6.2330   74.2090 C.3   277  PHE277      0.0547
     88  CG         3.7960    5.5550   72.8790 C.ar  277  PHE277     -0.0202
     89  CD1        3.5300    6.2450   71.6880 C.ar  277  PHE277     -0.0042
     90  CD2        4.2550    4.2320   72.8060 C.ar  277  PHE277     -0.0042
     91  CE1        3.7070    5.6280   70.4490 C.ar  277  PHE277     -0.0003
     92  CE2        4.4270    3.5990   71.5740 C.ar  277  PHE277     -0.0003
     93  CZ         4.1570    4.3000   70.3890 C.ar  277  PHE277     -0.0000
     94  N          1.1430    8.1610   74.2250 N.am  278  SER278     -0.1938
     95  CA         0.1850    9.0080   73.5230 C.3   278  SER278      0.2055
     96  C          0.7160   10.4310   73.3860 C.2   278  SER278      0.2644
     97  O          1.6000   10.8580   74.1520 O.2   278  SER278     -0.2714
     98  CB        -1.1820    8.9740   74.2250 C.3   278  SER278      0.2130
     99  OG        -1.0980    9.4680   75.5390 O.3   278  SER278     -0.2179
    100  N          0.2170   11.1280   72.3690 N.am  279  GLY279     -0.1939
    101  CA         0.4060   12.5630   72.2130 C.3   279  GLY279      0.2014
    102  C         -0.9130   13.1430   71.7240 C.2   279  GLY279      0.2639
    103  O         -1.9740   12.9670   72.3520 O.2   279  GLY279     -0.2714
    104  N         -0.8550   13.8420   70.5910 N.am  280  TRP280     -0.1959
    105  CA        -2.0660   14.3830   69.9960 C.3   280  TRP280      0.1771
    106  C         -2.0570   14.0820   68.4950 C.2   280  TRP280      0.2620
    107  O         -1.0080   13.8180   67.9160 O.2   280  TRP280     -0.2715
    108  CB        -2.2460   15.8900   70.3110 C.3   280  TRP280      0.0590
    109  CG        -1.0690   16.7800   69.9190 C.ar  280  TRP280      0.0006
    110  CD1       -0.7740   17.2360   68.6630 C.ar  280  TRP280      0.0946
    111  CD2       -0.0380   17.2980   70.7860 C.ar  280  TRP280      0.0152
    112  NE1        0.3770   17.9970   68.6850 N.ar  280  TRP280     -0.2442
    113  CE2        0.8510   18.0560   69.9720 C.ar  280  TRP280      0.0810
    114  CE3        0.2270   17.1920   72.1730 C.ar  280  TRP280      0.0012
    115  CZ2        1.9860   18.7260   70.5000 C.ar  280  TRP280      0.0191
    116  CZ3        1.3580   17.8500   72.7030 C.ar  280  TRP280      0.0001
    117  CH2        2.2240   18.6120   71.8600 C.ar  280  TRP280      0.0015
    118  N         -3.2320   14.1310   67.8870 N.am  281  TYR281     -0.1960
    119  CA        -3.3970   13.8110   66.4790 C.3   281  TYR281      0.1771
    120  C         -2.8630   14.8930   65.5650 C.2   281  TYR281      0.2619
    121  O         -2.9140   16.0820   65.8840 O.2   281  TYR281     -0.2715
    122  CB        -4.8820   13.6170   66.1610 C.3   281  TYR281      0.0574
    123  CG        -5.3200   12.1920   66.2680 C.ar  281  TYR281     -0.0198
    124  CD1       -4.7850   11.2410   65.4100 C.ar  281  TYR281     -0.0009
    125  CD2       -6.2780   11.7950   67.2070 C.ar  281  TYR281     -0.0009
    126  CE1       -5.1480    9.9330   65.4730 C.ar  281  TYR281      0.0417
    127  CE2       -6.6830   10.4640   67.2740 C.ar  281  TYR281      0.0417
    128  CZ        -6.1160    9.5390   66.4020 C.ar  281  TYR281      0.1957
    129  OH        -6.4620    8.2030   66.4300 O.3   281  TYR281     -0.2866
    130  N         -2.3170   14.4450   64.4440 N.am  282  MET282     -0.1977
    131  CA        -2.1910   15.2510   63.2360 C.3   282  MET282      0.1605
    132  C         -3.4870   14.9640   62.4560 C.2   282  MET282      0.2287
    133  O         -3.8950   13.8230   62.3150 O.2   282  MET282     -0.2864
    134  CB        -0.9460   14.8510   62.4410 C.3   282  MET282      0.0413
    135  CG        -0.7830   15.6310   61.1360 C.3   282  MET282      0.0598
    136  SD         0.8560   15.4530   60.4010 S.3   282  MET282     -0.1393
    137  CE         0.7440   13.8860   59.5380 C.3   282  MET282      0.0692
    138  N         -4.3010   11.9520   59.9630 N.3   285  GLU285     -0.1245
    139  CA        -4.5560   10.6100   60.4940 C.3   285  GLU285      0.1567
    140  C         -6.0420   10.2790   60.5240 C.2   285  GLU285      0.2260
    141  O         -6.4400    9.1830   60.0890 O.2   285  GLU285     -0.2867
    142  CB        -3.9880   10.4760   61.8880 C.3   285  GLU285      0.0388
    143  CG        -2.4730   10.6460   61.9160 C.3   285  GLU285      0.1160
    144  CD        -1.9400   10.4700   63.3150 C.2   285  GLU285      0.3649
    145  OE1       -1.9060    9.3040   63.7610 O.co2 285  GLU285     -0.2457
    146  OE2       -1.5730   11.4850   63.9640 O.co2 285  GLU285     -0.2457
    147  N         -8.0960    7.3640   58.5920 N.3   290  ASP290     -0.1239
    148  CA        -9.1740    6.7270   59.3520 C.3   290  ASP290      0.1674
    149  C        -10.5220    6.8360   58.6640 C.2   290  ASP290      0.2266
    150  O        -11.2880    5.8740   58.6620 O.2   290  ASP290     -0.2867
    151  CB        -9.2660    7.2850   60.7930 C.3   290  ASP290      0.1410
    152  CG        -8.0110    6.9810   61.6240 C.2   290  ASP290      0.3668
    153  OD1       -7.2660    6.0550   61.2420 O.co2 290  ASP290     -0.2456
    154  OD2       -7.7710    7.6540   62.6520 O.co2 290  ASP290     -0.2456
    155  N        -11.0380    1.2120   55.6070 N.3   296  ARG296     -0.1245
    156  CA       -11.4610    1.7900   56.8920 C.3   296  ARG296      0.1563
    157  C        -12.9180    2.2600   56.8220 C.2   296  ARG296      0.2260
    158  O        -13.7620    1.5340   56.3060 O.2   296  ARG296     -0.2867
    159  CB       -10.5070    2.9050   57.3250 C.3   296  ARG296      0.0307
    160  CG        -9.0140    2.4600   57.4170 C.3   296  ARG296      0.0489
    161  CD        -8.7310    1.4610   58.5400 C.3   296  ARG296      0.2205
    162  NE        -9.1450    1.9680   59.8510 N.pl3 296  ARG296     -0.0865
    163  CZ        -8.5000    2.9000   60.5560 C.cat 296  ARG296      0.5346
    164  NH1       -7.3620    3.4570   60.1030 N.pl3 296  ARG296      0.1354
    165  NH2       -9.0030    3.2820   61.7300 N.pl3 296  ARG296      0.1354
    166  N          6.6690    7.6520   55.6150 N.3   371  TRP371     -0.1241
    167  CA         5.8180    7.8630   56.7750 C.3   371  TRP371      0.1605
    168  C          5.7940    9.3210   57.1930 C.2   371  TRP371      0.2264
    169  O          4.7950    9.7910   57.7240 O.2   371  TRP371     -0.2867
    170  CB         6.2450    6.9690   57.9480 C.3   371  TRP371      0.0550
    171  CG         5.6950    5.5710   57.8330 C.ar  371  TRP371      0.0003
    172  CD1        5.9900    4.6710   56.8760 C.ar  371  TRP371      0.0946
    173  CD2        4.7460    4.9380   58.7060 C.ar  371  TRP371      0.0152
    174  NE1        5.2930    3.5130   57.0790 N.ar  371  TRP371     -0.2442
    175  CE2        4.5120    3.6470   58.1930 C.ar  371  TRP371      0.0810
    176  CE3        4.0570    5.3440   59.8660 C.ar  371  TRP371      0.0012
    177  CZ2        3.6280    2.7350   58.7990 C.ar  371  TRP371      0.0191
    178  CZ3        3.1720    4.4280   60.4810 C.ar  371  TRP371      0.0001
    179  CH2        2.9730    3.1370   59.9390 C.ar  371  TRP371      0.0015
    180  N          7.8420   -3.0570   66.7080 N.3   399  TYR399     -0.1241
    181  CA         6.6790   -3.8910   66.4990 C.3   399  TYR399      0.1605
    182  C          6.8630   -5.2150   67.2090 C.2   399  TYR399      0.2264
    183  O          7.9900   -5.7240   67.3490 O.2   399  TYR399     -0.2867
    184  CB         6.4560   -4.1500   65.0140 C.3   399  TYR399      0.0534
    185  CG         6.3880   -2.8890   64.2230 C.ar  399  TYR399     -0.0201
    186  CD1        5.5420   -1.8680   64.6070 C.ar  399  TYR399     -0.0009
    187  CD2        7.1780   -2.7110   63.0960 C.ar  399  TYR399     -0.0009
    188  CE1        5.4900   -0.7010   63.8940 C.ar  399  TYR399      0.0417
    189  CE2        7.1280   -1.5580   62.3670 C.ar  399  TYR399      0.0417
    190  CZ         6.2900   -0.5500   62.7660 C.ar  399  TYR399      0.1957
    191  OH         6.2360    0.6200   62.0360 O.3   399  TYR399     -0.2866
@<TRIPOS>BOND
     1     1     2    1
     2   155   156    1
     3   166   167    1
     4     7     5    1
     5   158   157    2
     6   167   168    1
     7   167   170    1
     8     2     5    1
     9     2     3    1
    10     5     6    1
    11   157   156    1
    12   172   174   ar
    13   172   171   ar
    14   156   159    1
    15   174   175   ar
    16   168   169    2
    17   159   160    1
    18    11    10    2
    19   160   161    1
    20   171   170    1
    21   171   173   ar
    22     8     3   am
    23     8     9    1
    24    10     9    1
    25     3     4    2
    26    26    24    1
    27   175   173   ar
    28   175   177   ar
    29   161   162    1
    30   147   148    1
    31   150   149    2
    32   149   148    1
    33   173   176   ar
    34     9    12    1
    35   177   179   ar
    36    24    23    2
    37    24    25    1
    38    23    22    1
    39   148   151    1
    40    13    12    1
    41    13    15    1
    42    13    14    1
    43   137   136    1
    44   162   163    2
    45   176   178   ar
    46   179   178   ar
    47   138   139    1
    48   141   140    2
    49   164   163    1
    50   136   135    1
    51    22    21    1
    52    21    20    1
    53   139   140    1
    54   139   142    1
    55   163   165    1
    56   151   152    1
    57   135   134    1
    58   153   152   ar
    59    20    17    1
    60    17    16    1
    61    17    18    1
    62   152   154   ar
    63    19    18    2
    64   142   143    1
    65   143   144    1
    66   191   190    1
    67   133   132    2
    68   189   190   ar
    69   189   187   ar
    70   134   131    1
    71   132   131    1
    72   190   188   ar
    73   187   185   ar
    74   131   130    1
    75   144   145   ar
    76   144   146   ar
    77   188   186   ar
    78   185   186   ar
    79   185   184    1
    80   130   120   am
    81    51    50    1
    82    52    50    1
    83   184   181    1
    84   124   126   ar
    85   124   123   ar
    86    50    49    2
    87   126   128   ar
    88   120   121    2
    89   120   119    1
    90   122   123    1
    91   122   119    1
    92   123   125   ar
    93    41    39   am
    94   128   129    1
    95   128   127   ar
    96   119   118    1
    97   181   180    1
    98   181   182    1
    99    49    48    1
   100    82    81    1
   101   125   127   ar
   102   182   183    2
   103    48    47    1
   104    32    31    1
   105    39    40    2
   106    39    38    1
   107    73    72    2
   108    81    80    1
   109   118   106   am
   110   107   106    2
   111    31    28    1
   112   106   105    1
   113    38    37    1
   114   110   112   ar
   115   110   109   ar
   116   112   113   ar
   117    66    64    1
   118    80    79    1
   119    72    74   am
   120    72    71    1
   121    57    58    1
   122    57    54    1
   123    47    46    1
   124    46    43    1
   125    44    43    1
   126    44    45    2
   127    43    42    1
   128    58    59    1
   129    28    29    1
   130    28    27    1
   131    65    64    1
   132    37    34    1
   133    29    30    2
   134    29    33   am
   135   109   108    1
   136   109   111   ar
   137    54    53    1
   138    54    55    1
   139   113   115   ar
   140   113   111   ar
   141    64    61    1
   142   105   108    1
   143   105   104    1
   144    71    68    1
   145    79    76    1
   146    33    34    1
   147    93    91   ar
   148    93    92   ar
   149    70    69    2
   150    59    53    1
   151    91    89   ar
   152   115   117   ar
   153   104   102   am
   154    76    75    1
   155    76    77    1
   156   111   114   ar
   157    34    35    1
   158    55    56    2
   159    61    60    1
   160    61    62    1
   161    69    75   am
   162    69    68    1
   163    68    67    1
   164    92    90   ar
   165    89    88   ar
   166   102   101    1
   167   102   103    2
   168   117   116   ar
   169    77    78    2
   170    35    36    2
   171    62    63    2
   172   114   116   ar
   173   101   100    1
   174   100    96   am
   175    90    88   ar
   176    88    87    1
   177    86    85    2
   178    96    95    1
   179    96    97    2
   180    95    98    1
   181    95    94    1
   182    85    94   am
   183    85    84    1
   184    87    84    1
   185    98    99    1
   186    84    83    1
