@<TRIPOS>MOLECULE
tmp/3n6iA00.pdb
 103 95 0 0 0
SMALL
GASTEIGER

@<TRIPOS>ATOM
      1  N        -17.8560  -12.4990    4.0140 N.3    41  CYS41      -0.1221
      2  CA       -16.3900  -12.3920    4.1250 C.3    41  CYS41       0.1808
      3  C        -15.9910  -11.9800    5.5560 C.2    41  CYS41       0.2601
      4  O        -16.6380  -12.4040    6.5030 O.2    41  CYS41      -0.2717
      5  CB       -15.8180  -11.4950    3.0210 C.3    41  CYS41       0.0970
      6  SG       -16.3480  -12.0440    1.3480 S.3    41  CYS41      -0.0800
      7  N        -14.9450  -11.1700    5.7310 N.am   42  SER42      -0.1952
      8  CA       -14.4390  -10.8490    7.0710 C.3    42  SER42       0.1924
      9  C        -15.3370   -9.9510    7.8960 C.2    42  SER42       0.2314
     10  O        -15.0190   -9.6790    9.0650 O.2    42  SER42      -0.2863
     11  CB       -13.0940  -10.1340    6.9700 C.3    42  SER42       0.2116
     12  OG       -12.0600  -11.0650    6.6590 O.3    42  SER42      -0.2180
     13  N        -16.4430  -10.7220   11.5710 N.3    45  LYS45      -0.1245
     14  CA       -15.5480  -10.5650   12.7220 C.3    45  LYS45       0.1561
     15  C        -16.0010   -9.4830   13.7050 C.2    45  LYS45       0.2260
     16  O        -15.6530   -9.5400   14.8770 O.2    45  LYS45      -0.2867
     17  CB       -14.0900  -10.3260   12.2930 C.3    45  LYS45       0.0271
     18  CG       -13.5140  -11.4970   11.4720 C.3    45  LYS45       0.0035
     19  CD       -12.1670  -11.1410   10.8450 C.3    45  LYS45       0.0206
     20  CE       -11.8570  -12.1280    9.7180 C.3    45  LYS45       0.1093
     21  NZ       -10.6290  -11.7360    8.9930 N.3    45  LYS45      -0.1314
     22  N         -5.0150  -15.3950    5.3970 N.3    75  ILE75      -0.1245
     23  CA        -4.2960  -14.1410    5.5750 C.3    75  ILE75       0.1561
     24  C         -4.3650  -13.7970    7.0560 C.2    75  ILE75       0.2260
     25  O         -5.4660  -13.6600    7.6230 O.2    75  ILE75      -0.2867
     26  CB        -4.9020  -12.9930    4.6900 C.3    75  ILE75       0.0252
     27  CG1       -4.7950  -13.3430    3.1910 C.3    75  ILE75       0.0019
     28  CG2       -4.1820  -11.6540    4.9950 C.3    75  ILE75       0.0019
     29  CD1       -5.8590  -12.6620    2.2540 C.3    75  ILE75       0.0001
     30  N         -6.7840   -5.8070   11.6410 N.3    99  TYR99      -0.1227
     31  CA        -6.0080   -6.3780   10.5440 C.3    99  TYR99       0.1736
     32  C         -6.7510   -7.4570    9.7790 C.2    99  TYR99       0.2596
     33  O         -6.2060   -8.0370    8.8410 O.2    99  TYR99      -0.2718
     34  CB        -4.6820   -6.9160   11.0630 C.3    99  TYR99       0.0548
     35  CG        -3.7510   -5.7870   11.4260 C.ar   99  TYR99      -0.0200
     36  CD1       -3.6920   -5.2970   12.7340 C.ar   99  TYR99      -0.0009
     37  CD2       -2.9870   -5.1610   10.4420 C.ar   99  TYR99      -0.0009
     38  CE1       -2.8390   -4.2340   13.0670 C.ar   99  TYR99       0.0417
     39  CE2       -2.1290   -4.1090   10.7610 C.ar   99  TYR99       0.0417
     40  CZ        -2.0700   -3.6480   12.0610 C.ar   99  TYR99       0.1957
     41  OH        -1.2400   -2.6020   12.3540 O.3    99  TYR99      -0.2866
     42  N         -8.0010   -7.7010   10.1660 N.am  100  SER100     -0.1952
     43  CA        -8.8170   -8.7660    9.6030 C.3   100  SER100      0.1924
     44  C         -8.0330  -10.0790    9.5640 C.2   100  SER100      0.2314
     45  O         -7.9870  -10.7820    8.5500 O.2   100  SER100     -0.2863
     46  CB        -9.3160   -8.3760    8.2210 C.3   100  SER100      0.2116
     47  OG       -10.5870   -8.9500    8.0020 O.3   100  SER100     -0.2180
     48  N         -7.2430  -13.6950    9.8460 N.3   102  GLY102     -0.1225
     49  CA        -8.1110  -14.8570    9.6470 C.3   102  GLY102      0.1811
     50  C         -7.8750  -15.9160   10.7070 C.2   102  GLY102      0.2280
     51  O         -8.8250  -16.5440   11.2110 O.2   102  GLY102     -0.2866
     52  N        -14.9740  -19.8200    4.0720 N.3   143  LEU143     -0.1231
     53  CA       -16.1480  -18.9380    4.1240 C.3   143  LEU143      0.1693
     54  C        -16.2040  -17.8870    3.0180 C.2   143  LEU143      0.2592
     55  O        -17.2760  -17.3500    2.7580 O.2   143  LEU143     -0.2718
     56  CB       -16.2780  -18.2770    5.5070 C.3   143  LEU143      0.0284
     57  CG       -15.4670  -17.0800    6.0370 C.3   143  LEU143      0.0019
     58  CD1      -13.9640  -17.1460    5.7800 C.3   143  LEU143      0.0001
     59  CD2      -16.0330  -15.7710    5.5550 C.3   143  LEU143      0.0001
     60  N        -15.0690  -17.6100    2.3650 N.am  144  ASN144     -0.1974
     61  CA       -15.0140  -16.6260    1.2610 C.3   144  ASN144      0.1688
     62  C        -15.2110  -17.2020   -0.1450 C.2   144  ASN144      0.2292
     63  O        -15.2230  -16.4410   -1.1370 O.2   144  ASN144     -0.2864
     64  CB       -13.6840  -15.8610    1.2950 C.3   144  ASN144      0.1181
     65  CG       -13.4200  -15.2070    2.6510 C.2   144  ASN144      0.2629
     66  OD1      -14.3280  -14.6510    3.2600 O.2   144  ASN144     -0.2716
     67  ND2      -12.1800  -15.2730    3.1210 N.am  144  ASN144     -0.0877
     68  N         -7.7810   -1.3710    7.6690 N.3   190  THR190     -0.1218
     69  CA        -7.9990   -1.9620    6.3380 C.3   190  THR190      0.1862
     70  C         -9.0450   -1.2070    5.5150 C.2   190  THR190      0.2287
     71  O         -9.3820   -1.6290    4.3980 O.2   190  THR190     -0.2866
     72  CB        -8.4640   -3.4220    6.4490 C.3   190  THR190      0.1770
     73  OG1       -9.7190   -3.4640    7.1320 O.3   190  THR190     -0.2211
     74  CG2       -7.4370   -4.3040    7.1870 C.3   190  THR190      0.0375
     75  N        -12.4860    2.5240    1.3560 N.3   194  ARG194     -0.1245
     76  CA       -13.8770    2.1190    1.2370 C.3   194  ARG194      0.1563
     77  C        -14.8170    3.1890    1.7810 C.2   194  ARG194      0.2260
     78  O        -14.8020    4.3140    1.2720 O.2   194  ARG194     -0.2867
     79  CB       -14.0980    0.6870    1.7730 C.3   194  ARG194      0.0307
     80  CG       -13.2210   -0.2930    0.9770 C.3   194  ARG194      0.0489
     81  CD       -13.3060   -1.7280    1.4120 C.3   194  ARG194      0.2205
     82  NE       -12.2950   -2.5460    0.7480 N.pl3 194  ARG194     -0.0865
     83  CZ       -12.3350   -3.8820    0.6790 C.cat 194  ARG194      0.5346
     84  NH1      -11.3560   -4.5440    0.0750 N.pl3 194  ARG194      0.1354
     85  NH2      -13.3530   -4.5530    1.2060 N.pl3 194  ARG194      0.1354
     86  N        -14.1270   -4.2860    7.2160 N.3   209  THR209     -0.1203
     87  CA       -14.1450   -4.6700    5.8010 C.3   209  THR209      0.1994
     88  C        -14.2410   -6.1790    5.6260 C.2   209  THR209      0.2618
     89  O        -14.0650   -6.9420    6.5790 O.2   209  THR209     -0.2717
     90  CB       -12.8550   -4.1510    5.0850 C.3   209  THR209      0.1784
     91  OG1      -11.6940   -4.6040    5.7910 O.3   209  THR209     -0.2211
     92  CG2      -12.8380   -2.6190    5.0490 C.3   209  THR209      0.0376
     93  N        -14.5360   -6.6100    4.4010 N.am  210  GLY210     -0.1942
     94  CA       -14.3750   -7.9990    4.0260 C.3   210  GLY210      0.2014
     95  C        -14.0460   -8.0540    2.5460 C.2   210  GLY210      0.2639
     96  O        -14.5140   -7.2080    1.7530 O.2   210  GLY210     -0.2714
     97  N        -13.2190   -9.0290    2.1780 N.am  211  THR211     -0.1950
     98  CA       -12.8580   -9.2680    0.7850 C.3   211  THR211      0.1897
     99  C        -12.8670  -10.7840    0.5640 C.2   211  THR211      0.2313
    100  O        -12.5000  -11.5430    1.4630 O.2   211  THR211     -0.2863
    101  CB       -11.4550   -8.6840    0.4590 C.3   211  THR211      0.1794
    102  OG1      -11.4140   -7.2970    0.8560 O.3   211  THR211     -0.2208
    103  CG2      -11.1450   -8.8250   -1.0450 C.3   211  THR211      0.0378
@<TRIPOS>BOND
     1    63    62    2
     2   103   101    1
     3    62    61    1
     4    84    83    1
     5   101    98    1
     6   101   102    1
     7    99    98    1
     8    99   100    2
     9    83    82    2
    10    83    85    1
    11    82    81    1
    12    98    97    1
    13    80    81    1
    14    80    79    1
    15    76    75    1
    16    76    79    1
    17    76    77    1
    18    61    64    1
    19    61    60    1
    20    78    77    2
    21    64    65    1
    22     6     5    1
    23    96    95    2
    24    97    95   am
    25    29    27    1
    26    60    54   am
    27    95    94    1
    28    65    67   am
    29    65    66    2
    30    55    54    2
    31    54    53    1
    32     5     2    1
    33    27    26    1
    34     1     2    1
    35    94    93    1
    36    52    53    1
    37    53    56    1
    38     2     3    1
    39    71    70    2
    40    93    88   am
    41    26    28    1
    42    26    23    1
    43    92    90    1
    44    90    91    1
    45    90    87    1
    46    22    23    1
    47    56    57    1
    48    70    69    1
    49    59    57    1
    50     3     7   am
    51     3     4    2
    52    23    24    1
    53    88    87    1
    54    88    89    2
    55     7     8    1
    56    58    57    1
    57    87    86    1
    58    69    72    1
    59    69    68    1
    60    72    73    1
    61    72    74    1
    62    12    11    1
    63    11     8    1
    64    24    25    2
    65     8     9    1
    66     9    10    2
    67    47    46    1
    68    46    43    1
    69    45    44    2
    70    33    32    2
    71    21    20    1
    72    44    43    1
    73    43    42    1
    74    49    48    1
    75    49    50    1
    76    20    19    1
    77    32    42   am
    78    32    31    1
    79    37    39   ar
    80    37    35   ar
    81    31    34    1
    82    31    30    1
    83    50    51    2
    84    39    40   ar
    85    19    18    1
    86    34    35    1
    87    35    36   ar
    88    18    17    1
    89    13    14    1
    90    40    41    1
    91    40    38   ar
    92    17    14    1
    93    14    15    1
    94    36    38   ar
    95    15    16    2
