@<TRIPOS>MOLECULE
tmp/3n6kA00.pdb
 116 110 0 0 0
SMALL
GASTEIGER

@<TRIPOS>ATOM
      1  N         -8.2180   73.1720   22.3470 N.3     1  TYR1       -0.1241
      2  CA        -6.9330   73.9280   22.3380 C.3     1  TYR1        0.1605
      3  C         -6.0420   73.4100   21.2220 C.2     1  TYR1        0.2264
      4  O         -5.4910   74.1830   20.4420 O.2     1  TYR1       -0.2867
      5  CB        -6.2100   73.7700   23.6820 C.3     1  TYR1        0.0534
      6  CG        -4.9490   74.6100   23.8280 C.ar    1  TYR1       -0.0201
      7  CD1       -5.0240   75.9740   24.0800 C.ar    1  TYR1       -0.0009
      8  CD2       -3.6880   74.0340   23.7420 C.ar    1  TYR1       -0.0009
      9  CE1       -3.8830   76.7380   24.2440 C.ar    1  TYR1        0.0417
     10  CE2       -2.5420   74.7930   23.9050 C.ar    1  TYR1        0.0417
     11  CZ        -2.6480   76.1430   24.1570 C.ar    1  TYR1        0.1957
     12  OH        -1.5160   76.9040   24.3350 O.3     1  TYR1       -0.2866
     13  N          6.4480   73.1860   20.7080 N.3    48  LYS48      -0.1245
     14  CA         5.0290   73.0330   21.0240 C.3    48  LYS48       0.1561
     15  C          4.1990   74.2970   20.7780 C.2    48  LYS48       0.2260
     16  O          2.9700   74.2600   20.8580 O.2    48  LYS48      -0.2867
     17  CB         4.8620   72.5840   22.4750 C.3    48  LYS48       0.0271
     18  CG         5.6350   71.3250   22.8370 C.3    48  LYS48       0.0035
     19  CD         4.9600   70.6200   24.0090 C.3    48  LYS48       0.0206
     20  CE         5.9210   69.7210   24.7760 C.3    48  LYS48       0.1093
     21  NZ         6.8800   70.5240   25.5810 N.3    48  LYS48      -0.1314
     22  N          3.4560   76.8080   22.3650 N.3    50  ASN50      -0.1225
     23  CA         2.5380   77.2210   23.4190 C.3    50  ASN50       0.1785
     24  C          2.6170   78.6970   23.7760 C.2    50  ASN50       0.2597
     25  O          1.5970   79.3200   24.0480 O.2    50  ASN50      -0.2718
     26  CB         2.7540   76.3600   24.6660 C.3    50  ASN50       0.1169
     27  CG         2.2950   74.9230   24.4620 C.2    50  ASN50       0.2627
     28  OD1        1.2480   74.6740   23.8580 O.2    50  ASN50      -0.2716
     29  ND2        3.0860   73.9720   24.9420 N.am   50  ASN50      -0.0877
     30  N          3.8080   79.2740   23.7710 N.am   51  ARG51      -0.1979
     31  CA         3.9330   80.6810   24.0980 C.3    51  ARG51       0.1597
     32  C          3.2370   81.5630   23.0720 C.2    51  ARG51       0.2287
     33  O          2.4400   82.4390   23.4320 O.2    51  ARG51      -0.2864
     34  CB         5.3940   81.0930   24.1900 C.3    51  ARG51       0.0334
     35  CG         6.0950   80.6160   25.4380 C.3    51  ARG51       0.0492
     36  CD         7.5790   80.7160   25.2360 C.3    51  ARG51       0.2205
     37  NE         8.3080   80.0960   26.3190 N.pl3  51  ARG51      -0.0865
     38  CZ         8.4540   78.7850   26.4640 C.cat  51  ARG51       0.5346
     39  NH1        7.9150   77.9410   25.5880 N.pl3  51  ARG51       0.1354
     40  NH2        9.1400   78.3200   27.4890 N.pl3  51  ARG51       0.1354
     41  N         -0.3770   81.2070   23.1210 N.3    54  THR54      -0.1218
     42  CA        -0.9770   81.8620   24.2780 C.3    54  THR54       0.1862
     43  C         -1.3860   83.2860   23.9500 C.2    54  THR54       0.2287
     44  O         -2.3620   83.8110   24.5200 O.2    54  THR54      -0.2866
     45  CB        -0.0060   81.8940   25.4550 C.3    54  THR54       0.1770
     46  OG1        0.1610   80.5730   25.9580 O.3    54  THR54      -0.2211
     47  CG2       -0.5070   82.8060   26.5550 C.3    54  THR54       0.0375
     48  N          8.3220   83.8740   28.9950 N.3   196  SER196     -0.1202
     49  CA         7.5260   82.6750   28.7740 C.3   196  SER196      0.2020
     50  C          6.0590   82.8520   29.1890 C.2   196  SER196      0.2618
     51  O          5.1630   82.2820   28.5690 O.2   196  SER196     -0.2717
     52  CB         8.1440   81.4760   29.5060 C.3   196  SER196      0.2103
     53  OG         9.2870   80.9750   28.8210 O.3   196  SER196     -0.2182
     54  N          5.8240   83.6510   30.2280 N.am  197  PHE197     -0.1975
     55  CA         4.4800   83.8270   30.7670 C.3   197  PHE197      0.1639
     56  C          3.9620   85.2570   30.7570 C.2   197  PHE197      0.2290
     57  O          2.8450   85.5100   30.3120 O.2   197  PHE197     -0.2864
     58  CB         4.4120   83.2480   32.1900 C.3   197  PHE197      0.0560
     59  CG         4.5540   81.7660   32.2140 C.ar  197  PHE197     -0.0200
     60  CD1        5.7900   81.1810   32.3510 C.ar  197  PHE197     -0.0042
     61  CD2        3.4540   80.9530   31.9940 C.ar  197  PHE197     -0.0042
     62  CE1        5.9290   79.8070   32.2580 C.ar  197  PHE197     -0.0003
     63  CE2        3.5960   79.5860   31.9030 C.ar  197  PHE197     -0.0003
     64  CZ         4.8340   79.0190   32.0330 C.ar  197  PHE197     -0.0000
     65  N          3.6310   86.8450   26.5940 N.3   200  PRO200     -0.2116
     66  CA         2.5050   86.4370   25.7500 C.3   200  PRO200      0.1372
     67  C          1.1950   87.1260   26.1250 C.2   200  PRO200      0.2244
     68  O          0.4730   87.6190   25.2600 O.2   200  PRO200     -0.2868
     69  CB         2.4310   84.9260   25.9640 C.3   200  PRO200      0.0268
     70  CG         3.7980   84.5490   26.3890 C.3   200  PRO200      0.0207
     71  CD         4.2990   85.6860   27.2040 C.3   200  PRO200      0.0892
     72  N          6.5570   76.6750   36.8480 N.3   230  PHE230     -0.1241
     73  CA         6.8110   75.9660   35.6030 C.3   230  PHE230      0.1605
     74  C          8.2460   75.4390   35.5500 C.2   230  PHE230      0.2264
     75  O          8.4760   74.2640   35.3010 O.2   230  PHE230     -0.2867
     76  CB         6.5430   76.8990   34.4270 C.3   230  PHE230      0.0534
     77  CG         7.0980   76.4110   33.1410 C.ar  230  PHE230     -0.0203
     78  CD1        6.3880   75.5160   32.3650 C.ar  230  PHE230     -0.0042
     79  CD2        8.3180   76.8680   32.6830 C.ar  230  PHE230     -0.0042
     80  CE1        6.8820   75.0860   31.1470 C.ar  230  PHE230     -0.0003
     81  CE2        8.8170   76.4430   31.4710 C.ar  230  PHE230     -0.0003
     82  CZ         8.0920   75.5480   30.6990 C.ar  230  PHE230     -0.0000
     83  N         -4.1920   78.9580   31.5300 N.3   335  LEU335     -0.1245
     84  CA        -2.7500   78.7260   31.6550 C.3   335  LEU335      0.1561
     85  C         -2.4300   77.7730   32.7940 C.2   335  LEU335      0.2260
     86  O         -1.7240   76.7770   32.6060 O.2   335  LEU335     -0.2867
     87  CB        -2.0010   80.0390   31.9030 C.3   335  LEU335      0.0270
     88  CG        -1.3390   80.7090   30.7040 C.3   335  LEU335      0.0019
     89  CD1       -0.5060   81.8870   31.1870 C.3   335  LEU335      0.0001
     90  CD2       -0.4740   79.7070   29.9660 C.3   335  LEU335      0.0001
     91  N         -2.9800   74.1090   32.2270 N.3   338  LYS338     -0.1231
     92  CA        -2.1130   73.4210   31.2980 C.3   338  LYS338      0.1693
     93  C         -0.7200   73.2230   31.8700 C.2   338  LYS338      0.2591
     94  O         -0.0390   72.2630   31.5230 O.2   338  LYS338     -0.2718
     95  CB        -2.0550   74.1840   29.9720 C.3   338  LYS338      0.0285
     96  CG        -3.2440   73.8980   29.0740 C.3   338  LYS338      0.0035
     97  CD        -3.1140   74.5690   27.7110 C.3   338  LYS338      0.0206
     98  CE        -3.9660   75.8300   27.6080 C.3   338  LYS338      0.1093
     99  NZ        -5.4280   75.5550   27.7310 N.3   338  LYS338     -0.1314
    100  N         -0.3010   74.1140   32.7550 N.am  339  ILE339     -0.1980
    101  CA         1.0080   73.9880   33.3660 C.3   339  ILE339      0.1595
    102  C          0.9920   72.9840   34.5120 C.2   339  ILE339      0.2287
    103  O          1.8850   72.1590   34.6330 O.2   339  ILE339     -0.2864
    104  CB         1.5160   75.3490   33.8930 C.3   339  ILE339      0.0276
    105  CG1        1.6850   76.3190   32.7280 C.3   339  ILE339      0.0022
    106  CG2        2.8450   75.1740   34.6280 C.3   339  ILE339      0.0022
    107  CD1        2.3860   75.7110   31.5410 C.3   339  ILE339      0.0001
    108  N         -1.0100   70.4960   35.2000 N.3   341  LYS341     -0.1245
    109  CA        -1.4420   69.1320   34.9150 C.3   341  LYS341      0.1561
    110  C         -0.2590   68.1720   35.0090 C.2   341  LYS341      0.2260
    111  O         -0.0410   67.6370   36.1200 O.2   341  LYS341     -0.2867
    112  CB        -2.0560   69.0370   33.5140 C.3   341  LYS341      0.0271
    113  CG        -1.0220   68.9680   32.4030 C.3   341  LYS341      0.0035
    114  CD        -1.6610   68.8790   31.0280 C.3   341  LYS341      0.0206
    115  CE        -1.8870   67.4350   30.6100 C.3   341  LYS341      0.1093
    116  NZ        -2.1590   67.3290   29.1490 N.3   341  LYS341     -0.1314
@<TRIPOS>BOND
     1     4     3    2
     2    13    14    1
     3    15    16    2
     4    15    14    1
     5    14    17    1
     6     3     2    1
     7     2     1    1
     8     2     5    1
     9    22    23    1
    10    17    18    1
    11    18    19    1
    12    32    33    2
    13    32    31    1
    14    41    42    1
    15    23    24    1
    16    23    26    1
    17     5     6    1
    18     8     6   ar
    19     8    10   ar
    20    30    24   am
    21    30    31    1
    22    24    25    2
    23     6     7   ar
    24    28    27    2
    25    10    11   ar
    26    43    42    1
    27    43    44    2
    28    19    20    1
    29     7     9   ar
    30    31    34    1
    31    11     9   ar
    32    11    12    1
    33    34    35    1
    34    42    45    1
    35    27    26    1
    36    27    29   am
    37    20    21    1
    38    36    35    1
    39    36    37    1
    40    68    67    2
    41    45    46    1
    42    45    47    1
    43    39    38    1
    44    66    69    1
    45    66    67    1
    46    66    65    1
    47    69    70    1
    48    37    38    2
    49    70    71    1
    50    38    40    1
    51    65    71    1
    52    98    97    1
    53    98    99    1
    54    97    96    1
    55    51    50    2
    56    49    48    1
    57    49    50    1
    58    49    52    1
    59    53    52    1
    60    96    95    1
    61   116   115    1
    62    50    54   am
    63    90    88    1
    64    95    92    1
    65    54    55    1
    66    57    56    2
    67   115   114    1
    68    82    80   ar
    69    82    81   ar
    70    88    89    1
    71    88    87    1
    72    56    55    1
    73    55    58    1
    74   114   113    1
    75    80    78   ar
    76    92    93    1
    77    92    91    1
    78    81    79   ar
    79    94    93    2
    80    83    84    1
    81   107   105    1
    82    84    87    1
    83    84    85    1
    84    93   100   am
    85    63    61   ar
    86    63    64   ar
    87    61    59   ar
    88    64    62   ar
    89    58    59    1
    90    59    60   ar
    91    62    60   ar
    92    78    77   ar
    93   113   112    1
    94    86    85    2
    95    79    77   ar
    96   105   104    1
    97   100   101    1
    98    77    76    1
    99   101   104    1
   100   101   102    1
   101   112   109    1
   102   104   106    1
   103    76    73    1
   104   102   103    2
   105   109   110    1
   106   109   108    1
   107   110   111    2
   108    75    74    2
   109    74    73    1
   110    73    72    1
