@<TRIPOS>MOLECULE
tmp/3n6mA00.pdb
 147 139 0 0 0
SMALL
GASTEIGER

@<TRIPOS>ATOM
      1  N        -43.6190   13.4740   15.5820 N.3    61  LYS61      -0.1245
      2  CA       -42.4630   14.0450   16.3000 C.3    61  LYS61       0.1561
      3  C        -42.4540   13.6270   17.7670 C.2    61  LYS61       0.2260
      4  O        -41.3920   13.4240   18.3510 O.2    61  LYS61      -0.2867
      5  CB       -42.3820   15.5830   16.1590 C.3    61  LYS61       0.0271
      6  CG       -43.5530   16.3880   16.7350 C.3    61  LYS61       0.0035
      7  CD       -43.2050   17.8740   16.8140 C.3    61  LYS61       0.0206
      8  CE       -44.2790   18.6780   17.5230 C.3    61  LYS61       0.1093
      9  NZ       -44.0710   20.1630   17.5040 N.3    61  LYS61      -0.1314
     10  N        -46.1300   26.0380   10.3170 N.3   159  LYS159     -0.1245
     11  CA       -45.2080   27.0470    9.8290 C.3   159  LYS159      0.1561
     12  C        -45.1720   27.0780    8.3060 C.2   159  LYS159      0.2260
     13  O        -44.8790   26.0600    7.6670 O.2   159  LYS159     -0.2867
     14  CB       -43.8090   26.7330   10.3550 C.3   159  LYS159      0.0271
     15  CG       -42.8560   27.8770   10.3370 C.3   159  LYS159      0.0035
     16  CD       -41.6590   27.5010   11.2040 C.3   159  LYS159      0.0206
     17  CE       -40.4540   28.3780   10.9440 C.3   159  LYS159      0.1093
     18  NZ       -40.8630   29.7760   10.9600 N.3   159  LYS159     -0.1314
     19  N        -39.2940   23.7180    2.4390 N.3   163  ARG163     -0.1245
     20  CA       -38.8880   22.4150    2.9610 C.3   163  ARG163      0.1563
     21  C        -38.3630   21.5610    1.8280 C.2   163  ARG163      0.2260
     22  O        -38.7230   21.7680    0.6570 O.2   163  ARG163     -0.2867
     23  CB       -40.0590   21.6710    3.6280 C.3   163  ARG163      0.0307
     24  CG       -40.6510   22.3520    4.8780 C.3   163  ARG163      0.0489
     25  CD       -39.6910   22.4080    6.0700 C.3   163  ARG163      0.2205
     26  NE       -39.8050   21.2010    6.8790 N.pl3 163  ARG163     -0.0865
     27  CZ       -39.0200   20.9080    7.9100 C.cat 163  ARG163      0.5346
     28  NH1      -38.0350   21.7330    8.2600 N.pl3 163  ARG163      0.1354
     29  NH2      -39.2240   19.7910    8.5950 N.pl3 163  ARG163      0.1354
     30  N        -39.3440   16.0420    2.7910 N.3   167  LYS167     -0.1245
     31  CA       -40.1970   16.5630    3.8820 C.3   167  LYS167      0.1561
     32  C        -41.6130   16.8680    3.4260 C.2   167  LYS167      0.2260
     33  O        -42.5460   16.8550    4.2350 O.2   167  LYS167     -0.2867
     34  CB       -39.6060   17.8300    4.5110 C.3   167  LYS167      0.0271
     35  CG       -38.8670   17.6350    5.8150 C.3   167  LYS167      0.0035
     36  CD       -37.6830   16.7320    5.6630 C.3   167  LYS167      0.0206
     37  CE       -37.1680   16.2740    7.0160 C.3   167  LYS167      0.1093
     38  NZ       -36.7600   17.4200    7.8620 N.3   167  LYS167     -0.1314
     39  N        -43.6680   16.1320    6.6350 N.3   172  LYS172     -0.1245
     40  CA       -42.9500   16.6220    7.7910 C.3   172  LYS172      0.1561
     41  C        -42.8400   18.1560    7.8390 C.2   172  LYS172      0.2260
     42  O        -41.7280   18.7240    7.8010 O.2   172  LYS172     -0.2867
     43  CB       -41.5700   15.9660    7.9000 C.3   172  LYS172      0.0271
     44  CG       -41.5940   14.4380    8.0190 C.3   172  LYS172      0.0035
     45  CD       -41.9700   13.8970    9.4110 C.3   172  LYS172      0.0206
     46  CE       -41.6850   12.3670    9.4410 C.3   172  LYS172      0.1093
     47  NZ       -42.2200   11.5600   10.6260 N.3   172  LYS172     -0.1314
     48  N        -43.3550   21.7450   10.0620 N.3   174  ARG174     -0.1231
     49  CA       -43.1070   22.0990   11.4580 C.3   174  ARG174      0.1694
     50  C        -44.2730   22.8950   12.0290 C.2   174  ARG174      0.2592
     51  O        -44.9560   23.6320   11.2940 O.2   174  ARG174     -0.2718
     52  CB       -41.7930   22.8620   11.6130 C.3   174  ARG174      0.0321
     53  CG       -40.5950   21.9830   11.2950 C.3   174  ARG174      0.0489
     54  CD       -39.2790   22.6290   11.6730 C.3   174  ARG174      0.2205
     55  NE       -39.0570   23.9140   11.0150 N.pl3 174  ARG174     -0.0865
     56  CZ       -38.0910   24.7660   11.3480 C.cat 174  ARG174      0.5346
     57  NH1      -37.2530   24.4610   12.3330 N.pl3 174  ARG174      0.1354
     58  NH2      -37.9630   25.9250   10.7000 N.pl3 174  ARG174      0.1354
     59  N        -44.5180   22.7420   13.3300 N.am  175  LEU175     -0.1966
     60  CA       -45.6050   23.5030   13.9560 C.3   175  LEU175      0.1728
     61  C        -45.1000   24.6900   14.7480 C.2   175  LEU175      0.2616
     62  O        -44.0190   24.6560   15.3290 O.2   175  LEU175     -0.2715
     63  CB       -46.4490   22.6040   14.8540 C.3   175  LEU175      0.0311
     64  CG       -47.2340   21.5400   14.1110 C.3   175  LEU175      0.0022
     65  CD1      -47.5770   20.4230   15.0570 C.3   175  LEU175      0.0001
     66  CD2      -48.4830   22.1590   13.4890 C.3   175  LEU175      0.0001
     67  N        -45.9040   25.7420   14.7670 N.am  176  ILE176     -0.1977
     68  CA       -45.7150   26.8310   15.7010 C.3   176  ILE176      0.1596
     69  C        -46.7260   26.6440   16.8400 C.2   176  ILE176      0.2287
     70  O        -47.9150   26.4620   16.6030 O.2   176  ILE176     -0.2864
     71  CB       -45.8480   28.1900   14.9800 C.3   176  ILE176      0.0276
     72  CG1      -44.6040   28.4110   14.0760 C.3   176  ILE176      0.0022
     73  CG2      -46.0250   29.3630   15.9890 C.3   176  ILE176      0.0022
     74  CD1      -44.7340   29.5560   13.1870 C.3   176  ILE176      0.0001
     75  N        -29.4270   16.9040   16.5280 N.3   234  TYR234     -0.1227
     76  CA       -30.5670   16.1770   17.0190 C.3   234  TYR234      0.1736
     77  C        -31.5880   16.0750   15.8840 C.2   234  TYR234      0.2596
     78  O        -31.6930   16.9990   15.0730 O.2   234  TYR234     -0.2718
     79  CB       -31.2390   16.9350   18.1570 C.3   234  TYR234      0.0548
     80  CG       -30.4810   17.0360   19.4580 C.ar  234  TYR234     -0.0200
     81  CD1      -29.7260   18.1660   19.7470 C.ar  234  TYR234     -0.0009
     82  CD2      -30.5560   16.0150   20.4320 C.ar  234  TYR234     -0.0009
     83  CE1      -29.0470   18.2910   20.9660 C.ar  234  TYR234      0.0417
     84  CE2      -29.8740   16.1360   21.6610 C.ar  234  TYR234      0.0417
     85  CZ       -29.1270   17.2830   21.9080 C.ar  234  TYR234      0.1957
     86  OH       -28.4440   17.4410   23.0870 O.3   234  TYR234     -0.2866
     87  N        -32.3400   14.9750   15.8360 N.am  235  SER235     -0.1938
     88  CA       -33.6290   14.9740   15.1380 C.3   235  SER235      0.2055
     89  C        -34.7210   15.1960   16.1630 C.2   235  SER235      0.2644
     90  O        -34.8480   14.4120   17.1130 O.2   235  SER235     -0.2714
     91  CB       -33.9060   13.6400   14.4290 C.3   235  SER235      0.2130
     92  OG       -32.8380   13.2850   13.5720 O.3   235  SER235     -0.2179
     93  N        -35.5070   16.2470   15.9540 N.am  236  GLY236     -0.1939
     94  CA       -36.7060   16.5380   16.7510 C.3   236  GLY236      0.2014
     95  C        -36.4040   16.6560   18.2290 C.2   236  GLY236      0.2639
     96  O        -37.0790   16.0430   19.0570 O.2   236  GLY236     -0.2714
     97  N        -35.3630   17.4140   18.5480 N.am  237  TYR237     -0.1959
     98  CA       -35.0020   17.7110   19.9250 C.3   237  TYR237      0.1771
     99  C        -36.2210   18.1230   20.7520 C.2   237  TYR237      0.2620
    100  O        -36.6160   17.4210   21.6870 O.2   237  TYR237     -0.2715
    101  CB       -33.9770   18.8240   19.9200 C.3   237  TYR237      0.0574
    102  CG       -33.4660   19.3040   21.2600 C.ar  237  TYR237     -0.0198
    103  CD1      -32.3790   18.6870   21.8920 C.ar  237  TYR237     -0.0009
    104  CD2      -34.0250   20.4340   21.8610 C.ar  237  TYR237     -0.0009
    105  CE1      -31.8840   19.1790   23.1100 C.ar  237  TYR237      0.0417
    106  CE2      -33.5550   20.9250   23.0490 C.ar  237  TYR237      0.0417
    107  CZ       -32.4880   20.3060   23.6800 C.ar  237  TYR237      0.1957
    108  OH       -32.0500   20.8470   24.8730 O.3   237  TYR237     -0.2866
    109  N        -36.8290   19.2470   20.3990 N.am  238  ASP238     -0.1957
    110  CA       -37.8810   19.8010   21.2480 C.3   238  ASP238      0.1840
    111  C        -38.8610   18.7260   21.7060 C.2   238  ASP238      0.2621
    112  O        -39.1000   18.5870   22.9010 O.2   238  ASP238     -0.2715
    113  CB       -38.6220   20.9640   20.5540 C.3   238  ASP238      0.1450
    114  CG       -37.7010   22.1370   20.2370 C.2   238  ASP238      0.3671
    115  OD1      -36.4540   22.0220   20.3430 O.co2 238  ASP238     -0.2456
    116  OD2      -38.2190   23.1940   19.8660 O.co2 238  ASP238     -0.2456
    117  N        -39.4060   17.9730   20.7500 N.am  239  ALA239     -0.1977
    118  CA       -40.5050   17.0500   21.0160 C.3   239  ALA239      0.1597
    119  C        -40.0140   15.7570   21.6570 C.2   239  ALA239      0.2287
    120  O        -40.7970   14.9530   22.1470 O.2   239  ALA239     -0.2864
    121  CB       -41.2540   16.7450   19.7480 C.3   239  ALA239      0.0319
    122  N        -42.7900   24.5770   20.6500 N.3   289  SER289     -0.1202
    123  CA       -41.8870   25.0190   19.5760 C.3   289  SER289      0.2020
    124  C        -42.3480   26.2380   18.7560 C.2   289  SER289      0.2619
    125  O        -43.5390   26.4420   18.5230 O.2   289  SER289     -0.2717
    126  CB       -41.6390   23.8540   18.5980 C.3   289  SER289      0.2103
    127  OG       -40.5990   22.9910   19.0260 O.3   289  SER289     -0.2182
    128  N        -41.3800   27.0240   18.2930 N.am  290  GLY290     -0.1956
    129  CA       -41.6470   28.1100   17.3300 C.3   290  GLY290      0.1869
    130  C        -41.4530   29.5210   17.8430 C.2   290  GLY290      0.2309
    131  O        -41.7110   30.4770   17.1390 O.2   290  GLY290     -0.2863
    132  N        -34.7020   25.8720   26.4680 N.3   298  ASN298     -0.1240
    133  CA       -34.1720   24.8060   25.6160 C.3   298  ASN298      0.1653
    134  C        -32.6700   24.7300   25.7290 C.2   298  ASN298      0.2266
    135  O        -32.1050   23.6380   25.7830 O.2   298  ASN298     -0.2867
    136  CB       -34.5340   25.0180   24.1480 C.3   298  ASN298      0.1155
    137  CG       -35.6420   24.1190   23.6830 C.2   298  ASN298      0.2627
    138  OD1      -35.9560   23.1080   24.3120 O.2   298  ASN298     -0.2716
    139  ND2      -36.2480   24.4780   22.5610 N.am  298  ASN298     -0.0877
    140  N        -31.7700   23.4250   20.2860 N.3   329  ASP329     -0.1239
    141  CA       -31.1830   22.1310   20.0480 C.3   329  ASP329      0.1674
    142  C        -29.7560   22.2440   19.5520 C.2   329  ASP329      0.2266
    143  O        -29.0600   21.2680   19.5370 O.2   329  ASP329     -0.2867
    144  CB       -32.0250   21.3160   19.0480 C.3   329  ASP329      0.1410
    145  CG       -31.9860   21.8760   17.6180 C.2   329  ASP329      0.3668
    146  OD1      -31.7880   23.0890   17.4220 O.co2 329  ASP329     -0.2456
    147  OD2      -32.1460   21.0880   16.6770 O.co2 329  ASP329     -0.2456
@<TRIPOS>BOND
     1    22    21    2
     2    21    20    1
     3    19    20    1
     4    30    31    1
     5    20    23    1
     6    32    31    1
     7    32    33    2
     8    23    24    1
     9    31    34    1
    10    34    35    1
    11    24    25    1
    12    36    35    1
    13    36    37    1
    14    25    26    1
    15    39    40    1
    16    26    27    2
    17    37    38    1
    18    13    12    2
    19    40    41    1
    20    40    43    1
    21    42    41    2
    22    43    44    1
    23    27    28    1
    24    27    29    1
    25    44    45    1
    26    12    11    1
    27    45    46    1
    28    46    47    1
    29    11    10    1
    30    11    14    1
    31    48    49    1
    32    15    14    1
    33    15    16    1
    34    58    56    1
    35    17    18    1
    36    17    16    1
    37    55    56    2
    38    55    54    1
    39    51    50    2
    40    53    52    1
    41    53    54    1
    42    56    57    1
    43    49    52    1
    44    49    50    1
    45    50    59   am
    46    74    72    1
    47    59    60    1
    48    66    64    1
    49    92    91    1
    50    60    61    1
    51    60    63    1
    52    72    71    1
    53    64    63    1
    54    64    65    1
    55    91    88    1
    56    61    67   am
    57    61    62    2
    58    67    68    1
    59    71    68    1
    60    71    73    1
    61    78    77    2
    62    88    87    1
    63    88    89    1
    64     1     2    1
    65    68    69    1
    66    87    77   am
    67    77    76    1
    68    93    89   am
    69    93    94    1
    70     5     2    1
    71     5     6    1
    72    89    90    2
    73     2     3    1
    74    75    76    1
    75    70    69    2
    76   147   145   ar
    77     6     7    1
    78    94    95    1
    79     7     8    1
    80    76    79    1
    81   131   130    2
    82   129   130    1
    83   129   128    1
    84   146   145   ar
    85     9     8    1
    86   145   144    1
    87     3     4    2
    88    79    80    1
    89    95    97   am
    90    95    96    2
    91   128   124   am
    92   125   124    2
    93    97    98    1
    94   126   127    1
    95   126   123    1
    96   124   123    1
    97   144   141    1
    98    80    81   ar
    99    80    82   ar
   100   143   142    2
   101   142   141    1
   102   123   122    1
   103    81    83   ar
   104   121   118    1
   105   116   114   ar
   106   101    98    1
   107   101   102    1
   108    98    99    1
   109   141   140    1
   110   114   115   ar
   111   114   113    1
   112   109    99   am
   113   109   110    1
   114    82    84   ar
   115   113   110    1
   116   117   118    1
   117   117   111   am
   118    99   100    2
   119    83    85   ar
   120   118   119    1
   121   110   111    1
   122   102   104   ar
   123   102   103   ar
   124   119   120    2
   125    84    85   ar
   126   111   112    2
   127   104   106   ar
   128   103   105   ar
   129    85    86    1
   130   139   137   am
   131   106   107   ar
   132   105   107   ar
   133   107   108    1
   134   137   136    1
   135   137   138    2
   136   136   133    1
   137   133   134    1
   138   133   132    1
   139   134   135    2
