@<TRIPOS>MOLECULE
tmp/3n6nA00.pdb
 161 152 0 0 0
SMALL
GASTEIGER

@<TRIPOS>ATOM
      1  N         -9.9510  -44.1660    6.8040 N.3    61  LYS61      -0.1245
      2  CA        -8.8630  -43.4460    6.1390 C.3    61  LYS61       0.1561
      3  C         -9.1460  -43.2350    4.6510 C.2    61  LYS61       0.2260
      4  O         -8.6710  -42.2650    4.0560 O.2    61  LYS61      -0.2867
      5  CB        -7.5150  -44.1540    6.3450 C.3    61  LYS61       0.0271
      6  CG        -7.3980  -45.5550    5.7400 C.3    61  LYS61       0.0035
      7  CD        -5.9460  -46.0250    5.7300 C.3    61  LYS61       0.0206
      8  CE        -5.7590  -47.2770    4.8830 C.3    61  LYS61       0.1093
      9  NZ        -4.3260  -47.6710    4.7920 N.3    61  LYS61      -0.1314
     10  N         -0.4490  -52.9030   11.9630 N.3   159  LYS159     -0.1245
     11  CA         0.9480  -52.6570   12.3030 C.3   159  LYS159      0.1561
     12  C          1.1080  -52.6170   13.8220 C.2   159  LYS159      0.2260
     13  O          0.4940  -51.7800   14.4930 O.2   159  LYS159     -0.2867
     14  CB         1.4010  -51.3330   11.6700 C.3   159  LYS159      0.0271
     15  CG         2.8840  -51.0090   11.7590 C.3   159  LYS159      0.0035
     16  CD         3.1560  -49.6620   11.0910 C.3   159  LYS159      0.0206
     17  CE         4.4880  -49.0490   11.5120 C.3   159  LYS159      0.1093
     18  NZ         5.6580  -49.6890   10.8620 N.3   159  LYS159     -0.1314
     19  N          1.3980  -45.9810   19.5880 N.3   163  ARG163     -0.1245
     20  CA         0.5150  -44.9050   19.1530 C.3   163  ARG163      0.1563
     21  C          0.1160  -44.0500   20.3460 C.2   163  ARG163      0.2260
     22  O          0.1700  -44.5120   21.4900 O.2   163  ARG163     -0.2867
     23  CB        -0.7380  -45.4660   18.4690 C.3   163  ARG163      0.0307
     24  CG        -0.4630  -46.3050   17.2250 C.3   163  ARG163      0.0489
     25  CD        -0.0930  -45.4550   16.0210 C.3   163  ARG163      0.2205
     26  NE        -1.2760  -44.8500   15.4120 N.pl3 163  ARG163     -0.0865
     27  CZ        -1.2540  -44.0330   14.3630 C.cat 163  ARG163      0.5346
     28  NH1       -0.1050  -43.7070   13.7830 N.pl3 163  ARG163      0.1354
     29  NH2       -2.3890  -43.5390   13.8920 N.pl3 163  ARG163      0.1354
     30  N         -5.1810  -42.0140   19.7320 N.3   167  LYS167     -0.1245
     31  CA        -5.3330  -42.8810   18.5620 C.3   167  LYS167      0.1561
     32  C         -5.7530  -44.2990   18.9440 C.2   167  LYS167      0.2260
     33  O         -6.3600  -45.0100   18.1390 O.2   167  LYS167     -0.2867
     34  CB        -4.0430  -42.9170   17.7340 C.3   167  LYS167      0.0271
     35  CG        -3.4080  -41.5450   17.4600 C.3   167  LYS167      0.0035
     36  CD        -4.3060  -40.6180   16.6270 C.3   167  LYS167      0.0206
     37  CE        -4.1360  -40.8520   15.1290 C.3   167  LYS167      0.1093
     38  NZ        -2.7550  -40.5290   14.6670 N.3   167  LYS167     -0.1314
     39  N         -7.5690  -45.6060   15.7470 N.3   172  LYS172     -0.1245
     40  CA        -6.8290  -45.3020   14.5280 C.3   172  LYS172      0.1561
     41  C         -5.4610  -45.9920   14.5030 C.2   172  LYS172      0.2260
     42  O         -4.4140  -45.3430   14.6050 O.2   172  LYS172     -0.2867
     43  CB        -6.7220  -43.7870   14.3160 C.3   172  LYS172      0.0271
     44  CG        -8.0600  -43.1340   13.9670 C.3   172  LYS172      0.0035
     45  CD        -7.9380  -41.6350   13.7100 C.3   172  LYS172      0.0206
     46  CE        -7.9640  -40.8180   15.0020 C.3   172  LYS172      0.1093
     47  NZ        -8.0230  -39.3530   14.7170 N.3   172  LYS172     -0.1314
     48  N         -2.7380  -48.3890   12.2550 N.3   174  ARG174     -0.1231
     49  CA        -2.2850  -48.3060   10.8700 C.3   174  ARG174      0.1694
     50  C         -2.1080  -49.6870   10.2560 C.2   174  ARG174      0.2592
     51  O         -1.6750  -50.6280   10.9260 O.2   174  ARG174     -0.2718
     52  CB        -0.9890  -47.5110   10.7700 C.3   174  ARG174      0.0321
     53  CG        -1.1550  -46.0320   11.0460 C.3   174  ARG174      0.0489
     54  CD         0.0690  -45.2620   10.6000 C.3   174  ARG174      0.2205
     55  NE         1.2890  -45.7380   11.2470 N.pl3 174  ARG174     -0.0865
     56  CZ         2.5060  -45.2730   10.9880 C.cat 174  ARG174      0.5346
     57  NH1        2.6770  -44.3140   10.0900 N.pl3 174  ARG174      0.1354
     58  NH2        3.5550  -45.7680   11.6280 N.pl3 174  ARG174      0.1354
     59  N         -2.4490  -49.7960    8.9760 N.am  175  LEU175     -0.1966
     60  CA        -2.3900  -51.0720    8.2780 C.3   175  LEU175      0.1728
     61  C         -1.0870  -51.2640    7.5180 C.2   175  LEU175      0.2616
     62  O         -0.5740  -50.3320    6.8910 O.2   175  LEU175     -0.2715
     63  CB        -3.5670  -51.2080    7.3100 C.3   175  LEU175      0.0311
     64  CG        -4.9830  -51.3060    7.8760 C.3   175  LEU175      0.0022
     65  CD1       -5.9850  -51.1660    6.7480 C.3   175  LEU175      0.0001
     66  CD2       -5.1840  -52.6170    8.6220 C.3   175  LEU175      0.0001
     67  N         -0.5500  -52.4760    7.5980 N.am  176  ILE176     -0.1977
     68  CA         0.4960  -52.9060    6.6850 C.3   176  ILE176      0.1596
     69  C         -0.1990  -53.6390    5.5370 C.2   176  ILE176      0.2287
     70  O         -0.8420  -54.6750    5.7380 O.2   176  ILE176     -0.2864
     71  CB         1.5670  -53.7980    7.3810 C.3   176  ILE176      0.0276
     72  CG1        2.3940  -52.9740    8.3750 C.3   176  ILE176      0.0022
     73  CG2        2.4910  -54.4570    6.3490 C.3   176  ILE176      0.0022
     74  CD1        3.3290  -53.8060    9.2350 C.3   176  ILE176      0.0001
     75  N          1.8180  -30.9420    6.9900 N.3   233  ASP233     -0.1225
     76  CA         1.4590  -32.3180    7.2760 C.3   233  ASP233      0.1805
     77  C          0.2090  -32.6770    6.4900 C.2   233  ASP233      0.2598
     78  O         -0.7460  -31.8940    6.4320 O.2   233  ASP233     -0.2718
     79  CB         1.2040  -32.5110    8.7770 C.3   233  ASP233      0.1424
     80  CG         2.4080  -32.1330    9.6390 C.2   233  ASP233      0.3668
     81  OD1        3.4760  -31.7840    9.0840 O.co2 233  ASP233     -0.2456
     82  OD2        2.2800  -32.1860   10.8840 O.co2 233  ASP233     -0.2456
     83  N          0.2330  -33.8520    5.8690 N.am  234  TYR234     -0.1962
     84  CA        -0.9580  -34.4290    5.2680 C.3   234  TYR234      0.1771
     85  C         -1.6790  -35.2560    6.3200 C.2   234  TYR234      0.2620
     86  O         -1.0410  -35.8090    7.2150 O.2   234  TYR234     -0.2715
     87  CB        -0.5790  -35.3520    4.1150 C.3   234  TYR234      0.0574
     88  CG        -0.1980  -34.6750    2.8170 C.ar  234  TYR234     -0.0198
     89  CD1        1.1380  -34.4040    2.5150 C.ar  234  TYR234     -0.0009
     90  CD2       -1.1680  -34.3450    1.8710 C.ar  234  TYR234     -0.0009
     91  CE1        1.4980  -33.8050    1.3110 C.ar  234  TYR234      0.0417
     92  CE2       -0.8200  -33.7410    0.6620 C.ar  234  TYR234      0.0417
     93  CZ         0.5150  -33.4760    0.3890 C.ar  234  TYR234      0.1957
     94  OH         0.8620  -32.8820   -0.8030 O.3   234  TYR234     -0.2866
     95  N         -3.0040  -35.3350    6.2160 N.am  235  SER235     -0.1936
     96  CA        -3.7810  -36.2840    7.0100 C.3   235  SER235      0.2055
     97  C         -4.1660  -37.4570    6.1240 C.2   235  SER235      0.2644
     98  O         -4.8440  -37.2750    5.1100 O.2   235  SER235     -0.2714
     99  CB        -5.0340  -35.6310    7.6000 C.3   235  SER235      0.2130
    100  OG        -4.7050  -34.6270    8.5470 O.3   235  SER235     -0.2179
    101  N         -3.7140  -38.6510    6.5020 N.am  236  GLY236     -0.1939
    102  CA        -3.9830  -39.8770    5.7490 C.3   236  GLY236      0.2014
    103  C         -3.6990  -39.7500    4.2630 C.2   236  GLY236      0.2639
    104  O         -4.5580  -40.0640    3.4380 O.2   236  GLY236     -0.2714
    105  N         -2.4930  -39.2830    3.9370 N.am  237  TYR237     -0.1959
    106  CA        -2.0310  -39.0630    2.5580 C.3   237  TYR237      0.1771
    107  C         -2.2340  -40.2610    1.6260 C.2   237  TYR237      0.2619
    108  O         -2.8270  -40.1190    0.5550 O.2   237  TYR237     -0.2715
    109  CB        -0.5530  -38.6640    2.5870 C.3   237  TYR237      0.0574
    110  CG         0.1540  -38.5670    1.2480 C.ar  237  TYR237     -0.0198
    111  CD1        0.2140  -37.3610    0.5580 C.ar  237  TYR237     -0.0009
    112  CD2        0.8070  -39.6730    0.6980 C.ar  237  TYR237     -0.0009
    113  CE1        0.8820  -37.2590   -0.6610 C.ar  237  TYR237      0.0417
    114  CE2        1.4750  -39.5840   -0.5220 C.ar  237  TYR237      0.0417
    115  CZ         1.5110  -38.3740   -1.1960 C.ar  237  TYR237      0.1957
    116  OH         2.1720  -38.2770   -2.4020 O.3   237  TYR237     -0.2866
    117  N         -1.7330  -41.4250    2.0410 N.am  238  ASP238     -0.1971
    118  CA        -1.7860  -42.6540    1.2470 C.3   238  ASP238      0.1709
    119  C         -3.1870  -42.9890    0.7580 C.2   238  ASP238      0.2293
    120  O         -3.4120  -43.1690   -0.4360 O.2   238  ASP238     -0.2864
    121  CB        -1.2470  -43.8340    2.0590 C.3   238  ASP238      0.1436
    122  CG         0.2670  -43.9320    2.0260 C.2   238  ASP238      0.3671
    123  OD1        0.9440  -42.9290    1.7040 O.co2 238  ASP238     -0.2456
    124  OD2        0.7810  -45.0270    2.3380 O.co2 238  ASP238     -0.2456
    125  N         -0.0010  -49.0960    1.7660 N.3   289  SER289     -0.1202
    126  CA         0.7940  -48.4270    2.8050 C.3   289  SER289      0.2020
    127  C          1.9870  -49.2050    3.3680 C.2   289  SER289      0.2619
    128  O          3.0980  -48.6740    3.4230 O.2   289  SER289     -0.2717
    129  CB        -0.1110  -47.9220    3.9400 C.3   289  SER289      0.2103
    130  OG        -0.8910  -48.9740    4.4830 O.3   289  SER289     -0.2182
    131  N          1.7550  -50.4540    3.7670 N.am  290  GLY290     -0.1956
    132  CA         2.7590  -51.2770    4.4700 C.3   290  GLY290      0.1869
    133  C          4.2320  -51.2310    4.0580 C.2   290  GLY290      0.2309
    134  O          5.0620  -50.6350    4.7600 O.2   290  GLY290     -0.2863
    135  N          5.2570  -42.7100   -4.2060 N.3   298  ASN298     -0.1240
    136  CA         4.6230  -41.7130   -3.3420 C.3   298  ASN298      0.1653
    137  C          5.3170  -40.3580   -3.4040 C.2   298  ASN298      0.2266
    138  O          4.6630  -39.3150   -3.4170 O.2   298  ASN298     -0.2867
    139  CB         4.5910  -42.1990   -1.8940 C.3   298  ASN298      0.1155
    140  CG         3.2590  -42.7900   -1.5070 C.2   298  ASN298      0.2627
    141  OD1        2.2380  -42.5070   -2.1290 O.2   298  ASN298     -0.2716
    142  ND2        3.2570  -43.6080   -0.4620 N.am  298  ASN298     -0.0877
    143  N          7.8110  -39.9610    0.6970 N.3   328  GLY328     -0.1210
    144  CA         6.4210  -40.3460    0.8990 C.3   328  GLY328      0.1956
    145  C          5.5770  -39.0940    0.9960 C.2   328  GLY328      0.2611
    146  O          5.6470  -38.2220    0.1250 O.2   328  GLY328     -0.2717
    147  N          4.7960  -38.9940    2.0680 N.am  329  ASP329     -0.1973
    148  CA         3.9730  -37.8110    2.3060 C.3   329  ASP329      0.1709
    149  C          4.7820  -36.5920    2.7560 C.2   329  ASP329      0.2293
    150  O          4.3620  -35.4570    2.5390 O.2   329  ASP329     -0.2864
    151  CB         2.8270  -38.1100    3.2900 C.3   329  ASP329      0.1436
    152  CG         3.3030  -38.3620    4.7160 C.2   329  ASP329      0.3671
    153  OD1        4.2890  -39.1030    4.9170 O.co2 329  ASP329     -0.2456
    154  OD2        2.6610  -37.8280    5.6470 O.co2 329  ASP329     -0.2456
    155  N         -2.7550  -29.6330    6.6940 N.3   356  THR356     -0.1218
    156  CA        -2.6500  -28.6860    7.7980 C.3   356  THR356      0.1862
    157  C         -1.1800  -28.2950    7.9970 C.2   356  THR356      0.2287
    158  O         -0.3260  -29.1680    8.1720 O.2   356  THR356     -0.2866
    159  CB        -3.3050  -29.2270    9.1050 C.3   356  THR356      0.1770
    160  OG1       -2.9290  -28.4010   10.2140 O.3   356  THR356     -0.2211
    161  CG2       -2.9000  -30.6830    9.3850 C.3   356  THR356      0.0375
@<TRIPOS>BOND
     1   135   136    1
     2   138   137    2
     3   137   136    1
     4   136   139    1
     5   116   115    1
     6   141   140    2
     7   139   140    1
     8   140   142   am
     9   115   113   ar
    10   115   114   ar
    11    94    93    1
    12   113   111   ar
    13   114   112   ar
    14   120   119    2
    15   146   145    2
    16    93    92   ar
    17    93    91   ar
    18   108   107    2
    19   111   110   ar
    20    92    90   ar
    21   143   144    1
    22   112   110   ar
    23   119   118    1
    24   144   145    1
    25   145   147   am
    26   118   117    1
    27   118   121    1
    28   110   109    1
    29    91    89   ar
    30   107   117   am
    31   107   106    1
    32   123   122   ar
    33   125   126    1
    34    90    88   ar
    35   122   121    1
    36   122   124   ar
    37   147   148    1
    38   148   149    1
    39   148   151    1
    40    89    88   ar
    41   150   149    2
    42   106   109    1
    43   106   105    1
    44   126   127    1
    45   126   129    1
    46    88    87    1
    47   151   152    1
    48   127   128    2
    49   127   131   am
    50   104   103    2
    51   131   132    1
    52   105   103   am
    53   129   130    1
    54     4     3    2
    55   133   132    1
    56   133   134    2
    57    87    84    1
    58   103   102    1
    59     3     2    1
    60   152   153   ar
    61   152   154   ar
    62     9     8    1
    63     8     7    1
    64    98    97    2
    65    84    83    1
    66    84    85    1
    67    69    70    2
    68    69    68    1
    69     7     6    1
    70     6     5    1
    71   102   101    1
    72    83    77   am
    73    97   101   am
    74    97    96    1
    75     2     5    1
    76     2     1    1
    77    95    85   am
    78    95    96    1
    79    85    86    2
    80    73    71    1
    81    78    77    2
    82    77    76    1
    83    68    71    1
    84    68    67    1
    85   155   156    1
    86    65    64    1
    87    62    61    2
    88    75    76    1
    89    96    99    1
    90    76    79    1
    91    63    64    1
    92    63    60    1
    93    71    72    1
    94    61    67   am
    95    61    60    1
    96    99   100    1
    97   156   157    1
    98   156   159    1
    99    64    66    1
   100   157   158    2
   101    60    59    1
   102    72    74    1
   103    79    80    1
   104    59    50   am
   105    81    80   ar
   106   159   161    1
   107   159   160    1
   108    80    82   ar
   109    57    56    1
   110    50    49    1
   111    50    51    2
   112    54    53    1
   113    54    55    1
   114    52    49    1
   115    52    53    1
   116    18    17    1
   117    49    48    1
   118    56    55    2
   119    56    58    1
   120    16    17    1
   121    16    15    1
   122    14    15    1
   123    14    11    1
   124    10    11    1
   125    11    12    1
   126    45    44    1
   127    45    46    1
   128    28    27    1
   129    12    13    2
   130    29    27    1
   131    44    43    1
   132    43    40    1
   133    27    26    2
   134    41    40    1
   135    41    42    2
   136    40    39    1
   137    38    37    1
   138    47    46    1
   139    37    36    1
   140    26    25    1
   141    25    24    1
   142    36    35    1
   143    24    23    1
   144    35    34    1
   145    34    31    1
   146    33    32    2
   147    23    20    1
   148    31    32    1
   149    31    30    1
   150    20    19    1
   151    20    21    1
   152    21    22    2
