@<TRIPOS>MOLECULE
tmp/3n71A00.pdb
 179 178 0 0 0
SMALL
GASTEIGER

@<TRIPOS>ATOM
      1  N         48.5980   62.6390   39.6580 N.3    16  GLY16      -0.1210
      2  CA        48.4570   64.0690   39.4790 C.3    16  GLY16       0.1956
      3  C         48.4100   64.2870   37.9810 C.2    16  GLY16       0.2612
      4  O         48.4400   65.4170   37.4830 O.2    16  GLY16      -0.2717
      5  N         48.3410   63.1750   37.2630 N.am   17  LYS17      -0.1965
      6  CA        48.2930   63.2050   35.8170 C.3    17  LYS17       0.1728
      7  C         46.8500   63.2060   35.3280 C.2    17  LYS17       0.2617
      8  O         46.5960   63.0820   34.1380 O.2    17  LYS17      -0.2715
      9  CB        49.0550   61.9990   35.2570 C.3    17  LYS17       0.0311
     10  CG        50.4850   61.9330   35.7660 C.3    17  LYS17       0.0038
     11  CD        51.2780   60.7520   35.2310 C.3    17  LYS17       0.0206
     12  CE        52.6820   60.7580   35.8580 C.3    17  LYS17       0.1093
     13  NZ        53.4840   59.5290   35.5810 N.3    17  LYS17      -0.1314
     14  N         45.9080   63.3600   36.2520 N.am   18  GLY18      -0.1940
     15  CA        44.5060   63.3660   35.8770 C.3    18  GLY18       0.2014
     16  C         44.1100   62.0650   35.2090 C.2    18  GLY18       0.2638
     17  O         44.5060   60.9890   35.6380 O.2    18  GLY18      -0.2714
     18  N         43.3270   62.1530   34.1460 N.am   19  ARG19      -0.1977
     19  CA        42.9050   60.9530   33.4380 C.3    19  ARG19       0.1597
     20  C         43.9990   60.3830   32.5460 C.2    19  ARG19       0.2287
     21  O         44.8810   61.1070   32.0830 O.2    19  ARG19      -0.2864
     22  CB        41.6710   61.2400   32.5960 C.3    19  ARG19       0.0334
     23  CG        40.4180   61.4310   33.4170 C.3    19  ARG19       0.0492
     24  CD        39.2710   61.8210   32.5240 C.3    19  ARG19       0.2205
     25  NE        39.4460   63.1800   32.0270 N.pl3  19  ARG19      -0.0865
     26  CZ        38.6740   63.7440   31.1070 C.cat  19  ARG19       0.5346
     27  NH1       37.6750   63.0610   30.5750 N.pl3  19  ARG19       0.1354
     28  NH2       38.8970   64.9990   30.7300 N.pl3  19  ARG19       0.1354
     29  N         37.2680   67.5190   27.2860 N.3   132  LEU132     -0.1231
     30  CA        38.7170   67.3780   27.1610 C.3   132  LEU132      0.1693
     31  C         39.3700   68.3990   28.0910 C.2   132  LEU132      0.2591
     32  O         38.7310   69.3530   28.5270 O.2   132  LEU132     -0.2718
     33  CB        39.1500   67.6130   25.7110 C.3   132  LEU132      0.0284
     34  CG        38.7680   66.4920   24.7310 C.3   132  LEU132      0.0019
     35  CD1       38.9060   66.9810   23.2840 C.3   132  LEU132      0.0001
     36  CD2       39.6430   65.2530   25.0060 C.3   132  LEU132      0.0001
     37  N         40.6450   68.2140   28.3960 N.am  133  GLN133     -0.1979
     38  CA        41.2880   69.1400   29.3060 C.3   133  GLN133      0.1601
     39  C         41.4490   70.5290   28.6950 C.2   133  GLN133      0.2287
     40  O         41.6840   70.6800   27.5000 O.2   133  GLN133     -0.2864
     41  CB        42.6360   68.5830   29.7620 C.3   133  GLN133      0.0394
     42  CG        43.0850   69.1320   31.1110 C.3   133  GLN133      0.0908
     43  CD        44.2170   68.3300   31.7350 C.2   133  GLN133      0.2608
     44  OE1       44.0840   67.1340   31.9920 O.2   133  GLN133     -0.2717
     45  NE2       45.3330   68.9880   31.9850 N.am  133  GLN133     -0.0878
     46  N         43.3750   74.1490   29.8560 N.3   135  HIS135     -0.1241
     47  CA        44.1800   74.8920   30.8070 C.3   135  HIS135      0.1621
     48  C         43.9990   76.4000   30.6830 C.2   135  HIS135      0.2264
     49  O         44.9170   77.1640   30.9800 O.2   135  HIS135     -0.2867
     50  CB        45.6510   74.5360   30.6270 C.3   135  HIS135      0.0745
     51  CG        46.0040   73.1900   31.1640 C.ar  135  HIS135      0.0817
     52  ND1       45.7870   72.8380   32.4770 N.ar  135  HIS135     -0.2268
     53  CD2       46.5630   72.1080   30.5690 C.ar  135  HIS135      0.1154
     54  CE1       46.1990   71.5980   32.6710 C.ar  135  HIS135      0.1986
     55  NE2       46.6740   71.1340   31.5270 N.ar  135  HIS135     -0.2212
     56  N         44.7280   73.2990   23.8990 N.3   179  CYS179     -0.1221
     57  CA        45.3710   72.2680   24.7080 C.3   179  CYS179      0.1808
     58  C         45.1150   70.8480   24.1940 C.2   179  CYS179      0.2601
     59  O         45.3700   69.8790   24.9200 O.2   179  CYS179     -0.2717
     60  CB        44.8890   72.3770   26.1660 C.3   179  CYS179      0.0970
     61  SG        45.0480   74.0400   26.9420 S.3   179  CYS179     -0.0800
     62  N         44.6300   70.7160   22.9560 N.am  180  ASN180     -0.1974
     63  CA        44.3140   69.3880   22.4110 C.3   180  ASN180      0.1688
     64  C         44.4230   69.1660   20.8980 C.2   180  ASN180      0.2292
     65  O         44.1200   68.0790   20.4240 O.2   180  ASN180     -0.2864
     66  CB        42.8820   68.9840   22.8060 C.3   180  ASN180      0.1181
     67  CG        42.7360   68.6600   24.2800 C.2   180  ASN180      0.2629
     68  OD1       43.1320   67.5850   24.7370 O.2   180  ASN180     -0.2716
     69  ND2       42.1570   69.5910   25.0340 N.am  180  ASN180     -0.0877
     70  N         43.0340   62.3290   23.0440 N.3   202  GLY202     -0.1210
     71  CA        43.1290   63.3710   24.0580 C.3   202  GLY202      0.1956
     72  C         43.2270   62.8980   25.5100 C.2   202  GLY202      0.2612
     73  O         43.4860   63.6950   26.4280 O.2   202  GLY202     -0.2717
     74  N         43.0310   61.6000   25.7280 N.am  203  LEU203     -0.1965
     75  CA        43.1030   61.0520   27.0650 C.3   203  LEU203      0.1728
     76  C         44.4590   60.4320   27.3700 C.2   203  LEU203      0.2616
     77  O         44.7080   60.0220   28.5120 O.2   203  LEU203     -0.2715
     78  CB        42.0060   59.9980   27.2630 C.3   203  LEU203      0.0311
     79  CG        40.5750   60.5100   27.5050 C.3   203  LEU203      0.0022
     80  CD1       40.1720   61.4760   26.4130 C.3   203  LEU203      0.0001
     81  CD2       39.6120   59.3340   27.5520 C.3   203  LEU203      0.0001
     82  N         45.3390   60.3740   26.3710 N.am  204  VAL204     -0.1963
     83  CA        46.6540   59.7740   26.5800 C.3   204  VAL204      0.1727
     84  C         47.6900   60.7410   27.1390 C.2   204  VAL204      0.2616
     85  O         47.8970   61.8260   26.5970 O.2   204  VAL204     -0.2715
     86  CB        47.1880   59.1550   25.2780 C.3   204  VAL204      0.0290
     87  CG1       48.5710   58.5460   25.5150 C.3   204  VAL204      0.0023
     88  CG2       46.2300   58.0780   24.7900 C.3   204  VAL204      0.0023
     89  N         48.3350   60.3360   28.2350 N.am  205  ASN205     -0.1958
     90  CA        49.3610   61.1580   28.8730 C.3   205  ASN205      0.1819
     91  C         50.7510   61.0780   28.2430 C.2   205  ASN205      0.2621
     92  O         51.0590   60.1820   27.4570 O.2   205  ASN205     -0.2715
     93  CB        49.4830   60.8250   30.3680 C.3   205  ASN205      0.1195
     94  CG        48.3080   61.3260   31.1650 C.2   205  ASN205      0.2630
     95  OD1       47.8480   62.4540   30.9670 O.2   205  ASN205     -0.2716
     96  ND2       47.8160   60.4990   32.0750 N.am  205  ASN205     -0.0877
     97  N         51.5960   62.0180   28.6470 N.am  206  HIS206     -0.1973
     98  CA        52.9500   62.1430   28.1400 C.3   206  HIS206      0.1656
     99  C         54.0450   61.4280   28.9200 C.2   206  HIS206      0.2291
    100  O         53.9700   61.2430   30.1320 O.2   206  HIS206     -0.2864
    101  CB        53.3120   63.6330   28.0490 C.3   206  HIS206      0.0771
    102  CG        54.7630   63.8810   27.7720 C.ar  206  HIS206      0.0820
    103  ND1       55.2840   63.8960   26.4960 N.ar  206  HIS206     -0.2267
    104  CD2       55.8260   63.9690   28.6120 C.ar  206  HIS206      0.1154
    105  CE1       56.6030   63.9700   26.5600 C.ar  206  HIS206      0.1986
    106  NE2       56.9560   64.0110   27.8350 N.ar  206  HIS206     -0.2212
    107  N         54.8320   64.1460   23.7320 N.3   252  TYR252     -0.1241
    108  CA        54.2600   65.3800   23.2110 C.3   252  TYR252      0.1605
    109  C         55.3260   66.1990   22.4980 C.2   252  TYR252      0.2264
    110  O         55.0090   67.0890   21.7220 O.2   252  TYR252     -0.2867
    111  CB        53.6890   66.2350   24.3530 C.3   252  TYR252      0.0534
    112  CG        52.4660   65.6840   25.0770 C.ar  252  TYR252     -0.0201
    113  CD1       52.0060   64.3870   24.8510 C.ar  252  TYR252     -0.0009
    114  CD2       51.7890   66.4610   26.0210 C.ar  252  TYR252     -0.0009
    115  CE1       50.9110   63.8790   25.5450 C.ar  252  TYR252      0.0417
    116  CE2       50.6950   65.9630   26.7180 C.ar  252  TYR252      0.0417
    117  CZ        50.2610   64.6680   26.4810 C.ar  252  TYR252      0.1957
    118  OH        49.2010   64.1480   27.2000 O.3   252  TYR252     -0.2866
    119  N         52.2010   72.5060   28.1220 N.3   270  TYR270     -0.1227
    120  CA        51.2060   71.6450   28.7650 C.3   270  TYR270      0.1736
    121  C         51.0240   71.7920   30.2700 C.2   270  TYR270      0.2595
    122  O         50.5020   70.8910   30.9390 O.2   270  TYR270     -0.2718
    123  CB        51.5300   70.1920   28.4350 C.3   270  TYR270      0.0548
    124  CG        51.5280   69.9370   26.9590 C.ar  270  TYR270     -0.0200
    125  CD1       50.3300   69.8630   26.2490 C.ar  270  TYR270     -0.0009
    126  CD2       52.7240   69.7990   26.2580 C.ar  270  TYR270     -0.0009
    127  CE1       50.3230   69.6550   24.8790 C.ar  270  TYR270      0.0417
    128  CE2       52.7310   69.5870   24.8740 C.ar  270  TYR270      0.0417
    129  CZ        51.5230   69.5170   24.1960 C.ar  270  TYR270      0.1957
    130  OH        51.5130   69.2990   22.8430 O.3   270  TYR270     -0.2866
    131  N         51.4560   72.9260   30.7950 N.am  271  TYR271     -0.1962
    132  CA        51.3390   73.2230   32.2170 C.3   271  TYR271      0.1771
    133  C         51.5490   72.0720   33.2000 C.2   271  TYR271      0.2620
    134  O         50.6820   71.8060   34.0360 O.2   271  TYR271     -0.2715
    135  CB        49.9840   73.8730   32.4960 C.3   271  TYR271      0.0574
    136  CG        49.6740   75.0100   31.5580 C.ar  271  TYR271     -0.0198
    137  CD1       49.0610   74.7750   30.3340 C.ar  271  TYR271     -0.0009
    138  CD2       50.0300   76.3200   31.8760 C.ar  271  TYR271     -0.0009
    139  CE1       48.8080   75.8160   29.4450 C.ar  271  TYR271      0.0417
    140  CE2       49.7860   77.3700   30.9900 C.ar  271  TYR271      0.0417
    141  CZ        49.1740   77.1060   29.7760 C.ar  271  TYR271      0.1957
    142  OH        48.9240   78.1270   28.8850 O.3   271  TYR271     -0.2866
    143  N         52.6840   71.3830   33.1060 N.am  272  PHE272     -0.1960
    144  CA        52.9710   70.3210   34.0600 C.3   272  PHE272      0.1771
    145  C         54.4590   70.0420   34.1630 C.2   272  PHE272      0.2620
    146  O         55.2240   70.3870   33.2660 O.2   272  PHE272     -0.2715
    147  CB        52.2090   69.0290   33.7240 C.3   272  PHE272      0.0574
    148  CG        52.8140   68.2160   32.6150 C.ar  272  PHE272     -0.0200
    149  CD1       52.3910   68.3740   31.3040 C.ar  272  PHE272     -0.0042
    150  CD2       53.7860   67.2630   32.8920 C.ar  272  PHE272     -0.0042
    151  CE1       52.9180   67.5820   30.2800 C.ar  272  PHE272     -0.0003
    152  CE2       54.3230   66.4680   31.8790 C.ar  272  PHE272     -0.0003
    153  CZ        53.8860   66.6290   30.5630 C.ar  272  PHE272     -0.0000
    154  N         54.8650   69.4400   35.2770 N.am  273  ASP273     -0.1957
    155  CA        56.2660   69.1050   35.5000 C.3   273  ASP273      0.1840
    156  C         56.4500   67.6220   35.2080 C.2   273  ASP273      0.2622
    157  O         56.0080   66.7690   35.9700 O.2   273  ASP273     -0.2715
    158  CB        56.6820   69.4070   36.9500 C.3   273  ASP273      0.1450
    159  CG        56.3190   70.8150   37.3810 C.2   273  ASP273      0.3671
    160  OD1       56.5480   71.7570   36.5930 O.co2 273  ASP273     -0.2456
    161  OD2       55.8090   70.9720   38.5150 O.co2 273  ASP273     -0.2456
    162  N         57.1090   67.3120   34.1030 N.am  274  CYS274     -0.1954
    163  CA        57.3050   65.9210   33.7370 C.3   274  CYS274      0.1843
    164  C         58.0990   65.1200   34.7690 C.2   274  CYS274      0.2626
    165  O         59.1620   65.5390   35.2240 O.2   274  CYS274     -0.2714
    166  CB        57.9890   65.8270   32.3770 C.3   274  CYS274      0.0997
    167  SG        58.0620   64.1360   31.7950 S.3   274  CYS274     -0.0797
    168  N         57.5910   63.9440   35.1120 N.am  275  SER275     -0.1936
    169  CA        58.2520   63.1110   36.1010 C.3   275  SER275      0.2055
    170  C         58.5620   61.7190   35.5840 C.2   275  SER275      0.2643
    171  O         58.6310   60.7700   36.3710 O.2   275  SER275     -0.2714
    172  CB        57.3810   62.9920   37.3460 C.3   275  SER275      0.2130
    173  OG        56.1620   62.3600   37.0190 O.3   275  SER275     -0.2179
    174  N         58.7490   61.5850   34.2720 N.am  276  CYS276     -0.1967
    175  CA        59.0730   60.2780   33.7270 C.3   276  CYS276      0.1712
    176  C         60.4860   59.9230   34.1860 C.2   276  CYS276      0.2296
    177  O         61.2440   60.7810   34.6320 O.2   276  CYS276     -0.2864
    178  CB        58.9800   60.2810   32.1940 C.3   276  CYS276      0.0983
    179  SG        60.3750   61.0280   31.2880 S.3   276  CYS276     -0.0798
@<TRIPOS>BOND
     1    65    64    2
     2    64    63    1
     3   110   109    2
     4    63    66    1
     5    63    62    1
     6   109   108    1
     7    66    67    1
     8   130   129    1
     9    62    58   am
    10    70    71    1
    11   108   107    1
    12   108   111    1
    13    35    34    1
    14    56    57    1
    15    71    72    1
    16    58    57    1
    17    58    59    2
    18   129   128   ar
    19   129   127   ar
    20    67    68    2
    21    67    69   am
    22   111   112    1
    23    57    60    1
    24    34    36    1
    25    34    33    1
    26    88    86    1
    27   113   112   ar
    28   113   115   ar
    29   128   126   ar
    30   127   125   ar
    31   112   114   ar
    32    86    87    1
    33    86    83    1
    34    72    74   am
    35    72    73    2
    36   115   117   ar
    37    33    30    1
    38    74    75    1
    39   114   116   ar
    40    60    61    1
    41   125   124   ar
    42   126   124   ar
    43    82    83    1
    44    82    76   am
    45    80    79    1
    46   117   116   ar
    47   117   118    1
    48   103   105   ar
    49   103   102   ar
    50   105   106   ar
    51    83    84    1
    52    85    84    2
    53   124   123    1
    54    75    78    1
    55    75    76    1
    56    84    89   am
    57    30    29    1
    58    30    31    1
    59    78    79    1
    60    76    77    2
    61    92    91    2
    62    40    39    2
    63    79    81    1
    64   102   101    1
    65   102   104   ar
    66   106   104   ar
    67   101    98    1
    68    31    37   am
    69    31    32    2
    70   119   120    1
    71    98    97    1
    72    98    99    1
    73    89    90    1
    74    91    97   am
    75    91    90    1
    76    37    38    1
    77   123   120    1
    78    39    38    1
    79   120   121    1
    80    90    93    1
    81   142   141    1
    82    99   100    2
    83    38    41    1
    84   139   141   ar
    85   139   137   ar
    86    41    42    1
    87   141   140   ar
    88    46    47    1
    89   121   131   am
    90   121   122    2
    91   151   153   ar
    92   151   149   ar
    93   137   136   ar
    94    93    94    1
    95   153   152   ar
    96    53    51   ar
    97    53    55   ar
    98    27    26    1
    99    50    47    1
   100    50    51    1
   101    48    47    1
   102    48    49    2
   103    28    26    1
   104   131   132    1
   105    95    94    2
   106   140   138   ar
   107    26    25    2
   108    42    43    1
   109    51    52   ar
   110    94    96   am
   111   179   178    1
   112   149   148   ar
   113    55    54   ar
   114   136   138   ar
   115   136   135    1
   116    43    45   am
   117    43    44    2
   118   167   166    1
   119   152   150   ar
   120    25    24    1
   121    21    20    2
   122   178   175    1
   123   132   135    1
   124   132   133    1
   125   166   163    1
   126    52    54   ar
   127    24    23    1
   128    20    19    1
   129    22    23    1
   130    22    19    1
   131   148   150   ar
   132   148   147    1
   133   143   133   am
   134   143   144    1
   135   133   134    2
   136   146   145    2
   137    19    18    1
   138   147   144    1
   139   175   176    1
   140   175   174    1
   141   163   162    1
   142   163   164    1
   143   144   145    1
   144   162   156   am
   145     8     7    2
   146    18    16   am
   147   145   154   am
   148   176   177    2
   149   174   170   am
   150   164   168   am
   151   164   165    2
   152   168   169    1
   153   156   155    1
   154   156   157    2
   155    16    17    2
   156    16    15    1
   157    11    10    1
   158    11    12    1
   159     9    10    1
   160     9     6    1
   161   154   155    1
   162     7     6    1
   163     7    14   am
   164   155   158    1
   165    13    12    1
   166   170   169    1
   167   170   171    2
   168     6     5    1
   169    15    14    1
   170   169   172    1
   171   160   159   ar
   172   158   159    1
   173   173   172    1
   174     5     3   am
   175   159   161   ar
   176     4     3    2
   177     3     2    1
   178     2     1    1
