@<TRIPOS>MOLECULE
tmp/3n71A01.pdb
 77 74 0 0 0
SMALL
GASTEIGER

@<TRIPOS>ATOM
      1  N         28.3580   69.4930   17.3490 N.3   114  VAL114     -0.1245
      2  CA        27.6680   69.2670   18.6200 C.3   114  VAL114      0.1561
      3  C         26.1740   69.5080   18.4160 C.2   114  VAL114      0.2260
      4  O         25.3300   68.7920   18.9730 O.2   114  VAL114     -0.2867
      5  CB        28.1830   70.2080   19.7430 C.3   114  VAL114      0.0252
      6  CG1       27.2290   70.1810   20.9350 C.3   114  VAL114      0.0019
      7  CG2       29.5610   69.7600   20.2030 C.3   114  VAL114      0.0019
      8  N         23.5030   66.8930   18.4810 N.3   118  GLY118     -0.1210
      9  CA        22.8790   67.2330   19.7440 C.3   118  GLY118      0.1956
     10  C         23.5880   66.6980   20.9680 C.2   118  GLY118      0.2613
     11  O         22.9470   66.3390   21.9570 O.2   118  GLY118     -0.2717
     12  N         24.9130   66.6440   20.9080 N.am  119  THR119     -0.1938
     13  CA        25.7260   66.1660   22.0230 C.3   119  THR119      0.2028
     14  C         27.1950   66.2200   21.6460 C.2   119  THR119      0.2642
     15  O         27.5430   66.1660   20.4680 O.2   119  THR119     -0.2714
     16  CB        25.3820   64.7090   22.4130 C.3   119  THR119      0.1808
     17  OG1       26.2420   64.2870   23.4780 O.3   119  THR119     -0.2208
     18  CG2       25.5820   63.7760   21.2400 C.3   119  THR119      0.0379
     19  N         28.0540   66.3300   22.6530 N.am  120  GLY120     -0.1954
     20  CA        29.4840   66.3840   22.3990 C.3   120  GLY120      0.1869
     21  C         30.1680   65.0300   22.4560 C.2   120  GLY120      0.2309
     22  O         31.3520   64.9070   22.1280 O.2   120  GLY120     -0.2863
     23  N         33.7610   68.4240   24.6530 N.3   130  ASP130     -0.1239
     24  CA        33.7880   69.5230   25.6030 C.3   130  ASP130      0.1674
     25  C         34.3470   69.1570   26.9800 C.2   130  ASP130      0.2266
     26  O         34.5510   70.0260   27.8310 O.2   130  ASP130     -0.2867
     27  CB        32.3850   70.1310   25.7510 C.3   130  ASP130      0.1410
     28  CG        31.3500   69.1270   26.2190 C.2   130  ASP130      0.3668
     29  OD1       31.6140   68.4070   27.2070 O.co2 130  ASP130     -0.2456
     30  OD2       30.2630   69.0790   25.6040 O.co2 130  ASP130     -0.2456
     31  N         22.3790   76.8660   16.4800 N.3   163  GLN163     -0.1231
     32  CA        22.2660   76.7530   17.9240 C.3   163  GLN163      0.1698
     33  C         23.2070   77.7520   18.5530 C.2   163  GLN163      0.2592
     34  O         24.3790   77.8370   18.1840 O.2   163  GLN163     -0.2718
     35  CB        22.6290   75.3380   18.3870 C.3   163  GLN163      0.0381
     36  CG        22.3970   75.0880   19.8710 C.3   163  GLN163      0.0905
     37  CD        22.8380   73.7020   20.3200 C.2   163  GLN163      0.2608
     38  OE1       22.6130   72.7070   19.6290 O.2   163  GLN163     -0.2717
     39  NE2       23.4520   73.6300   21.4930 N.am  163  GLN163     -0.0878
     40  N         22.6770   78.5310   19.4880 N.am  164  GLN164     -0.1966
     41  CA        23.4710   79.5300   20.1830 C.3   164  GLN164      0.1733
     42  C         24.0950   78.9170   21.4270 C.2   164  GLN164      0.2616
     43  O         23.4010   78.3770   22.2890 O.2   164  GLN164     -0.2715
     44  CB        22.5850   80.7040   20.5760 C.3   164  GLN164      0.0408
     45  CG        21.9440   81.3960   19.3810 C.3   164  GLN164      0.0908
     46  CD        22.9780   81.9130   18.3960 C.2   164  GLN164      0.2608
     47  OE1       23.9520   82.5620   18.7860 O.2   164  GLN164     -0.2717
     48  NE2       22.7670   81.6380   17.1140 N.am  164  GLN164     -0.0878
     49  N         25.4120   78.9840   21.5160 N.am  165  PHE165     -0.1960
     50  CA        26.1090   78.4420   22.6720 C.3   165  PHE165      0.1771
     51  C         26.4260   79.6090   23.5880 C.2   165  PHE165      0.2620
     52  O         26.5040   80.7500   23.1280 O.2   165  PHE165     -0.2715
     53  CB        27.3830   77.7170   22.2080 C.3   165  PHE165      0.0574
     54  CG        27.1020   76.4610   21.4190 C.ar  165  PHE165     -0.0200
     55  CD1       26.9420   75.2340   22.0710 C.ar  165  PHE165     -0.0042
     56  CD2       26.9560   76.5070   20.0310 C.ar  165  PHE165     -0.0042
     57  CE1       26.6440   74.0680   21.3490 C.ar  165  PHE165     -0.0003
     58  CE2       26.6560   75.3520   19.3030 C.ar  165  PHE165     -0.0003
     59  CZ        26.5000   74.1300   19.9610 C.ar  165  PHE165     -0.0000
     60  N         26.5780   79.3440   24.8820 N.am  166  SER166     -0.1950
     61  CA        26.8790   80.4170   25.8230 C.3   166  SER166      0.1924
     62  C         28.3250   80.8000   25.6480 C.2   166  SER166      0.2314
     63  O         29.1360   79.9910   25.2170 O.2   166  SER166     -0.2863
     64  CB        26.6610   79.9680   27.2660 C.3   166  SER166      0.2116
     65  OG        27.6610   79.0410   27.6530 O.3   166  SER166     -0.2180
     66  N         30.7320   78.3390   27.1400 N.3   169  TYR169     -0.1241
     67  CA        30.9770   77.1180   26.3780 C.3   169  TYR169      0.1605
     68  C         31.8720   77.4150   25.1770 C.2   169  TYR169      0.2264
     69  O         32.7440   76.6110   24.8170 O.2   169  TYR169     -0.2867
     70  CB        29.6540   76.5230   25.9080 C.3   169  TYR169      0.0534
     71  CG        29.7800   75.1580   25.2490 C.ar  169  TYR169     -0.0201
     72  CD1       30.0200   75.0360   23.8800 C.ar  169  TYR169     -0.0009
     73  CD2       29.6660   73.9960   26.0030 C.ar  169  TYR169     -0.0009
     74  CE1       30.1340   73.7790   23.2810 C.ar  169  TYR169      0.0417
     75  CE2       29.7830   72.7470   25.4290 C.ar  169  TYR169      0.0417
     76  CZ        30.0100   72.6380   24.0680 C.ar  169  TYR169      0.1957
     77  OH        30.0540   71.3860   23.5040 O.3   169  TYR169     -0.2866
@<TRIPOS>BOND
     1    31    32    1
     2    48    46   am
     3     1     2    1
     4    32    35    1
     5    32    33    1
     6    34    33    2
     7    35    36    1
     8    46    47    2
     9    46    45    1
    10     3     2    1
    11     3     4    2
    12     8     9    1
    13    33    40   am
    14     2     5    1
    15    58    59   ar
    16    58    56   ar
    17    45    44    1
    18    40    41    1
    19    38    37    2
    20     5     7    1
    21     5     6    1
    22     9    10    1
    23    36    37    1
    24    59    57   ar
    25    56    54   ar
    26    41    44    1
    27    41    42    1
    28    37    39   am
    29    15    14    2
    30    12    10   am
    31    12    13    1
    32    10    11    2
    33    18    16    1
    34    57    55   ar
    35    54    55   ar
    36    54    53    1
    37    42    49   am
    38    42    43    2
    39    49    50    1
    40    14    13    1
    41    14    19   am
    42    13    16    1
    43    22    21    2
    44    53    50    1
    45    20    21    1
    46    20    19    1
    47    16    17    1
    48    50    51    1
    49    52    51    2
    50    74    72   ar
    51    74    76   ar
    52    77    76    1
    53    51    60   am
    54    72    71   ar
    55    76    75   ar
    56    23    24    1
    57    69    68    2
    58    60    61    1
    59    68    67    1
    60    63    62    2
    61    71    70    1
    62    71    73   ar
    63    75    73   ar
    64    24    27    1
    65    24    25    1
    66    30    28   ar
    67    62    61    1
    68    27    28    1
    69    61    64    1
    70    70    67    1
    71    28    29   ar
    72    67    66    1
    73    25    26    2
    74    64    65    1
