@<TRIPOS>MOLECULE
tmp/3n75A01.pdb
 97 94 0 0 0
SMALL
GASTEIGER

@<TRIPOS>ATOM
      1  N         60.3150   38.0030   85.1410 N.3     6  ILE6       -0.1245
      2  CA        59.5880   39.2830   85.1820 C.3     6  ILE6        0.1561
      3  C         58.3420   39.1740   84.2910 C.2     6  ILE6        0.2260
      4  O         58.4300   38.9000   83.0910 O.2     6  ILE6       -0.2867
      5  CB        60.4790   40.4860   84.7580 C.3     6  ILE6        0.0252
      6  CG1       61.6610   40.6520   85.7190 C.3     6  ILE6        0.0019
      7  CG2       59.6430   41.8160   84.6380 C.3     6  ILE6        0.0019
      8  CD1       62.6520   41.8180   85.4210 C.3     6  ILE6        0.0001
      9  N         55.8590   41.4300   82.5820 N.3     8  ASN8       -0.1225
     10  CA        55.1600   42.6250   81.8710 C.3     8  ASN8        0.1785
     11  C         55.2790   44.0250   80.9600 C.2     8  ASN8        0.2597
     12  O         55.8410   45.0560   81.3670 O.2     8  ASN8       -0.2718
     13  CB        54.2530   43.0470   82.9140 C.3     8  ASN8        0.1169
     14  CG        53.0220   42.7450   82.5810 C.2     8  ASN8        0.2627
     15  OD1       52.2010   43.5970   82.7040 O.2     8  ASN8       -0.2716
     16  ND2       52.8090   41.5480   81.9940 N.am    8  ASN8       -0.0877
     17  N         54.4410   44.1780   79.9180 N.am    9  HIS9       -0.1975
     18  CA        54.0880   45.5320   79.3400 C.3     9  HIS9        0.1656
     19  C         53.0110   46.3040   80.1320 C.2     9  HIS9        0.2291
     20  O         51.8850   45.8760   80.1660 O.2     9  HIS9       -0.2864
     21  CB        53.5540   45.4210   77.9020 C.3     9  HIS9        0.0771
     22  CG        54.6140   45.1500   76.8830 C.ar    9  HIS9        0.0820
     23  ND1       54.8570   43.8870   76.3720 N.ar    9  HIS9       -0.2267
     24  CD2       55.5010   45.9740   76.2810 C.ar    9  HIS9        0.1154
     25  CE1       55.8650   43.9420   75.5200 C.ar    9  HIS9        0.1986
     26  NE2       56.2710   45.1960   75.4400 N.ar    9  HIS9       -0.2212
     27  N         55.9120   54.5870   81.5650 N.3    13  TYR13      -0.1241
     28  CA        57.3360   54.6460   81.8150 C.3    13  TYR13       0.1605
     29  C         57.6740   54.6150   83.3320 C.2    13  TYR13       0.2264
     30  O         58.7280   54.0970   83.7370 O.2    13  TYR13      -0.2867
     31  CB        57.8540   55.9420   81.1970 C.3    13  TYR13       0.0534
     32  CG        59.3520   56.0830   81.1520 C.ar   13  TYR13      -0.0201
     33  CD1       60.0560   56.6210   82.2350 C.ar   13  TYR13      -0.0009
     34  CD2       60.0620   55.7300   79.9960 C.ar   13  TYR13      -0.0009
     35  CE1       61.4310   56.7580   82.1910 C.ar   13  TYR13       0.0417
     36  CE2       61.4580   55.8930   79.9290 C.ar   13  TYR13       0.0417
     37  CZ        62.1230   56.4140   81.0300 C.ar   13  TYR13       0.1957
     38  OH        63.4820   56.5670   80.9800 O.3    13  TYR13      -0.2866
     39  N         57.7690   50.9050   83.9030 N.3    16  GLU16      -0.1231
     40  CA        58.6520   50.1810   83.0010 C.3    16  GLU16       0.1699
     41  C         60.1150   50.5090   83.1660 C.2    16  GLU16       0.2592
     42  O         60.9800   49.6030   83.0950 O.2    16  GLU16      -0.2718
     43  CB        58.1840   50.3880   81.5370 C.3    16  GLU16       0.0402
     44  CG        56.8760   49.5990   81.2820 C.3    16  GLU16       0.1161
     45  CD        56.2860   49.8920   79.9270 C.2    16  GLU16       0.3649
     46  OE1       56.7490   50.8210   79.2230 O.co2  16  GLU16      -0.2457
     47  OE2       55.3700   49.1680   79.5470 O.co2  16  GLU16      -0.2457
     48  N         60.4310   51.7890   83.3900 N.am   17  GLU17      -0.1979
     49  CA        61.8560   52.1240   83.5180 C.3    17  GLU17       0.1602
     50  C         62.5370   51.5460   84.7890 C.2    17  GLU17       0.2287
     51  O         63.6460   50.9810   84.6940 O.2    17  GLU17      -0.2864
     52  CB        62.1200   53.6180   83.3140 C.3    17  GLU17       0.0415
     53  CG        63.5870   54.0240   83.4090 C.3    17  GLU17       0.1163
     54  CD        64.3660   53.7510   82.1130 C.2    17  GLU17       0.3649
     55  OE1       63.7850   53.2210   81.1520 O.co2  17  GLU17      -0.2457
     56  OE2       65.5660   54.0610   82.0730 O.co2  17  GLU17      -0.2457
     57  N         61.7690   48.7960   86.1850 N.3    19  ILE19      -0.1231
     58  CA        61.8950   47.3350   85.9590 C.3    19  ILE19       0.1692
     59  C         63.0890   47.0750   85.0120 C.2    19  ILE19       0.2591
     60  O         63.8600   46.1260   85.2040 O.2    19  ILE19      -0.2718
     61  CB        60.5690   46.7190   85.4220 C.3    19  ILE19       0.0266
     62  CG1       59.4510   46.7740   86.4850 C.3    19  ILE19       0.0019
     63  CG2       60.7730   45.2570   84.9180 C.3    19  ILE19       0.0020
     64  CD1       59.7920   46.1670   87.8640 C.3    19  ILE19       0.0001
     65  N         63.2570   47.9460   84.0100 N.am   20  ARG20      -0.1980
     66  CA        64.4790   47.8870   83.1830 C.3    20  ARG20       0.1597
     67  C         65.7300   48.0220   84.0290 C.2    20  ARG20       0.2287
     68  O         66.6740   47.2370   83.8640 O.2    20  ARG20      -0.2864
     69  CB        64.4690   48.9390   82.0620 C.3    20  ARG20       0.0334
     70  CG        63.6500   48.5080   80.8720 C.3    20  ARG20       0.0492
     71  CD        63.8680   49.4580   79.6840 C.3    20  ARG20       0.2205
     72  NE        63.1600   50.7030   79.9200 N.pl3  20  ARG20      -0.0865
     73  CZ        61.8950   50.9510   79.5640 C.cat  20  ARG20       0.5346
     74  NH1       61.3540   52.1090   79.8800 N.pl3  20  ARG20       0.1354
     75  NH2       61.1590   50.0570   78.9280 N.pl3  20  ARG20       0.1354
     76  N         66.1570   44.7010   86.0090 N.3    23  HIS23      -0.1241
     77  CA        66.7250   43.6800   85.0940 C.3    23  HIS23       0.1621
     78  C         68.2520   43.8180   85.0910 C.2    23  HIS23       0.2264
     79  O         68.9660   42.8540   85.3580 O.2    23  HIS23      -0.2867
     80  CB        66.1780   43.9230   83.6890 C.3    23  HIS23       0.0745
     81  CG        66.7900   43.0620   82.6320 C.ar   23  HIS23       0.0817
     82  ND1       68.0550   43.2840   82.1240 N.ar   23  HIS23      -0.2268
     83  CD2       66.2980   41.9900   81.9720 C.ar   23  HIS23       0.1154
     84  CE1       68.3260   42.3620   81.2090 C.ar   23  HIS23       0.1986
     85  NE2       67.2780   41.5690   81.0980 N.ar   23  HIS23      -0.2212
     86  N         61.1970   36.3560   80.6140 N.3    35  TYR35      -0.1241
     87  CA        60.0320   37.2240   80.3780 C.3    35  TYR35       0.1605
     88  C         58.8350   36.4450   79.8380 C.2    35  TYR35       0.2264
     89  O         58.5640   36.4760   78.6290 O.2    35  TYR35      -0.2867
     90  CB        60.4060   38.3550   79.4100 C.3    35  TYR35       0.0534
     91  CG        61.2920   39.4090   80.0660 C.ar   35  TYR35      -0.0201
     92  CD1       60.7280   40.4890   80.7330 C.ar   35  TYR35      -0.0009
     93  CD2       62.6780   39.3120   80.0190 C.ar   35  TYR35      -0.0009
     94  CE1       61.5070   41.4360   81.3370 C.ar   35  TYR35       0.0417
     95  CE2       63.4840   40.2830   80.6360 C.ar   35  TYR35       0.0417
     96  CZ        62.8720   41.3440   81.2870 C.ar   35  TYR35       0.1957
     97  OH        63.6130   42.3150   81.9210 O.3    35  TYR35      -0.2866
@<TRIPOS>BOND
     1    26    25   ar
     2    26    24   ar
     3    25    23   ar
     4    24    22   ar
     5    23    22   ar
     6    22    21    1
     7    21    18    1
     8    89    88    2
     9    75    73    1
    10    46    45   ar
    11    18    17    1
    12    18    19    1
    13    90    91    1
    14    90    87    1
    15    47    45   ar
    16    73    74    1
    17    73    72    2
    18    71    72    1
    19    71    70    1
    20    88    87    1
    21    17    11   am
    22    45    44    1
    23    36    34   ar
    24    36    37   ar
    25    34    32   ar
    26    93    91   ar
    27    93    95   ar
    28    91    92   ar
    29    19    20    2
    30    87    86    1
    31    95    96   ar
    32    92    94   ar
    33    70    69    1
    34    11    12    2
    35    11    10    1
    36    38    37    1
    37    37    35   ar
    38    85    84   ar
    39    85    83   ar
    40    55    54   ar
    41    32    31    1
    42    32    33   ar
    43    31    28    1
    44    84    82   ar
    45    44    43    1
    46    96    94   ar
    47    96    97    1
    48    43    40    1
    49    27    28    1
    50    28    29    1
    51    10     9    1
    52    10    13    1
    53    83    81   ar
    54    16    14   am
    55    69    66    1
    56    56    54   ar
    57    54    53    1
    58    82    81   ar
    59    35    33   ar
    60    14    15    2
    61    14    13    1
    62    81    80    1
    63    40    41    1
    64    40    39    1
    65     4     3    2
    66    42    41    2
    67    41    48   am
    68    66    65    1
    69    66    67    1
    70    52    53    1
    71    52    49    1
    72    29    30    2
    73    48    49    1
    74    49    50    1
    75    80    77    1
    76    68    67    2
    77    65    59   am
    78     3     2    1
    79     7     5    1
    80    51    50    2
    81     5     2    1
    82     5     6    1
    83    63    61    1
    84    59    60    2
    85    59    58    1
    86    78    77    1
    87    78    79    2
    88    77    76    1
    89     1     2    1
    90     8     6    1
    91    61    58    1
    92    61    62    1
    93    58    57    1
    94    62    64    1
