@<TRIPOS>MOLECULE
tmp/3n75C02.pdb
 90 86 0 0 0
SMALL
GASTEIGER

@<TRIPOS>ATOM
      1  N         78.8010   24.6670   17.7590 N.3   516  TYR516     -0.1241
      2  CA        78.1620   25.7440   18.5010 C.3   516  TYR516      0.1605
      3  C         78.0790   25.4450   20.0030 C.2   516  TYR516      0.2264
      4  O         78.3860   26.3110   20.8300 O.2   516  TYR516     -0.2867
      5  CB        76.7660   26.0040   17.9520 C.3   516  TYR516      0.0534
      6  CG        76.0770   27.1410   18.6520 C.ar  516  TYR516     -0.0201
      7  CD1       76.3530   28.4750   18.3070 C.ar  516  TYR516     -0.0009
      8  CD2       75.1460   26.8920   19.6590 C.ar  516  TYR516     -0.0009
      9  CE1       75.6950   29.5250   18.9610 C.ar  516  TYR516      0.0417
     10  CE2       74.4980   27.9290   20.3250 C.ar  516  TYR516      0.0417
     11  CZ        74.7670   29.2180   19.9670 C.ar  516  TYR516      0.1957
     12  OH        74.1310   30.2080   20.6440 O.3   516  TYR516     -0.2866
     13  N         67.9850   30.6250   16.7750 N.3   557  ARG557     -0.1231
     14  CA        67.8840   32.0860   16.6500 C.3   557  ARG557      0.1694
     15  C         69.0430   32.6380   15.7970 C.2   557  ARG557      0.2591
     16  O         68.8210   33.4220   14.8520 O.2   557  ARG557     -0.2718
     17  CB        67.8970   32.7120   18.0600 C.3   557  ARG557      0.0321
     18  CG        67.7520   34.2580   18.1340 C.3   557  ARG557      0.0489
     19  CD        68.1760   34.7660   19.5480 C.3   557  ARG557      0.2205
     20  NE        69.5500   34.3810   19.8310 N.pl3 557  ARG557     -0.0865
     21  CZ        70.6210   35.0140   19.3530 C.cat 557  ARG557      0.5346
     22  NH1       70.4880   36.0890   18.5640 N.pl3 557  ARG557      0.1354
     23  NH2       71.8320   34.5560   19.6480 N.pl3 557  ARG557      0.1354
     24  N         70.2700   32.2180   16.1110 N.am  558  ALA558     -0.1980
     25  CA        71.4540   32.6960   15.4240 C.3   558  ALA558      0.1597
     26  C         71.5410   32.1330   13.9940 C.2   558  ALA558      0.2287
     27  O         71.8880   32.8580   13.0500 O.2   558  ALA558     -0.2864
     28  CB        72.6730   32.3330   16.2010 C.3   558  ALA558      0.0319
     29  N         69.1190   34.0380   11.7510 N.3   561  LEU561     -0.1231
     30  CA        69.7250   35.3410   11.3920 C.3   561  LEU561      0.1693
     31  C         70.8550   35.2330   10.3680 C.2   561  LEU561      0.2592
     32  O         71.3150   36.2460    9.8570 O.2   561  LEU561     -0.2718
     33  CB        70.2630   36.0550   12.6420 C.3   561  LEU561      0.0284
     34  CG        69.2530   36.5510   13.6770 C.3   561  LEU561      0.0019
     35  CD1       70.0240   36.9350   14.9540 C.3   561  LEU561      0.0001
     36  CD2       68.4790   37.7460   13.1330 C.3   561  LEU561      0.0001
     37  N         71.3180   34.0140   10.1040 N.am  562  ASN562     -0.1960
     38  CA        72.4350   33.7730    9.1890 C.3   562  ASN562      0.1819
     39  C         73.7140   34.5570    9.5600 C.2   562  ASN562      0.2621
     40  O         74.3380   35.2200    8.7130 O.2   562  ASN562     -0.2715
     41  CB        72.0060   34.0130    7.7230 C.3   562  ASN562      0.1195
     42  CG        72.9300   33.3510    6.7370 C.2   562  ASN562      0.2630
     43  OD1       73.6630   32.4330    7.0890 O.2   562  ASN562     -0.2716
     44  ND2       72.9400   33.8410    5.5020 N.am  562  ASN562     -0.0877
     45  N         74.1120   34.4720   10.8310 N.am  563  LEU563     -0.1963
     46  CA        75.3400   35.1070   11.2870 C.3   563  LEU563      0.1728
     47  C         76.5750   34.5710   10.5540 C.2   563  LEU563      0.2616
     48  O         76.5810   33.4440   10.0330 O.2   563  LEU563     -0.2715
     49  CB        75.5060   34.9330   12.8040 C.3   563  LEU563      0.0311
     50  CG        74.3800   35.3630   13.7520 C.3   563  LEU563      0.0022
     51  CD1       74.8420   35.1010   15.1870 C.3   563  LEU563      0.0001
     52  CD2       74.0020   36.8230   13.5490 C.3   563  LEU563      0.0001
     53  N         77.6120   35.3940   10.5120 N.am  564  ARG564     -0.1977
     54  CA        78.9030   34.9940    9.9960 C.3   564  ARG564      0.1597
     55  C         79.4400   33.8670   10.8740 C.2   564  ARG564      0.2287
     56  O         79.3120   33.9260   12.0850 O.2   564  ARG564     -0.2864
     57  CB        79.8810   36.1580   10.0770 C.3   564  ARG564      0.0334
     58  CG        79.5590   37.3060    9.1290 C.3   564  ARG564      0.0492
     59  CD        80.2740   37.1010    7.7810 C.3   564  ARG564      0.2205
     60  NE        81.7060   37.4130    7.9230 N.pl3 564  ARG564     -0.0865
     61  CZ        82.2040   38.6520    7.8890 C.cat 564  ARG564      0.5346
     62  NH1       81.3770   39.6800    7.7030 N.pl3 564  ARG564      0.1354
     63  NH2       83.5200   38.8660    8.0530 N.pl3 564  ARG564      0.1354
     64  N         81.5710   35.0950   13.6870 N.3   567  ASN567     -0.1225
     65  CA        80.8850   35.5690   14.8970 C.3   567  ASN567      0.1785
     66  C         80.1940   34.4610   15.6910 C.2   567  ASN567      0.2597
     67  O         80.2250   34.4510   16.9080 O.2   567  ASN567     -0.2718
     68  CB        79.8690   36.6650   14.5310 C.3   567  ASN567      0.1169
     69  CG        80.5440   37.9060   13.9590 C.2   567  ASN567      0.2627
     70  OD1       81.6390   38.2720   14.3940 O.2   567  ASN567     -0.2716
     71  ND2       79.9090   38.5400   12.9700 N.am  567  ASN567     -0.0877
     72  N         79.5700   33.5330   14.9870 N.am  568  MET568     -0.1979
     73  CA        78.7900   32.4830   15.6270 C.3   568  MET568      0.1605
     74  C         79.6380   31.2850   16.0870 C.2   568  MET568      0.2287
     75  O         79.3090   30.6450   17.0880 O.2   568  MET568     -0.2864
     76  CB        77.7160   32.0110   14.6710 C.3   568  MET568      0.0413
     77  CG        76.7540   31.0590   15.2970 C.3   568  MET568      0.0598
     78  SD        75.3860   30.7660   14.2000 S.3   568  MET568     -0.1393
     79  CE        74.5630   29.4140   15.0410 C.3   568  MET568      0.0692
     80  N         78.8620   32.5060    5.9050 N.3   584  ARG584     -0.1245
     81  CA        77.7680   32.6040    6.8760 C.3   584  ARG584      0.1563
     82  C         77.2940   31.2240    7.3080 C.2   584  ARG584      0.2260
     83  O         77.5000   30.2470    6.5940 O.2   584  ARG584     -0.2867
     84  CB        76.6230   33.4060    6.3020 C.3   584  ARG584      0.0307
     85  CG        77.0190   34.8440    6.0170 C.3   584  ARG584      0.0489
     86  CD        75.8410   35.7470    5.6240 C.3   584  ARG584      0.2205
     87  NE        76.3830   37.1080    5.6070 N.pl3 584  ARG584     -0.0865
     88  CZ        76.4320   37.9090    6.6650 C.cat 584  ARG584      0.5346
     89  NH1       75.9010   37.5290    7.8240 N.pl3 584  ARG584      0.1354
     90  NH2       76.9940   39.1070    6.5540 N.pl3 584  ARG584      0.1354
@<TRIPOS>BOND
     1    44    42   am
     2    87    86    1
     3    87    88    2
     4    86    85    1
     5    80    81    1
     6    85    84    1
     7    84    81    1
     8    90    88    1
     9    83    82    2
    10    88    89    1
    11    42    43    2
    12    42    41    1
    13    81    82    1
    14    62    61    1
    15    41    38    1
    16    59    60    1
    17    59    58    1
    18    61    60    2
    19    61    63    1
    20    40    39    2
    21    58    57    1
    22    38    39    1
    23    38    37    1
    24    39    45   am
    25    32    31    2
    26    54    57    1
    27    54    53    1
    28    54    55    1
    29    48    47    2
    30    37    31   am
    31    31    30    1
    32    53    47   am
    33    47    46    1
    34    45    46    1
    35    55    56    2
    36    46    49    1
    37    30    29    1
    38    30    33    1
    39    33    34    1
    40    49    50    1
    41    71    69   am
    42    27    26    2
    43    36    34    1
    44    52    50    1
    45    34    35    1
    46    64    65    1
    47    50    51    1
    48    69    70    2
    49    69    68    1
    50    26    25    1
    51    78    79    1
    52    78    77    1
    53    68    65    1
    54    76    77    1
    55    76    73    1
    56    16    15    2
    57    65    66    1
    58    72    73    1
    59    72    66   am
    60    25    24    1
    61    25    28    1
    62    73    74    1
    63    66    67    2
    64    15    24   am
    65    15    14    1
    66    74    75    2
    67    14    13    1
    68    14    17    1
    69     1     2    1
    70     5     2    1
    71     5     6    1
    72    17    18    1
    73    18    19    1
    74     7     6   ar
    75     7     9   ar
    76     2     3    1
    77    22    21    1
    78     6     8   ar
    79     9    11   ar
    80    21    23    1
    81    21    20    2
    82    19    20    1
    83     8    10   ar
    84    11    10   ar
    85    11    12    1
    86     3     4    2
