@<TRIPOS>MOLECULE
tmp/3n76A00.pdb
 153 146 0 0 0
SMALL
GASTEIGER

@<TRIPOS>ATOM
      1  N        -38.9160  -53.0840  -47.2550 N.3    10  PRO10      -0.2102
      2  CA       -39.3180  -53.4790  -45.9210 C.3    10  PRO10       0.1504
      3  C        -38.8860  -54.9030  -45.5570 C.2    10  PRO10       0.2576
      4  O        -39.0330  -55.8160  -46.3650 O.2    10  PRO10      -0.2718
      5  CB       -40.8550  -53.4240  -45.9510 C.3    10  PRO10       0.0282
      6  CG       -41.1960  -52.4360  -47.0310 C.3    10  PRO10       0.0208
      7  CD       -40.0300  -52.5110  -48.0370 C.3    10  PRO10       0.0893
      8  N        -38.4650  -55.0640  -44.3040 N.am   11  ASN11      -0.1961
      9  CA       -38.2150  -56.3940  -43.6410 C.3    11  ASN11       0.1819
     10  C        -36.8380  -56.9900  -43.9840 C.2    11  ASN11       0.2621
     11  O        -36.3350  -57.8690  -43.2910 O.2    11  ASN11      -0.2715
     12  CB       -39.3270  -57.4270  -43.9500 C.3    11  ASN11       0.1195
     13  CG       -40.6780  -56.9640  -43.4730 C.2    11  ASN11       0.2630
     14  OD1      -40.8130  -56.4730  -42.3250 O.2    11  ASN11      -0.2716
     15  ND2      -41.6910  -57.0550  -44.3560 N.am   11  ASN11      -0.0877
     16  N        -36.2420  -56.5190  -45.0790 N.am   12  LEU12      -0.1977
     17  CA       -34.9470  -57.1070  -45.5330 C.3    12  LEU12       0.1596
     18  C        -33.7300  -56.6950  -44.6750 C.2    12  LEU12       0.2287
     19  O        -32.5920  -57.2200  -44.8630 O.2    12  LEU12      -0.2864
     20  CB       -34.6750  -56.6370  -46.9460 C.3    12  LEU12       0.0297
     21  CG       -35.6000  -57.3880  -47.9330 C.3    12  LEU12       0.0022
     22  CD1      -35.7390  -56.5950  -49.2240 C.3    12  LEU12       0.0001
     23  CD2      -34.9980  -58.7280  -48.2460 C.3    12  LEU12       0.0001
     24  N        -33.6680  -57.6390  -41.7520 N.3    14  ARG14      -0.1231
     25  CA       -33.6310  -58.8490  -40.8950 C.3    14  ARG14       0.1694
     26  C        -33.0480  -60.0910  -41.5520 C.2    14  ARG14       0.2591
     27  O        -33.0820  -61.2180  -40.9540 O.2    14  ARG14      -0.2718
     28  CB       -35.0330  -59.2290  -40.4990 C.3    14  ARG14       0.0321
     29  CG       -36.0120  -58.1160  -40.3400 C.3    14  ARG14       0.0489
     30  CD       -36.3470  -57.8210  -38.9510 C.3    14  ARG14       0.2205
     31  NE       -36.9130  -58.9730  -38.2440 N.pl3  14  ARG14      -0.0865
     32  CZ       -36.7450  -59.0940  -36.9410 C.cat  14  ARG14       0.5346
     33  NH1      -36.0040  -58.1780  -36.3070 N.pl3  14  ARG14       0.1354
     34  NH2      -37.2380  -60.1210  -36.3070 N.pl3  14  ARG14       0.1354
     35  N        -32.5070  -59.8870  -42.7400 N.am   15  LEU15      -0.1980
     36  CA       -31.9560  -60.9770  -43.5660 C.3    15  LEU15       0.1596
     37  C        -30.9480  -61.7920  -42.7770 C.2    15  LEU15       0.2287
     38  O        -30.1470  -61.2360  -42.0110 O.2    15  LEU15      -0.2864
     39  CB       -31.2560  -60.3930  -44.8190 C.3    15  LEU15       0.0297
     40  CG       -31.8950  -60.3680  -46.2060 C.3    15  LEU15       0.0022
     41  CD1      -30.9520  -59.6650  -47.2000 C.3    15  LEU15       0.0001
     42  CD2      -32.3050  -61.7620  -46.7050 C.3    15  LEU15       0.0001
     43  N        -32.7460  -63.8040  -39.5380 N.3    18  ARG18      -0.1231
     44  CA       -34.1110  -64.3340  -39.4620 C.3    18  ARG18       0.1694
     45  C        -34.5480  -65.0600  -40.7170 C.2    18  ARG18       0.2591
     46  O        -34.1270  -64.7140  -41.8490 O.2    18  ARG18      -0.2718
     47  CB       -35.1160  -63.2250  -39.2170 C.3    18  ARG18       0.0321
     48  CG       -34.7850  -62.3970  -38.0240 C.3    18  ARG18       0.0489
     49  CD       -35.2330  -63.1250  -36.7590 C.3    18  ARG18       0.2205
     50  NE       -34.5290  -62.5650  -35.6140 N.pl3  18  ARG18      -0.0865
     51  CZ       -34.7310  -62.9480  -34.3550 C.cat  18  ARG18       0.5346
     52  NH1      -34.0390  -62.3570  -33.3720 N.pl3  18  ARG18       0.1354
     53  NH2      -35.6560  -63.8920  -34.0820 N.pl3  18  ARG18       0.1354
     54  N        -35.4190  -66.0450  -40.5080 N.am   19  GLU19      -0.1979
     55  CA       -36.0090  -66.8050  -41.6080 C.3    19  GLU19       0.1602
     56  C        -34.9640  -67.3580  -42.6020 C.2    19  GLU19       0.2287
     57  O        -35.1840  -67.2960  -43.8250 O.2    19  GLU19      -0.2864
     58  CB       -37.0440  -65.9550  -42.3610 C.3    19  GLU19       0.0415
     59  CG       -38.1370  -65.4090  -41.4670 C.3    19  GLU19       0.1163
     60  CD       -39.4470  -65.1510  -42.2590 C.2    19  GLU19       0.3649
     61  OE1      -39.3860  -65.1610  -43.5270 O.co2  19  GLU19      -0.2457
     62  OE2      -40.5250  -64.9610  -41.6180 O.co2  19  GLU19      -0.2457
     63  N        -35.0790  -66.8960  -46.8970 N.3    23  TYR23      -0.1241
     64  CA       -34.3290  -65.8290  -47.5270 C.3    23  TYR23       0.1605
     65  C        -32.8100  -66.0670  -47.3600 C.2    23  TYR23       0.2264
     66  O        -32.0150  -65.2410  -47.7570 O.2    23  TYR23      -0.2867
     67  CB       -34.7980  -64.4540  -47.0230 C.3    23  TYR23       0.0534
     68  CG       -36.2770  -64.1780  -47.2970 C.ar   23  TYR23      -0.0201
     69  CD1      -37.1650  -64.0020  -46.2640 C.ar   23  TYR23      -0.0009
     70  CD2      -36.7650  -64.0770  -48.6130 C.ar   23  TYR23      -0.0009
     71  CE1      -38.5100  -63.7550  -46.5110 C.ar   23  TYR23       0.0417
     72  CE2      -38.0600  -63.8150  -48.8860 C.ar   23  TYR23       0.0417
     73  CZ       -38.9700  -63.6810  -47.8170 C.ar   23  TYR23       0.1957
     74  OH       -40.2980  -63.4510  -48.0890 O.3    23  TYR23      -0.2866
     75  N        -34.7170  -54.6340  -54.5570 N.3    74  ASN74      -0.1240
     76  CA       -35.5640  -55.6770  -54.0120 C.3    74  ASN74       0.1653
     77  C        -36.5320  -54.9210  -53.1020 C.2    74  ASN74       0.2266
     78  O        -36.1640  -54.5780  -52.0250 O.2    74  ASN74      -0.2867
     79  CB       -34.7530  -56.6560  -53.1670 C.3    74  ASN74       0.1155
     80  CG       -35.6040  -57.8040  -52.6270 C.2    74  ASN74       0.2627
     81  OD1      -36.8270  -57.7150  -52.6280 O.2    74  ASN74      -0.2716
     82  ND2      -34.9480  -58.9000  -52.1760 N.am   74  ASN74      -0.0877
     83  N        -39.2750  -55.8870  -51.5680 N.3    76  GLY76      -0.1210
     84  CA       -39.9770  -56.6750  -50.5540 C.3    76  GLY76       0.1956
     85  C        -41.4380  -56.6570  -50.8910 C.2    76  GLY76       0.2612
     86  O        -41.7820  -56.8270  -52.0940 O.2    76  GLY76      -0.2717
     87  N        -42.3020  -56.4910  -49.8670 N.am   77  GLY77      -0.1956
     88  CA       -43.7740  -56.6620  -50.0770 C.3    77  GLY77       0.1869
     89  C        -44.3840  -55.5630  -50.9460 C.2    77  GLY77       0.2309
     90  O        -45.4220  -55.7610  -51.6230 O.2    77  GLY77      -0.2863
     91  N        -45.4510  -55.9090  -54.6760 N.3    80  HIS80      -0.1241
     92  CA       -46.7720  -56.4370  -55.1360 C.3    80  HIS80       0.1621
     93  C        -47.8820  -55.3920  -54.8910 C.2    80  HIS80       0.2264
     94  O        -49.0570  -55.6120  -55.2180 O.2    80  HIS80      -0.2867
     95  CB       -47.0720  -57.7020  -54.3790 C.3    80  HIS80       0.0745
     96  CG       -45.8840  -58.6270  -54.2810 C.ar   80  HIS80       0.0817
     97  ND1      -45.3120  -59.2370  -55.3960 N.ar   80  HIS80      -0.2268
     98  CD2      -45.1360  -58.9960  -53.2190 C.ar   80  HIS80       0.1154
     99  CE1      -44.2860  -59.9850  -55.0060 C.ar   80  HIS80       0.1986
    100  NE2      -44.1490  -59.8380  -53.6830 N.ar   80  HIS80      -0.2212
    101  N        -35.5770  -60.5630  -56.4870 N.3   100  HIS100     -0.1226
    102  CA       -36.1630  -61.3240  -55.3250 C.3   100  HIS100      0.1752
    103  C        -35.2220  -62.4260  -54.9900 C.2   100  HIS100      0.2596
    104  O        -34.8200  -63.2260  -55.8490 O.2   100  HIS100     -0.2718
    105  CB       -37.5640  -61.8350  -55.6940 C.3   100  HIS100      0.0759
    106  CG       -38.4540  -60.7310  -56.1330 C.ar  100  HIS100      0.0818
    107  ND1      -39.0540  -59.8700  -55.2360 N.ar  100  HIS100     -0.2268
    108  CD2      -38.7670  -60.2700  -57.3680 C.ar  100  HIS100      0.1154
    109  CE1      -39.7290  -58.9510  -55.8990 C.ar  100  HIS100      0.1986
    110  NE2      -39.5500  -59.1520  -57.1950 N.ar  100  HIS100     -0.2212
    111  N        -34.9500  -62.5180  -53.7070 N.am  101  ILE101     -0.1966
    112  CA       -34.1690  -63.6370  -53.1190 C.3   101  ILE101      0.1727
    113  C        -34.8600  -64.9420  -53.2840 C.2   101  ILE101      0.2616
    114  O        -34.2540  -65.9100  -53.8250 O.2   101  ILE101     -0.2715
    115  CB       -33.8300  -63.3250  -51.6510 C.3   101  ILE101      0.0290
    116  CG1      -32.8990  -62.1120  -51.6740 C.3   101  ILE101      0.0022
    117  CG2      -33.1160  -64.5700  -50.8240 C.3   101  ILE101      0.0023
    118  CD1      -32.8390  -61.5110  -50.1890 C.3   101  ILE101      0.0001
    119  N        -36.1120  -65.0010  -52.8640 N.am  102  SER102     -0.1950
    120  CA       -36.9560  -66.2240  -52.9410 C.3   102  SER102      0.1924
    121  C        -37.5630  -66.3740  -54.3640 C.2   102  SER102      0.2314
    122  O        -37.6530  -65.4070  -55.1350 O.2   102  SER102     -0.2863
    123  CB       -38.0570  -66.1620  -51.8580 C.3   102  SER102      0.2116
    124  OG       -39.1150  -65.2300  -52.2130 O.3   102  SER102     -0.2180
    125  N        -40.5950  -66.1340  -56.0910 N.3   104  VAL104     -0.1245
    126  CA       -41.9130  -65.5830  -55.7300 C.3   104  VAL104      0.1561
    127  C        -43.0250  -66.2600  -56.5140 C.2   104  VAL104      0.2260
    128  O        -44.2060  -66.0420  -56.2310 O.2   104  VAL104     -0.2867
    129  CB       -41.9740  -64.0600  -55.9500 C.3   104  VAL104      0.0252
    130  CG1      -41.0440  -63.3260  -54.9500 C.3   104  VAL104      0.0019
    131  CG2      -41.5960  -63.7610  -57.4210 C.3   104  VAL104      0.0019
    132  N        -44.6660  -69.6520  -54.4110 N.3   107  ARG107     -0.1245
    133  CA       -45.2500  -69.1970  -53.1630 C.3   107  ARG107      0.1563
    134  C        -46.7630  -68.8610  -53.3390 C.2   107  ARG107      0.2260
    135  O        -47.4390  -69.4900  -54.1600 O.2   107  ARG107     -0.2867
    136  CB       -44.3980  -68.0050  -52.6610 C.3   107  ARG107      0.0307
    137  CG       -42.9120  -68.4310  -52.4020 C.3   107  ARG107      0.0489
    138  CD       -42.1040  -67.3110  -51.7370 C.3   107  ARG107      0.2205
    139  NE       -42.6630  -66.9970  -50.4200 N.pl3 107  ARG107     -0.0865
    140  CZ       -42.2360  -65.9920  -49.6680 C.cat 107  ARG107      0.5346
    141  NH1      -41.2370  -65.2280  -50.1130 N.pl3 107  ARG107      0.1354
    142  NH2      -42.7640  -65.7820  -48.4670 N.pl3 107  ARG107      0.1354
    143  N        -47.8590  -63.1710  -54.6840 N.3   111  ARG111     -0.1245
    144  CA       -46.4470  -62.7700  -54.9470 C.3   111  ARG111      0.1563
    145  C        -46.0540  -62.8820  -56.3880 C.2   111  ARG111      0.2260
    146  O        -44.9290  -62.4960  -56.7520 O.2   111  ARG111     -0.2867
    147  CB       -45.4150  -63.5580  -54.1480 C.3   111  ARG111      0.0307
    148  CG       -45.6440  -63.4890  -52.6650 C.3   111  ARG111      0.0489
    149  CD       -44.4700  -64.1020  -51.8430 C.3   111  ARG111      0.2205
    150  NE       -45.0160  -64.2780  -50.4970 N.pl3 111  ARG111     -0.0865
    151  CZ       -45.0400  -63.3180  -49.5670 C.cat 111  ARG111      0.5346
    152  NH1      -44.4320  -62.1550  -49.7740 N.pl3 111  ARG111      0.1354
    153  NH2      -45.5770  -63.5740  -48.3680 N.pl3 111  ARG111      0.1354
@<TRIPOS>BOND
     1   131   129    1
     2   108   110   ar
     3   108   106   ar
     4   110   109   ar
     5   146   145    2
     6   127   128    2
     7   127   126    1
     8   101   102    1
     9   145   144    1
    10   106   105    1
    11   106   107   ar
    12   125   126    1
    13   129   126    1
    14   129   130    1
    15   109   107   ar
    16   104   103    2
    17   105   102    1
    18    97    99   ar
    19    97    96   ar
    20   102   103    1
    21    94    93    2
    22    92    93    1
    23    92    91    1
    24    92    95    1
    25   122   121    2
    26    99   100   ar
    27   103   111   am
    28   144   143    1
    29   144   147    1
    30    75    76    1
    31   132   133    1
    32    95    96    1
    33   121   120    1
    34    96    98   ar
    35   135   134    2
    36   147   148    1
    37    76    79    1
    38    76    77    1
    39   114   113    2
    40   111   112    1
    41   100    98   ar
    42   134   133    1
    43   113   112    1
    44   113   119   am
    45    79    80    1
    46   133   136    1
    47   112   115    1
    48    77    78    2
    49   120   119    1
    50   120   123    1
    51   148   149    1
    52   136   137    1
    53    81    80    2
    54    80    82   am
    55   137   138    1
    56   124   123    1
    57    86    85    2
    58   149   150    1
    59   138   139    1
    60   116   115    1
    61   116   118    1
    62   115   117    1
    63    90    89    2
    64    83    84    1
    65    89    88    1
    66    85    84    1
    67    85    87   am
    68   150   151    2
    69   139   140    2
    70   141   140    1
    71    88    87    1
    72   152   151    1
    73   140   142    1
    74   151   153    1
    75    22    21    1
    76    72    70   ar
    77    72    73   ar
    78    70    68   ar
    79    23    21    1
    80    74    73    1
    81     7     1    1
    82     7     6    1
    83    21    20    1
    84    73    71   ar
    85    66    65    2
    86    64    65    1
    87    64    67    1
    88    64    63    1
    89    68    67    1
    90    68    69   ar
    91     1     2    1
    92    41    40    1
    93     6     5    1
    94    20    17    1
    95    42    40    1
    96    71    69   ar
    97     4     3    2
    98    40    39    1
    99     5     2    1
   100     2     3    1
   101     3     8   am
   102    17    16    1
   103    17    18    1
   104    16    10   am
   105    19    18    2
   106    39    36    1
   107    15    13   am
   108     8     9    1
   109    10     9    1
   110    10    11    2
   111    12     9    1
   112    12    13    1
   113    57    56    2
   114    36    37    1
   115    36    35    1
   116    61    60   ar
   117    13    14    2
   118    37    38    2
   119    35    26   am
   120    56    55    1
   121    58    55    1
   122    58    59    1
   123    60    62   ar
   124    60    59    1
   125    46    45    2
   126    24    25    1
   127    55    54    1
   128    26    27    2
   129    26    25    1
   130    25    28    1
   131    45    54   am
   132    45    44    1
   133    28    29    1
   134    29    30    1
   135    43    44    1
   136    44    47    1
   137    47    48    1
   138    30    31    1
   139    31    32    2
   140    48    49    1
   141    32    34    1
   142    32    33    1
   143    49    50    1
   144    50    51    2
   145    51    53    1
   146    51    52    1
