@<TRIPOS>MOLECULE
tmp/3n7aR00.pdb
 106 100 0 0 0
SMALL
GASTEIGER

@<TRIPOS>ATOM
      1  N        -40.5200  -30.8510  -58.2660 N.3     9  PRO9       -0.2116
      2  CA       -39.3440  -31.0010  -59.1510 C.3     9  PRO9        0.1372
      3  C        -38.9090  -32.4740  -59.2150 C.2     9  PRO9        0.2244
      4  O        -38.9910  -33.1630  -58.1630 O.2     9  PRO9       -0.2868
      5  CB       -38.2760  -30.1640  -58.4530 C.3     9  PRO9        0.0268
      6  CG       -39.1140  -29.0590  -57.7120 C.3     9  PRO9        0.0207
      7  CD       -40.3960  -29.7390  -57.3150 C.3     9  PRO9        0.0892
      8  N        -39.9370  -35.2210  -60.3310 N.3    11  LEU11      -0.1245
      9  CA       -40.9150  -36.2960  -60.3670 C.3    11  LEU11       0.1561
     10  C        -41.4500  -36.6140  -61.7920 C.2    11  LEU11       0.2260
     11  O        -42.1180  -37.6190  -61.9630 O.2    11  LEU11      -0.2867
     12  CB       -42.0700  -36.0100  -59.3890 C.3    11  LEU11       0.0270
     13  CG       -41.6680  -36.2440  -57.9060 C.3    11  LEU11       0.0019
     14  CD1      -42.4430  -35.3760  -56.9490 C.3    11  LEU11       0.0001
     15  CD2      -41.8450  -37.7000  -57.4910 C.3    11  LEU11       0.0001
     16  N        -38.3520  -45.2000  -55.7210 N.3    22  TYR22      -0.1241
     17  CA       -39.6240  -44.5850  -56.1740 C.3    22  TYR22       0.1605
     18  C        -40.6490  -45.4630  -57.0020 C.2    22  TYR22       0.2264
     19  O        -41.7650  -44.9930  -57.3130 O.2    22  TYR22      -0.2867
     20  CB       -39.3500  -43.2220  -56.8460 C.3    22  TYR22       0.0534
     21  CG       -38.5130  -42.2150  -56.0400 C.ar   22  TYR22      -0.0201
     22  CD1      -37.1630  -41.9940  -56.3470 C.ar   22  TYR22      -0.0009
     23  CD2      -39.0720  -41.4570  -54.9980 C.ar   22  TYR22      -0.0009
     24  CE1      -36.3770  -41.0410  -55.6270 C.ar   22  TYR22       0.0417
     25  CE2      -38.2910  -40.5020  -54.2600 C.ar   22  TYR22       0.0417
     26  CZ       -36.9510  -40.3030  -54.5810 C.ar   22  TYR22       0.1957
     27  OH       -36.1690  -39.3690  -53.8740 O.3    22  TYR22      -0.2866
     28  N        -47.2880  -34.0350  -53.6940 N.3    73  ASN73      -0.1240
     29  CA       -45.9320  -34.5250  -53.4960 C.3    73  ASN73       0.1653
     30  C        -45.0050  -33.4540  -53.9700 C.2    73  ASN73       0.2266
     31  O        -44.7120  -33.3770  -55.1750 O.2    73  ASN73      -0.2867
     32  CB       -45.6370  -35.7780  -54.3400 C.3    73  ASN73       0.1155
     33  CG       -44.3210  -36.4200  -53.9970 C.2    73  ASN73       0.2627
     34  OD1      -43.3860  -35.7670  -53.5040 O.2    73  ASN73      -0.2716
     35  ND2      -44.2260  -37.7060  -54.2750 N.am   73  ASN73      -0.0877
     36  N        -41.7640  -33.1570  -53.5950 N.3    75  GLY75      -0.1210
     37  CA       -40.3380  -33.3840  -53.9230 C.3    75  GLY75       0.1956
     38  C        -39.4420  -32.5580  -53.0010 C.2    75  GLY75       0.2612
     39  O        -39.7750  -32.4170  -51.8210 O.2    75  GLY75      -0.2717
     40  N        -38.2870  -32.0920  -53.4840 N.am   76  GLY76      -0.1956
     41  CA       -37.3220  -31.3640  -52.5960 C.3    76  GLY76       0.1869
     42  C        -37.9350  -30.1110  -51.9090 C.2    76  GLY76       0.2309
     43  O        -37.5170  -29.7330  -50.8080 O.2    76  GLY76      -0.2863
     44  N        -38.9490  -29.7560  -48.0930 N.3    79  HIS79      -0.1241
     45  CA       -38.0170  -29.5060  -47.0390 C.3    79  HIS79       0.1621
     46  C        -37.4840  -28.0550  -47.0690 C.2    79  HIS79       0.2264
     47  O        -36.8170  -27.6210  -46.1330 O.2    79  HIS79      -0.2867
     48  CB       -36.8310  -30.4690  -47.1620 C.3    79  HIS79       0.0745
     49  CG       -37.2320  -31.8650  -47.5430 C.ar   79  HIS79       0.0817
     50  ND1      -38.0170  -32.6660  -46.7370 N.ar   79  HIS79      -0.2268
     51  CD2      -37.0280  -32.5710  -48.6810 C.ar   79  HIS79       0.1154
     52  CE1      -38.2550  -33.8070  -47.3480 C.ar   79  HIS79       0.1986
     53  NE2      -37.6680  -33.7730  -48.5310 N.ar   79  HIS79      -0.2212
     54  N        -45.4830  -38.7470  -49.9460 N.3    99  HIS99      -0.1226
     55  CA       -44.1390  -39.0750  -50.2480 C.3    99  HIS99       0.1752
     56  C        -44.1180  -40.5430  -50.6480 C.2    99  HIS99       0.2596
     57  O        -44.6880  -41.3940  -49.9690 O.2    99  HIS99      -0.2718
     58  CB       -43.1740  -38.7960  -49.0870 C.3    99  HIS99       0.0759
     59  CG       -43.0910  -37.3530  -48.7750 C.ar   99  HIS99       0.0818
     60  ND1      -42.6640  -36.4300  -49.7130 N.ar   99  HIS99      -0.2268
     61  CD2      -43.5230  -36.6430  -47.6990 C.ar   99  HIS99       0.1154
     62  CE1      -42.8410  -35.2110  -49.2310 C.ar   99  HIS99       0.1986
     63  NE2      -43.3490  -35.3130  -48.0060 N.ar   99  HIS99      -0.2212
     64  N        -43.5110  -40.7870  -51.7960 N.am  100  ILE100     -0.1966
     65  CA       -43.4220  -42.1250  -52.3740 C.3   100  ILE100      0.1727
     66  C        -42.5130  -42.9700  -51.4810 C.2   100  ILE100      0.2616
     67  O        -42.9490  -44.0410  -51.0110 O.2   100  ILE100     -0.2715
     68  CB       -42.9390  -42.0430  -53.8540 C.3   100  ILE100      0.0290
     69  CG1      -44.0850  -41.4290  -54.7020 C.3   100  ILE100      0.0022
     70  CG2      -42.4550  -43.4010  -54.3630 C.3   100  ILE100      0.0023
     71  CD1      -43.7620  -41.1280  -56.1110 C.3   100  ILE100      0.0001
     72  N        -41.3020  -42.4610  -51.2450 N.am  101  SER101     -0.1950
     73  CA       -40.3320  -43.0850  -50.3350 C.3   101  SER101      0.1924
     74  C        -40.5970  -42.7740  -48.8660 C.2   101  SER101      0.2314
     75  O        -41.2770  -41.7780  -48.5120 O.2   101  SER101     -0.2863
     76  CB       -38.9240  -42.5990  -50.6140 C.3   101  SER101      0.2116
     77  OG       -38.8290  -41.2180  -50.2540 O.3   101  SER101     -0.2180
     78  N        -39.3940  -41.0950  -46.2350 N.3   103  VAL103     -0.1245
     79  CA       -38.4740  -39.9840  -45.9070 C.3   103  VAL103      0.1561
     80  C        -37.8350  -40.0960  -44.5120 C.2   103  VAL103      0.2260
     81  O        -36.7710  -39.5120  -44.2660 O.2   103  VAL103     -0.2867
     82  CB       -39.1440  -38.5910  -46.0950 C.3   103  VAL103      0.0252
     83  CG1      -39.4180  -38.3520  -47.5700 C.3   103  VAL103      0.0019
     84  CG2      -40.3920  -38.4560  -45.2150 C.3   103  VAL103      0.0019
     85  N        -34.1800  -42.0650  -44.4950 N.3   106  ARG106     -0.1245
     86  CA       -33.2410  -41.6150  -45.5170 C.3   106  ARG106      0.1563
     87  C        -32.3210  -40.5980  -44.8410 C.2   106  ARG106      0.2260
     88  O        -32.0380  -40.7570  -43.6700 O.2   106  ARG106     -0.2867
     89  CB       -34.0020  -41.0110  -46.7040 C.3   106  ARG106      0.0307
     90  CG       -34.7660  -42.0170  -47.4630 C.3   106  ARG106      0.0489
     91  CD       -35.4770  -41.4030  -48.6860 C.3   106  ARG106      0.2205
     92  NE       -34.5450  -41.1250  -49.7730 N.pl3 106  ARG106     -0.0865
     93  CZ       -34.9470  -40.5610  -50.9010 C.cat 106  ARG106      0.5346
     94  NH1      -36.2180  -40.1650  -51.0200 N.pl3 106  ARG106      0.1354
     95  NH2      -34.0900  -40.3560  -51.8750 N.pl3 106  ARG106      0.1354
     96  N        -34.3430  -34.9970  -44.8360 N.3   110  ARG110     -0.1245
     97  CA       -35.6490  -35.3350  -45.4090 C.3   110  ARG110      0.1563
     98  C        -36.7430  -35.5680  -44.3450 C.2   110  ARG110      0.2260
     99  O        -37.9430  -35.7710  -44.7000 O.2   110  ARG110     -0.2867
    100  CB       -35.5920  -36.5650  -46.3480 C.3   110  ARG110      0.0307
    101  CG       -34.6530  -36.4320  -47.4880 C.3   110  ARG110      0.0489
    102  CD       -34.7860  -37.6070  -48.4920 C.3   110  ARG110      0.2205
    103  NE       -33.6010  -37.5970  -49.3340 N.pl3 110  ARG110     -0.0865
    104  CZ       -33.4970  -36.8740  -50.4460 C.cat 110  ARG110      0.5346
    105  NH1      -34.5440  -36.1740  -50.8590 N.pl3 110  ARG110      0.1354
    106  NH2      -32.3710  -36.8900  -51.1580 N.pl3 110  ARG110      0.1354
@<TRIPOS>BOND
     1    11    10    2
     2    10     9    1
     3     9     8    1
     4     9    12    1
     5    12    13    1
     6     3     2    1
     7     3     4    2
     8     2     5    1
     9     2     1    1
    10     5     6    1
    11     1     7    1
    12    13    15    1
    13    13    14    1
    14     6     7    1
    15    19    18    2
    16    18    17    1
    17    20    17    1
    18    20    21    1
    19    22    21   ar
    20    22    24   ar
    21    17    16    1
    22    71    69    1
    23    21    23   ar
    24    24    26   ar
    25    31    30    2
    26    23    25   ar
    27    69    68    1
    28    26    25   ar
    29    26    27    1
    30    70    68    1
    31    32    33    1
    32    32    29    1
    33    35    33   am
    34    33    34    2
    35    30    29    1
    36    37    36    1
    37    37    38    1
    38    68    65    1
    39    28    29    1
    40    40    38   am
    41    40    41    1
    42    38    39    2
    43    41    42    1
    44    65    64    1
    45    65    66    1
    46    42    43    2
    47    95    93    1
    48    64    56   am
    49    66    72   am
    50    66    67    2
    51    72    73    1
    52   106   104    1
    53    94    93    1
    54    93    92    2
    55   105   104    1
    56    56    55    1
    57    56    57    2
    58    76    73    1
    59    76    77    1
    60   104   103    2
    61    73    74    1
    62    55    54    1
    63    55    58    1
    64    92    91    1
    65    60    62   ar
    66    60    59   ar
    67   103   102    1
    68    62    63   ar
    69    58    59    1
    70    74    75    2
    71    59    61   ar
    72    91    90    1
    73    51    53   ar
    74    51    49   ar
    75    53    52   ar
    76   102   101    1
    77    44    45    1
    78    63    61   ar
    79    83    82    1
    80    49    48    1
    81    49    50   ar
    82   101   100    1
    83    90    89    1
    84    52    50   ar
    85    48    45    1
    86    46    45    1
    87    46    47    2
    88    89    86    1
    89   100    97    1
    90    78    79    1
    91    82    79    1
    92    82    84    1
    93    79    80    1
    94    86    87    1
    95    86    85    1
    96    97    96    1
    97    97    98    1
    98    87    88    2
    99    99    98    2
   100    80    81    2
