@<TRIPOS>MOLECULE
tmp/3n7aT00.pdb
 106 100 0 0 0
SMALL
GASTEIGER

@<TRIPOS>ATOM
      1  N         -1.0000  -41.3330  -23.3060 N.3     9  PRO9       -0.2116
      2  CA        -0.3530  -40.3720  -22.4350 C.3     9  PRO9        0.1372
      3  C         -0.7410  -40.4110  -21.0040 C.2     9  PRO9        0.2244
      4  O         -1.9290  -40.5940  -20.6640 O.2     9  PRO9       -0.2868
      5  CB        -0.7800  -39.0080  -23.0090 C.3     9  PRO9        0.0268
      6  CG        -1.1570  -39.3010  -24.4440 C.3     9  PRO9        0.0207
      7  CD        -1.4840  -40.7300  -24.5560 C.3     9  PRO9        0.0892
      8  N         -0.3670  -42.4180  -18.6990 N.3    11  LEU11      -0.1245
      9  CA        -0.5060  -43.7010  -18.0630 C.3    11  LEU11       0.1561
     10  C          0.7960  -44.3030  -17.4560 C.2    11  LEU11       0.2260
     11  O          0.7560  -45.2070  -16.5910 O.2    11  LEU11      -0.2867
     12  CB        -1.2730  -44.6960  -18.9510 C.3    11  LEU11       0.0270
     13  CG        -2.7240  -44.1770  -19.0620 C.3    11  LEU11       0.0019
     14  CD1       -3.4720  -44.7040  -20.3180 C.3    11  LEU11       0.0001
     15  CD2       -3.5530  -44.3260  -17.7360 C.3    11  LEU11       0.0001
     16  N         -8.1460  -44.1640  -10.6280 N.3    22  TYR22      -0.1241
     17  CA        -7.3490  -45.0760  -11.4870 C.3    22  TYR22       0.1605
     18  C         -6.6980  -46.3070  -10.7860 C.2    22  TYR22       0.2264
     19  O         -5.9840  -47.0800  -11.4490 O.2    22  TYR22      -0.2867
     20  CB        -6.2700  -44.3110  -12.2810 C.3    22  TYR22       0.0534
     21  CG        -6.7770  -43.2140  -13.1850 C.ar   22  TYR22      -0.0201
     22  CD1       -7.5610  -43.5150  -14.3200 C.ar   22  TYR22      -0.0009
     23  CD2       -6.4990  -41.8670  -12.9010 C.ar   22  TYR22      -0.0009
     24  CE1       -8.0290  -42.5110  -15.1370 C.ar   22  TYR22       0.0417
     25  CE2       -6.9820  -40.8410  -13.7280 C.ar   22  TYR22       0.0417
     26  CZ        -7.7320  -41.1850  -14.8540 C.ar   22  TYR22       0.1957
     27  OH        -8.2150  -40.1900  -15.6750 O.3    22  TYR22      -0.2866
     28  N         -5.6820  -48.4250  -24.2300 N.3    73  ASN73      -0.1240
     29  CA        -6.0960  -47.3020  -23.4000 C.3    73  ASN73       0.1653
     30  C         -5.4010  -46.0500  -23.8830 C.2    73  ASN73       0.2266
     31  O         -4.2860  -45.8130  -23.4980 O.2    73  ASN73      -0.2867
     32  CB        -5.7650  -47.5500  -21.9060 C.3    73  ASN73       0.1155
     33  CG        -6.3960  -46.5210  -20.9690 C.2    73  ASN73       0.2627
     34  OD1       -6.8220  -45.4320  -21.3750 O.2    73  ASN73      -0.2716
     35  ND2       -6.3810  -46.8450  -19.6680 N.am   73  ASN73      -0.0877
     36  N         -5.9660  -43.0230  -23.1790 N.3    75  GLY75      -0.1210
     37  CA        -5.9490  -41.9250  -22.2160 C.3    75  GLY75       0.1956
     38  C         -6.6840  -40.7340  -22.8290 C.2    75  GLY75       0.2612
     39  O         -7.7070  -40.9150  -23.4760 O.2    75  GLY75      -0.2717
     40  N         -6.1260  -39.5310  -22.7350 N.am   76  GLY76      -0.1956
     41  CA        -6.8220  -38.3560  -23.2960 C.3    76  GLY76       0.1869
     42  C         -7.0110  -38.2760  -24.7860 C.2    76  GLY76       0.2309
     43  O         -7.8700  -37.5250  -25.2710 O.2    76  GLY76      -0.2863
     44  N        -10.5000  -39.0740  -26.7160 N.3    79  HIS79      -0.1241
     45  CA       -11.5320  -38.0840  -26.9170 C.3    79  HIS79       0.1621
     46  C        -11.1770  -37.1000  -28.0520 C.2    79  HIS79       0.2264
     47  O        -12.0270  -36.3220  -28.4750 O.2    79  HIS79      -0.2867
     48  CB       -11.7890  -37.3120  -25.5850 C.3    79  HIS79       0.0745
     49  CG       -11.8040  -38.1980  -24.3610 C.ar   79  HIS79       0.0817
     50  ND1      -12.6800  -39.2640  -24.2150 N.ar   79  HIS79      -0.2268
     51  CD2      -10.9930  -38.2290  -23.2660 C.ar   79  HIS79       0.1154
     52  CE1      -12.4410  -39.8820  -23.0670 C.ar   79  HIS79       0.1986
     53  NE2      -11.4360  -39.2630  -22.4630 N.ar   79  HIS79      -0.2212
     54  N        -11.0090  -48.4500  -20.6310 N.3    99  HIS99      -0.1226
     55  CA       -10.7160  -47.3200  -19.7010 C.3    99  HIS99       0.1752
     56  C        -10.7940  -47.8360  -18.2940 C.2    99  HIS99       0.2596
     57  O        -11.7350  -48.5320  -17.8930 O.2    99  HIS99      -0.2718
     58  CB       -11.6280  -46.0700  -19.9140 C.3    99  HIS99       0.0759
     59  CG       -11.6400  -45.5940  -21.3210 C.ar   99  HIS99       0.0818
     60  ND1      -10.6210  -44.8210  -21.8480 N.ar   99  HIS99      -0.2268
     61  CD2      -12.4770  -45.8850  -22.3550 C.ar   99  HIS99       0.1154
     62  CE1      -10.8330  -44.6540  -23.1420 C.ar   99  HIS99       0.1986
     63  NE2      -11.9590  -45.2750  -23.4720 N.ar   99  HIS99      -0.2212
     64  N         -9.8030  -47.4740  -17.5190 N.am  100  ILE100     -0.1966
     65  CA        -9.7910  -47.8980  -16.1360 C.3   100  ILE100      0.1727
     66  C        -10.9660  -47.2780  -15.3510 C.2   100  ILE100      0.2616
     67  O        -11.6490  -47.9880  -14.5570 O.2   100  ILE100     -0.2715
     68  CB        -8.3780  -47.5460  -15.5150 C.3   100  ILE100      0.0290
     69  CG1       -7.2430  -48.3140  -16.2540 C.3   100  ILE100      0.0022
     70  CG2       -8.3390  -47.6500  -14.0300 C.3   100  ILE100      0.0023
     71  CD1       -5.9490  -47.5530  -16.0960 C.3   100  ILE100      0.0001
     72  N        -11.1500  -45.9610  -15.4880 N.am  101  SER101     -0.1950
     73  CA       -12.1720  -45.2590  -14.6730 C.3   101  SER101      0.1924
     74  C        -13.4650  -45.3880  -15.4300 C.2   101  SER101      0.2314
     75  O        -13.4320  -45.7570  -16.5870 O.2   101  SER101     -0.2863
     76  CB       -11.8500  -43.7480  -14.5420 C.3   101  SER101      0.2116
     77  OG       -11.8850  -43.0850  -15.8120 O.3   101  SER101     -0.2180
     78  N        -15.6840  -43.6320  -17.3440 N.3   103  VAL103     -0.1245
     79  CA       -15.6480  -42.3400  -18.0590 C.3   103  VAL103      0.1561
     80  C        -17.0310  -41.6070  -18.1520 C.2   103  VAL103      0.2260
     81  O        -17.0960  -40.3340  -18.2870 O.2   103  VAL103     -0.2867
     82  CB       -14.9520  -42.4590  -19.4770 C.3   103  VAL103      0.0252
     83  CG1      -13.4590  -42.6110  -19.2920 C.3   103  VAL103      0.0019
     84  CG2      -15.5250  -43.5480  -20.3300 C.3   103  VAL103      0.0019
     85  N        -17.9080  -39.1660  -15.1920 N.3   106  ARG106     -0.1245
     86  CA       -16.8900  -38.1380  -14.9660 C.3   106  ARG106      0.1563
     87  C        -17.3100  -36.8850  -15.7690 C.2   106  ARG106      0.2260
     88  O        -18.5340  -36.6600  -15.9510 O.2   106  ARG106     -0.2867
     89  CB       -15.5120  -38.6940  -15.3780 C.3   106  ARG106      0.0307
     90  CG       -15.0700  -39.8450  -14.4440 C.3   106  ARG106      0.0489
     91  CD       -13.6270  -40.2950  -14.7750 C.3   106  ARG106      0.2205
     92  NE       -12.6450  -39.2710  -14.3900 N.pl3 106  ARG106     -0.0865
     93  CZ       -11.3770  -39.2770  -14.7710 C.cat 106  ARG106      0.5346
     94  NH1      -10.9020  -40.3080  -15.4940 N.pl3 106  ARG106      0.1354
     95  NH2      -10.5700  -38.2610  -14.3820 N.pl3 106  ARG106      0.1354
     96  N        -15.4720  -36.6480  -21.3040 N.3   110  ARG110     -0.1245
     97  CA       -14.8420  -38.0020  -21.2780 C.3   110  ARG110      0.1563
     98  C        -15.8160  -39.0290  -21.8290 C.2   110  ARG110      0.2260
     99  O        -15.4640  -40.2460  -22.0270 O.2   110  ARG110     -0.2867
    100  CB       -14.3160  -38.4090  -19.8750 C.3   110  ARG110      0.0307
    101  CG       -13.1860  -37.5110  -19.3770 C.3   110  ARG110      0.0489
    102  CD       -12.6540  -38.0460  -18.0460 C.3   110  ARG110      0.2205
    103  NE       -11.8350  -37.0120  -17.4110 N.pl3 110  ARG110     -0.0865
    104  CZ       -10.5780  -36.6880  -17.7680 C.cat 110  ARG110      0.5346
    105  NH1       -9.8830  -37.3410  -18.7110 N.pl3 110  ARG110      0.1354
    106  NH2      -10.0030  -35.7190  -17.1510 N.pl3 110  ARG110      0.1354
@<TRIPOS>BOND
     1    47    46    2
     2    46    45    1
     3    45    44    1
     4    45    48    1
     5    48    49    1
     6    43    42    2
     7    42    41    1
     8     7     6    1
     9     7     1    1
    10     6     5    1
    11    49    50   ar
    12    49    51   ar
    13    28    29    1
    14    50    52   ar
    15    30    31    2
    16    30    29    1
    17    39    38    2
    18    63    62   ar
    19    63    61   ar
    20    29    32    1
    21     1     2    1
    22    41    40    1
    23    51    53   ar
    24    36    37    1
    25    62    60   ar
    26    52    53   ar
    27     5     2    1
    28    38    40   am
    29    38    37    1
    30     2     3    1
    31    61    59   ar
    32    99    98    2
    33    32    33    1
    34    60    59   ar
    35    98    97    1
    36    34    33    2
    37    59    58    1
    38    96    97    1
    39    97   100    1
    40     3     4    2
    41    33    35   am
    42    54    55    1
    43    84    82    1
    44    14    13    1
    45    58    55    1
    46   100   101    1
    47    55    56    1
    48    82    83    1
    49    82    79    1
    50   101   102    1
    51    13    12    1
    52    13    15    1
    53    12     9    1
    54   105   104    1
    55     8     9    1
    56    56    57    2
    57    56    64   am
    58    81    80    2
    59    80    79    1
    60     9    10    1
    61    79    78    1
    62   102   103    1
    63   104   103    2
    64   104   106    1
    65    64    65    1
    66    10    11    2
    67    75    74    2
    68    69    71    1
    69    69    68    1
    70    65    68    1
    71    65    66    1
    72    88    87    2
    73    77    76    1
    74    87    86    1
    75    27    26    1
    76    68    70    1
    77    94    93    1
    78    72    66   am
    79    72    73    1
    80    74    73    1
    81    89    86    1
    82    89    90    1
    83    66    67    2
    84    85    86    1
    85    24    26   ar
    86    24    22   ar
    87    26    25   ar
    88    91    90    1
    89    91    92    1
    90    93    92    2
    91    93    95    1
    92    73    76    1
    93    22    21   ar
    94    25    23   ar
    95    21    23   ar
    96    21    20    1
    97    20    17    1
    98    17    18    1
    99    17    16    1
   100    19    18    2
