@<TRIPOS>MOLECULE
tmp/3n7hA01.pdb
 175 168 0 0 0
SMALL
GASTEIGER

@<TRIPOS>ATOM
      1  N         21.7680   -9.8090   10.4160 N.3    15  LEU15      -0.1245
      2  CA        21.1810   -9.2800   11.6540 C.3    15  LEU15       0.1561
      3  C         20.6920  -10.3920   12.5820 C.2    15  LEU15       0.2260
      4  O         20.9540  -10.3610   13.8030 O.2    15  LEU15      -0.2867
      5  CB        20.0530   -8.2800   11.3600 C.3    15  LEU15       0.0270
      6  CG        19.4170   -7.5470   12.5510 C.3    15  LEU15       0.0019
      7  CD1       20.4660   -6.8270   13.4120 C.3    15  LEU15       0.0001
      8  CD2       18.3640   -6.5790   12.0880 C.3    15  LEU15       0.0001
      9  N         23.7020  -11.7990   14.2710 N.3    18  ALA18      -0.1231
     10  CA        24.2470  -10.9230   15.3080 C.3    18  ALA18       0.1694
     11  C         23.3600  -10.9600   16.5480 C.2    18  ALA18       0.2591
     12  O         23.8610  -10.8960   17.6660 O.2    18  ALA18      -0.2718
     13  CB        24.3860   -9.4950   14.7940 C.3    18  ALA18       0.0304
     14  N         22.0520  -11.1030   16.3430 N.am   19  LEU19      -0.1980
     15  CA        21.0920  -11.1570   17.4640 C.3    19  LEU19       0.1596
     16  C         21.1240  -12.4430   18.2990 C.2    19  LEU19       0.2287
     17  O         20.7430  -12.4480   19.4820 O.2    19  LEU19      -0.2864
     18  CB        19.6640  -10.8670   16.9720 C.3    19  LEU19       0.0297
     19  CG        19.4450   -9.3770   16.6580 C.3    19  LEU19       0.0022
     20  CD1       18.1180   -9.1800   15.9150 C.3    19  LEU19       0.0001
     21  CD2       19.4960   -8.5150   17.9200 C.3    19  LEU19       0.0001
     22  N         22.7090  -12.3680   21.7440 N.3    22  LEU22      -0.1245
     23  CA        21.9310  -11.4640   22.5880 C.3    22  LEU22       0.1561
     24  C         20.6390  -12.1270   23.0390 C.2    22  LEU22       0.2260
     25  O         20.2080  -11.9610   24.1870 O.2    22  LEU22      -0.2867
     26  CB        21.6230  -10.1630   21.8390 C.3    22  LEU22       0.0270
     27  CG        22.7750   -9.1610   21.7070 C.3    22  LEU22       0.0019
     28  CD1       23.9220   -9.6830   20.8880 C.3    22  LEU22       0.0001
     29  CD2       22.2430   -7.8880   21.0940 C.3    22  LEU22       0.0001
     30  N         17.2700   -6.8060   25.1840 N.3    58  LEU58      -0.1231
     31  CA        17.9640   -6.7680   23.8820 C.3    58  LEU58       0.1693
     32  C         18.5360   -5.3800   23.6430 C.2    58  LEU58       0.2592
     33  O         19.6520   -5.2630   23.1460 O.2    58  LEU58      -0.2718
     34  CB        17.0470   -7.1780   22.7200 C.3    58  LEU58       0.0284
     35  CG        16.6530   -8.6540   22.5660 C.3    58  LEU58       0.0019
     36  CD1       15.7260   -8.7400   21.3410 C.3    58  LEU58       0.0001
     37  CD2       17.8640   -9.6110   22.4480 C.3    58  LEU58       0.0001
     38  N         17.7850   -4.3330   24.0170 N.am   59  PHE59      -0.1976
     39  CA        18.2360   -2.9520   23.8240 C.3    59  PHE59       0.1639
     40  C         19.4920   -2.6880   24.6370 C.2    59  PHE59       0.2290
     41  O         20.4270   -2.0670   24.1410 O.2    59  PHE59      -0.2864
     42  CB        17.1360   -1.9440   24.2010 C.3    59  PHE59       0.0560
     43  CG        15.9350   -1.9250   23.2590 C.ar   59  PHE59      -0.0200
     44  CD1       14.6470   -1.9140   23.7970 C.ar   59  PHE59      -0.0042
     45  CD2       16.0950   -1.8810   21.8710 C.ar   59  PHE59      -0.0042
     46  CE1       13.5240   -1.8520   22.9800 C.ar   59  PHE59      -0.0003
     47  CE2       14.9710   -1.8300   21.0280 C.ar   59  PHE59      -0.0003
     48  CZ        13.6790   -1.8190   21.5960 C.ar   59  PHE59      -0.0000
     49  N         22.4680   -4.7770   23.2460 N.3    62  ALA62      -0.1245
     50  CA        22.8670   -4.2430   21.9560 C.3    62  ALA62       0.1562
     51  C         23.5370   -2.8690   22.0850 C.2    62  ALA62       0.2260
     52  O         24.0600   -2.3420   21.0890 O.2    62  ALA62      -0.2867
     53  CB        21.6670   -4.1780   21.0280 C.3    62  ALA62       0.0290
     54  N         22.1150    0.0580   22.7460 N.3    64  VAL64      -0.1245
     55  CA        21.3560    1.1020   22.0900 C.3    64  VAL64       0.1561
     56  C         20.4740    1.8360   23.0920 C.2    64  VAL64       0.2260
     57  O         19.3730    2.2680   22.7660 O.2    64  VAL64      -0.2867
     58  CB        20.5650    0.5770   20.8710 C.3    64  VAL64       0.0252
     59  CG1       21.5320    0.0320   19.8280 C.3    64  VAL64       0.0019
     60  CG2       19.5650   -0.5110   21.2670 C.3    64  VAL64       0.0019
     61  N         20.0610    2.9600   17.9660 N.3    76  LEU76      -0.1245
     62  CA        19.3750    1.8040   17.3930 C.3    76  LEU76       0.1561
     63  C         19.3910    1.8260   15.8600 C.2    76  LEU76       0.2260
     64  O         19.7180    0.8190   15.2400 O.2    76  LEU76      -0.2867
     65  CB        17.9420    1.6900   17.9400 C.3    76  LEU76       0.0270
     66  CG        17.0960    0.5270   17.3700 C.3    76  LEU76       0.0019
     67  CD1       17.7650   -0.8390   17.5600 C.3    76  LEU76       0.0001
     68  CD2       15.7190    0.5350   18.0040 C.3    76  LEU76       0.0001
     69  N         22.6120    0.8000   14.4310 N.3    79  SER79      -0.1202
     70  CA        22.9440   -0.6090   14.6460 C.3    79  SER79       0.2020
     71  C         22.3110   -1.5130   13.5950 C.2    79  SER79       0.2618
     72  O         22.6390   -2.7080   13.5090 O.2    79  SER79      -0.2717
     73  CB        22.5300   -1.0620   16.0510 C.3    79  SER79       0.2103
     74  OG        21.1320   -1.2650   16.1440 O.3    79  SER79      -0.2182
     75  N         21.4170   -0.9540   12.7960 N.am   80  LEU80      -0.1979
     76  CA        20.7100   -1.7510   11.8050 C.3    80  LEU80       0.1596
     77  C         21.4080   -1.6870   10.4570 C.2    80  LEU80       0.2287
     78  O         21.9950   -0.6580   10.1140 O.2    80  LEU80      -0.2864
     79  CB        19.2690   -1.2580   11.6430 C.3    80  LEU80       0.0297
     80  CG        18.3880   -1.3540   12.8800 C.3    80  LEU80       0.0022
     81  CD1       17.0460   -0.6980   12.5870 C.3    80  LEU80       0.0001
     82  CD2       18.2040   -2.8190   13.3040 C.3    80  LEU80       0.0001
     83  N         17.6800   -1.9970    6.0190 N.3    84  MET84      -0.1245
     84  CA        16.5120   -1.7180    6.8690 C.3    84  MET84       0.1570
     85  C         16.3080   -0.2650    7.2560 C.2    84  MET84       0.2261
     86  O         15.3590    0.0570    7.9840 O.2    84  MET84      -0.2867
     87  CB        16.6380   -2.4870    8.1720 C.3    84  MET84       0.0387
     88  CG        16.4220   -3.9580    8.0330 C.3    84  MET84       0.0595
     89  SD        16.6100   -4.6500    9.6720 S.3    84  MET84      -0.1393
     90  CE        15.1210   -4.0510   10.5010 C.3    84  MET84       0.0692
     91  N         12.8670    1.1320    8.8200 N.3    88  ALA88      -0.1245
     92  CA        12.8820    1.4850   10.2350 C.3    88  ALA88       0.1562
     93  C         12.4190    2.9210   10.4860 C.2    88  ALA88       0.2260
     94  O         11.6920    3.1820   11.4640 O.2    88  ALA88      -0.2867
     95  CB        14.2670    1.2280   10.8460 C.3    88  ALA88       0.0290
     96  N          8.6710    2.9660   10.1420 N.3    91  MET91      -0.1245
     97  CA         8.1570    2.1760   11.2450 C.3    91  MET91       0.1570
     98  C          8.1990    2.9640   12.5570 C.2    91  MET91       0.2261
     99  O          7.2930    2.8540   13.3930 O.2    91  MET91      -0.2867
    100  CB         8.9750    0.8900   11.3580 C.3    91  MET91       0.0387
    101  CG         8.4740   -0.0880   12.3740 C.3    91  MET91       0.0595
    102  SD         9.6160   -1.4660   12.3990 S.3    91  MET91      -0.1393
    103  CE         9.0530   -2.4080   10.9870 C.3    91  MET91       0.0692
    104  N          8.0470   -1.8310   20.7110 N.3   111  HIS111     -0.1241
    105  CA         7.8080   -2.9860   19.8660 C.3   111  HIS111      0.1621
    106  C          6.3810   -3.0600   19.3790 C.2   111  HIS111      0.2264
    107  O          6.1430   -3.3090   18.1940 O.2   111  HIS111     -0.2867
    108  CB         8.2000   -4.2650   20.5960 C.3   111  HIS111      0.0745
    109  CG         9.6760   -4.4920   20.6010 C.ar  111  HIS111      0.0817
    110  ND1       10.3060   -5.2760   19.6570 N.ar  111  HIS111     -0.2268
    111  CD2       10.6520   -4.0190   21.4150 C.ar  111  HIS111      0.1154
    112  CE1       11.6050   -5.2870   19.8930 C.ar  111  HIS111      0.1986
    113  NE2       11.8430   -4.5350   20.9520 N.ar  111  HIS111     -0.2212
    114  N          5.9090   -0.2790   16.7720 N.3   114  TRP114     -0.1241
    115  CA         6.5400   -0.6330   15.5190 C.3   114  TRP114      0.1605
    116  C          5.6940   -1.6630   14.7930 C.2   114  TRP114      0.2264
    117  O          5.4550   -1.5320   13.5990 O.2   114  TRP114     -0.2867
    118  CB         7.9270   -1.2070   15.7520 C.3   114  TRP114      0.0550
    119  CG         8.9230   -0.1860   16.2530 C.ar  114  TRP114      0.0003
    120  CD1        8.8870    1.1700   16.0610 C.ar  114  TRP114      0.0946
    121  CD2       10.0870   -0.4520   17.0450 C.ar  114  TRP114      0.0152
    122  NE1        9.9730    1.7640   16.6750 N.ar  114  TRP114     -0.2442
    123  CE2       10.7200    0.7880   17.2820 C.ar  114  TRP114      0.0810
    124  CE3       10.6640   -1.6220   17.5650 C.ar  114  TRP114      0.0012
    125  CZ2       11.8940    0.9000   18.0350 C.ar  114  TRP114      0.0191
    126  CZ3       11.8360   -1.5110   18.3110 C.ar  114  TRP114      0.0001
    127  CH2       12.4310   -0.2540   18.5440 C.ar  114  TRP114      0.0015
    128  N          7.1470   -5.7460    8.1320 N.3   121  HIS121     -0.1226
    129  CA         8.5760   -5.7530    8.3640 C.3   121  HIS121      0.1752
    130  C          8.9630   -5.8930    9.8160 C.2   121  HIS121      0.2596
    131  O         10.1070   -6.2510   10.1090 O.2   121  HIS121     -0.2718
    132  CB         9.2090   -4.5000    7.7540 C.3   121  HIS121      0.0759
    133  CG         9.0940   -4.4500    6.2690 C.ar  121  HIS121      0.0818
    134  ND1        8.2520   -3.5720    5.6250 N.ar  121  HIS121     -0.2268
    135  CD2        9.6790   -5.1940    5.2960 C.ar  121  HIS121      0.1154
    136  CE1        8.3330   -3.7640    4.3190 C.ar  121  HIS121      0.1986
    137  NE2        9.1830   -4.7480    4.0940 N.ar  121  HIS121     -0.2212
    138  N          8.0140   -5.6400   10.7250 N.am  122  TYR122     -0.1962
    139  CA         8.3210   -5.8570   12.1310 C.3   122  TYR122      0.1771
    140  C          8.6700   -7.3340   12.3420 C.2   122  TYR122      0.2620
    141  O          8.0140   -8.2190   11.7770 O.2   122  TYR122     -0.2715
    142  CB         7.1430   -5.4910   13.0590 C.3   122  TYR122      0.0574
    143  CG         7.5140   -5.8560   14.4740 C.ar  122  TYR122     -0.0198
    144  CD1        8.3100   -5.0160   15.2350 C.ar  122  TYR122     -0.0009
    145  CD2        7.1600   -7.1030   15.0070 C.ar  122  TYR122     -0.0009
    146  CE1        8.7170   -5.3610   16.4930 C.ar  122  TYR122      0.0417
    147  CE2        7.5730   -7.4790   16.2610 C.ar  122  TYR122      0.0417
    148  CZ         8.3380   -6.6060   17.0120 C.ar  122  TYR122      0.1957
    149  OH         8.7370   -6.9990   18.2560 O.3   122  TYR122     -0.2866
    150  N          9.6870   -7.5940   13.1650 N.am  123  PHE123     -0.1960
    151  CA        10.0180   -8.9490   13.6010 C.3   123  PHE123      0.1771
    152  C         10.7040   -8.8610   14.9530 C.2   123  PHE123      0.2619
    153  O         11.1470   -7.7950   15.3770 O.2   123  PHE123     -0.2715
    154  CB        10.9410   -9.6630   12.6010 C.3   123  PHE123      0.0574
    155  CG        12.3070   -9.0550   12.4880 C.ar  123  PHE123     -0.0200
    156  CD1       13.3830   -9.5460   13.2490 C.ar  123  PHE123     -0.0042
    157  CD2       12.5220   -7.9930   11.6150 C.ar  123  PHE123     -0.0042
    158  CE1       14.6530   -8.9660   13.1210 C.ar  123  PHE123     -0.0003
    159  CE2       13.7940   -7.4210   11.4800 C.ar  123  PHE123     -0.0003
    160  CZ        14.8450   -7.8990   12.2480 C.ar  123  PHE123     -0.0000
    161  N         10.7580   -9.9980   15.6250 N.am  124  LEU124     -0.1963
    162  CA        11.4760  -10.1230   16.8830 C.3   124  LEU124      0.1728
    163  C         12.1000  -11.4880   16.8780 C.2   124  LEU124      0.2616
    164  O         11.4670  -12.4650   16.4780 O.2   124  LEU124     -0.2715
    165  CB        10.5060  -10.0120   18.0670 C.3   124  LEU124      0.0311
    166  CG        11.1650  -10.1120   19.4500 C.3   124  LEU124      0.0022
    167  CD1       12.0070   -8.8830   19.7360 C.3   124  LEU124      0.0001
    168  CD2       10.0630  -10.2580   20.4930 C.3   124  LEU124      0.0001
    169  N         13.3460  -11.5730   17.3210 N.am  125  VAL125     -0.1977
    170  CA        13.9700  -12.8690   17.4320 C.3   125  VAL125      0.1596
    171  C         14.6440  -12.9940   18.7760 C.2   125  VAL125      0.2287
    172  O         14.7350  -12.0000   19.4870 O.2   125  VAL125     -0.2864
    173  CB        14.9730  -13.1650   16.2930 C.3   125  VAL125      0.0276
    174  CG1       14.2330  -13.3480   14.9680 C.3   125  VAL125      0.0022
    175  CG2       16.0430  -12.0860   16.2040 C.3   125  VAL125      0.0022
@<TRIPOS>BOND
     1   137   136   ar
     2   137   135   ar
     3   136   134   ar
     4   135   133   ar
     5   134   133   ar
     6    83    84    1
     7   133   132    1
     8    84    85    1
     9    84    87    1
    10    85    86    2
    11   132   129    1
    12    88    87    1
    13    88    89    1
    14   128   129    1
    15   129   130    1
    16    91    92    1
    17    89    90    1
    18   130   131    2
    19   130   138   am
    20    78    77    2
    21    96    97    1
    22    92    93    1
    23    92    95    1
    24     1     2    1
    25    77    76    1
    26    93    94    2
    27   138   139    1
    28   103   102    1
    29    97   100    1
    30    97    98    1
    31   100   101    1
    32     5     2    1
    33     5     6    1
    34   159   157   ar
    35   159   160   ar
    36   157   155   ar
    37    79    76    1
    38    79    80    1
    39     2     3    1
    40   141   140    2
    41    76    75    1
    42     8     6    1
    43   139   140    1
    44   139   142    1
    45   160   158   ar
    46   140   150   am
    47   101   102    1
    48   155   154    1
    49   155   156   ar
    50     6     7    1
    51    98    99    2
    52     3     4    2
    53    81    80    1
    54   154   151    1
    55    75    71   am
    56    80    82    1
    57   142   143    1
    58   158   156   ar
    59   150   151    1
    60    72    71    2
    61    71    70    1
    62   117   116    2
    63   151   152    1
    64     9    10    1
    65    69    70    1
    66   143   145   ar
    67   143   144   ar
    68    70    73    1
    69   116   115    1
    70    13    10    1
    71   152   153    2
    72   152   161   am
    73   174   173    1
    74   145   147   ar
    75   144   146   ar
    76    64    63    2
    77    10    11    1
    78   115   118    1
    79   115   114    1
    80   161   162    1
    81   118   119    1
    82    63    62    1
    83    20    19    1
    84    73    74    1
    85   120   119   ar
    86   120   122   ar
    87   175   173    1
    88   119   121   ar
    89   147   148   ar
    90   173   170    1
    91    14    11   am
    92    14    15    1
    93   164   163    2
    94   146   148   ar
    95    11    12    2
    96    19    18    1
    97    19    21    1
    98   122   123   ar
    99   163   162    1
   100   163   169   am
   101   162   165    1
   102    18    15    1
   103   148   149    1
   104   121   123   ar
   105   121   124   ar
   106   123   125   ar
   107   169   170    1
   108    66    67    1
   109    66    65    1
   110    66    68    1
   111    62    65    1
   112    62    61    1
   113   170   171    1
   114    15    16    1
   115   124   126   ar
   116   125   127   ar
   117   165   166    1
   118   107   106    2
   119    16    17    2
   120   126   127   ar
   121   171   172    2
   122   106   105    1
   123   166   167    1
   124   166   168    1
   125   110   112   ar
   126   110   109   ar
   127    59    58    1
   128   105   108    1
   129   105   104    1
   130   112   113   ar
   131   108   109    1
   132   109   111   ar
   133    58    60    1
   134    58    55    1
   135    28    27    1
   136   113   111   ar
   137    47    48   ar
   138    47    45   ar
   139    53    50    1
   140    52    51    2
   141    29    27    1
   142    36    35    1
   143    48    46   ar
   144    27    26    1
   145    22    23    1
   146    26    23    1
   147    45    43   ar
   148    50    51    1
   149    50    49    1
   150    55    54    1
   151    55    56    1
   152    37    35    1
   153    35    34    1
   154    23    24    1
   155    34    31    1
   156    57    56    2
   157    46    44   ar
   158    24    25    2
   159    33    32    2
   160    43    44   ar
   161    43    42    1
   162    32    31    1
   163    32    38   am
   164    39    38    1
   165    39    42    1
   166    39    40    1
   167    31    30    1
   168    41    40    2
