@<TRIPOS>MOLECULE
tmp/3n7hA00.pdb
 113 108 0 0 0
SMALL
GASTEIGER

@<TRIPOS>ATOM
      1  N         17.0360    6.0800   20.1000 N.3    73  LEU73      -0.1231
      2  CA        16.5830    5.6430   18.7850 C.3    73  LEU73       0.1693
      3  C         17.6380    5.8660   17.6990 C.2    73  LEU73       0.2591
      4  O         17.6700    5.1480   16.7140 O.2    73  LEU73      -0.2718
      5  CB        15.2530    6.2940   18.4220 C.3    73  LEU73       0.0284
      6  CG        14.0410    5.8200   19.2490 C.3    73  LEU73       0.0019
      7  CD1       12.8530    6.7610   18.9760 C.3    73  LEU73       0.0001
      8  CD2       13.6440    4.3370   19.0100 C.3    73  LEU73       0.0001
      9  N         18.5090    6.8480   17.8840 N.am   74  GLU74      -0.1979
     10  CA        19.5680    7.0810   16.8900 C.3    74  GLU74       0.1602
     11  C         20.5880    5.9500   16.9270 C.2    74  GLU74       0.2287
     12  O         20.9950    5.4250   15.8590 O.2    74  GLU74      -0.2864
     13  CB        20.2540    8.4270   17.1060 C.3    74  GLU74       0.0415
     14  CG        19.2930    9.5990   16.9790 C.3    74  GLU74       0.1163
     15  CD        19.9310   10.9010   17.3810 C.2    74  GLU74       0.3649
     16  OE1       21.0540   10.8550   17.9360 O.co2  74  GLU74      -0.2457
     17  OE2       19.3290   11.9730   17.1470 O.co2  74  GLU74      -0.2457
     18  N         20.0610    2.9600   17.9660 N.3    76  LEU76      -0.1231
     19  CA        19.3750    1.8040   17.3930 C.3    76  LEU76       0.1693
     20  C         19.3910    1.8260   15.8600 C.2    76  LEU76       0.2592
     21  O         19.7180    0.8190   15.2400 O.2    76  LEU76      -0.2718
     22  CB        17.9420    1.6900   17.9400 C.3    76  LEU76       0.0284
     23  CG        17.0960    0.5270   17.3700 C.3    76  LEU76       0.0019
     24  CD1       17.7650   -0.8390   17.5600 C.3    76  LEU76       0.0001
     25  CD2       15.7190    0.5350   18.0040 C.3    76  LEU76       0.0001
     26  N         19.0590    2.9770   15.2730 N.am   77  HIS77      -0.1976
     27  CA        19.0550    3.1220   13.8270 C.3    77  HIS77       0.1656
     28  C         20.4340    2.8080   13.2450 C.2    77  HIS77       0.2291
     29  O         20.5440    2.1020   12.2510 O.2    77  HIS77      -0.2864
     30  CB        18.5880    4.5260   13.4290 C.3    77  HIS77       0.0771
     31  CG        17.9620    4.5840   12.0670 C.ar   77  HIS77       0.0820
     32  ND1       18.2750    5.5550   11.1420 N.ar   77  HIS77      -0.2267
     33  CD2       17.0310    3.7910   11.4810 C.ar   77  HIS77       0.1154
     34  CE1       17.5580    5.3650   10.0490 C.ar   77  HIS77       0.1986
     35  NE2       16.7890    4.3050   10.2310 N.ar   77  HIS77      -0.2212
     36  N         21.4170   -0.9540   12.7960 N.3    80  LEU80      -0.1245
     37  CA        20.7100   -1.7510   11.8050 C.3    80  LEU80       0.1561
     38  C         21.4080   -1.6870   10.4570 C.2    80  LEU80       0.2260
     39  O         21.9950   -0.6580   10.1140 O.2    80  LEU80      -0.2867
     40  CB        19.2690   -1.2580   11.6430 C.3    80  LEU80       0.0270
     41  CG        18.3880   -1.3540   12.8800 C.3    80  LEU80       0.0019
     42  CD1       17.0460   -0.6980   12.5870 C.3    80  LEU80       0.0001
     43  CD2       18.2040   -2.8190   13.3040 C.3    80  LEU80       0.0001
     44  N         17.6800   -1.9970    6.0190 N.3    84  MET84      -0.1245
     45  CA        16.5120   -1.7180    6.8690 C.3    84  MET84       0.1570
     46  C         16.3080   -0.2650    7.2560 C.2    84  MET84       0.2261
     47  O         15.3590    0.0570    7.9840 O.2    84  MET84      -0.2867
     48  CB        16.6380   -2.4870    8.1720 C.3    84  MET84       0.0387
     49  CG        16.4220   -3.9580    8.0330 C.3    84  MET84       0.0595
     50  SD        16.6100   -4.6500    9.6720 S.3    84  MET84      -0.1393
     51  CE        15.1210   -4.0510   10.5010 C.3    84  MET84       0.0692
     52  N         12.8670    1.1320    8.8200 N.3    88  ALA88      -0.1231
     53  CA        12.8820    1.4850   10.2350 C.3    88  ALA88       0.1694
     54  C         12.4190    2.9210   10.4860 C.2    88  ALA88       0.2591
     55  O         11.6920    3.1820   11.4640 O.2    88  ALA88      -0.2718
     56  CB        14.2670    1.2280   10.8460 C.3    88  ALA88       0.0304
     57  N         12.8450    3.8390    9.6110 N.am   89  MET89      -0.1979
     58  CA        12.4390    5.2510    9.6560 C.3    89  MET89       0.1605
     59  C         10.9200    5.3830    9.7080 C.2    89  MET89       0.2287
     60  O         10.3690    6.0340   10.5980 O.2    89  MET89      -0.2864
     61  CB        12.9650    6.0130    8.4270 C.3    89  MET89       0.0413
     62  CG        14.4630    6.2440    8.4180 C.3    89  MET89       0.0598
     63  SD        14.9160    7.5530    9.5640 S.3    89  MET89      -0.1393
     64  CE        13.9840    8.9230    8.8890 C.3    89  MET89       0.0692
     65  N          8.6710    2.9660   10.1420 N.3    91  MET91      -0.1230
     66  CA         8.1570    2.1760   11.2450 C.3    91  MET91       0.1702
     67  C          8.1990    2.9640   12.5570 C.2    91  MET91       0.2593
     68  O          7.2930    2.8540   13.3930 O.2    91  MET91      -0.2718
     69  CB         8.9750    0.8900   11.3580 C.3    91  MET91       0.0401
     70  CG         8.4740   -0.0880   12.3740 C.3    91  MET91       0.0596
     71  SD         9.6160   -1.4660   12.3990 S.3    91  MET91      -0.1393
     72  CE         9.0530   -2.4080   10.9870 C.3    91  MET91       0.0692
     73  N          9.2220    3.7960   12.7310 N.am   92  GLY92      -0.1942
     74  CA         9.3720    4.5360   13.9870 C.3    92  GLY92       0.2014
     75  C          8.9050    5.9790   14.0330 C.2    92  GLY92       0.2638
     76  O          8.9740    6.6180   15.0890 O.2    92  GLY92      -0.2714
     77  N          8.4110    6.5080   12.9140 N.am   93  LYS93      -0.1977
     78  CA         8.1750    7.9520   12.8190 C.3    93  LYS93       0.1596
     79  C          7.0400    8.4150   13.7330 C.2    93  LYS93       0.2287
     80  O          6.9690    9.5970   14.1070 O.2    93  LYS93      -0.2864
     81  CB         7.9470    8.3720   11.3640 C.3    93  LYS93       0.0298
     82  CG         6.6720    7.8540   10.7530 C.3    93  LYS93       0.0038
     83  CD         6.6770    8.1130    9.2630 C.3    93  LYS93       0.0206
     84  CE         5.4330    7.5710    8.6080 C.3    93  LYS93       0.1093
     85  NZ         5.5270    7.7740    7.1330 N.3    93  LYS93      -0.1314
     86  N          6.5390    6.6200   16.6480 N.3    95  CYS95      -0.1221
     87  CA         6.8770    5.8310   17.8310 C.3    95  CYS95       0.1808
     88  C          8.0720    6.4580   18.5490 C.2    95  CYS95       0.2601
     89  O          8.9410    5.7530   19.0620 O.2    95  CYS95      -0.2717
     90  CB         7.1710    4.3580   17.4520 C.3    95  CYS95       0.0970
     91  SG         5.8240    3.5160   16.5410 S.3    95  CYS95      -0.0800
     92  N          8.1310    7.7880   18.5860 N.am   96  LEU96      -0.1979
     93  CA         9.3530    8.4280   19.0700 C.3    96  LEU96       0.1596
     94  C          9.4640    8.4720   20.5760 C.2    96  LEU96       0.2287
     95  O         10.5690    8.5530   21.1130 O.2    96  LEU96      -0.2864
     96  CB         9.4770    9.8570   18.5400 C.3    96  LEU96       0.0297
     97  CG         9.5470   10.0170   17.0170 C.3    96  LEU96       0.0022
     98  CD1        9.5790   11.5020   16.6770 C.3    96  LEU96       0.0001
     99  CD2       10.7690    9.2880   16.4150 C.3    96  LEU96       0.0001
    100  N          5.9090   -0.2790   16.7720 N.3   114  TRP114     -0.1241
    101  CA         6.5400   -0.6330   15.5190 C.3   114  TRP114      0.1605
    102  C          5.6940   -1.6630   14.7930 C.2   114  TRP114      0.2264
    103  O          5.4550   -1.5320   13.5990 O.2   114  TRP114     -0.2867
    104  CB         7.9270   -1.2070   15.7520 C.3   114  TRP114      0.0550
    105  CG         8.9230   -0.1860   16.2530 C.ar  114  TRP114      0.0003
    106  CD1        8.8870    1.1700   16.0610 C.ar  114  TRP114      0.0946
    107  CD2       10.0870   -0.4520   17.0450 C.ar  114  TRP114      0.0152
    108  NE1        9.9730    1.7640   16.6750 N.ar  114  TRP114     -0.2442
    109  CE2       10.7200    0.7880   17.2820 C.ar  114  TRP114      0.0810
    110  CE3       10.6640   -1.6220   17.5650 C.ar  114  TRP114      0.0012
    111  CZ2       11.8940    0.9000   18.0350 C.ar  114  TRP114      0.0191
    112  CZ3       11.8360   -1.5110   18.3110 C.ar  114  TRP114      0.0001
    113  CH2       12.4310   -0.2540   18.5440 C.ar  114  TRP114      0.0015
@<TRIPOS>BOND
     1    44    45    1
     2    45    46    1
     3    45    48    1
     4    85    84    1
     5    46    47    2
     6    49    48    1
     7    49    50    1
     8    62    61    1
     9    62    63    1
    10    61    58    1
    11    84    83    1
    12    52    53    1
    13    64    63    1
    14    83    82    1
    15    57    58    1
    16    57    54   am
    17    58    59    1
    18    50    51    1
    19    59    60    2
    20    34    35   ar
    21    34    32   ar
    22    39    38    2
    23    65    66    1
    24    35    33   ar
    25    53    54    1
    26    53    56    1
    27    38    37    1
    28    54    55    2
    29    82    81    1
    30    72    71    1
    31    32    31   ar
    32    66    69    1
    33    66    67    1
    34    69    70    1
    35    81    78    1
    36    33    31   ar
    37    40    37    1
    38    40    41    1
    39    37    36    1
    40    31    30    1
    41    29    28    2
    42    70    71    1
    43    67    73   am
    44    67    68    2
    45    42    41    1
    46    73    74    1
    47    78    77    1
    48    78    79    1
    49    41    43    1
    50    77    75   am
    51    28    27    1
    52    30    27    1
    53   103   102    2
    54    79    80    2
    55    27    26    1
    56    74    75    1
    57    75    76    2
    58   102   101    1
    59    21    20    2
    60    26    20   am
    61   101   104    1
    62   101   100    1
    63   104   105    1
    64    12    11    2
    65    20    19    1
    66   106   105   ar
    67   106   108   ar
    68   105   107   ar
    69    99    97    1
    70    91    90    1
    71    86    87    1
    72   108   109   ar
    73    98    97    1
    74     4     3    2
    75    10    11    1
    76    10    13    1
    77    10     9    1
    78    14    13    1
    79    14    15    1
    80    97    96    1
    81   107   109   ar
    82   107   110   ar
    83    17    15   ar
    84   109   111   ar
    85    23    24    1
    86    23    22    1
    87    23    25    1
    88    15    16   ar
    89    19    22    1
    90    19    18    1
    91    90    87    1
    92   110   112   ar
    93     3     9   am
    94     3     2    1
    95    87    88    1
    96   111   113   ar
    97   112   113   ar
    98     5     2    1
    99     5     6    1
   100    96    93    1
   101    88    92   am
   102    88    89    2
   103    92    93    1
   104     2     1    1
   105     7     6    1
   106     8     6    1
   107    93    94    1
   108    94    95    2
