@<TRIPOS>MOLECULE
tmp/3n7oA00.pdb
 176 171 0 0 0
SMALL
GASTEIGER

@<TRIPOS>ATOM
      1  N        -14.5910  -34.7960  -63.0400 N.3    28  LYS28      -0.1231
      2  CA       -14.8700  -35.8000  -62.0220 C.3    28  LYS28       0.1693
      3  C        -15.3050  -35.0120  -60.7970 C.2    28  LYS28       0.2592
      4  O        -14.9770  -33.8290  -60.6740 O.2    28  LYS28      -0.2718
      5  CB       -13.5920  -36.6030  -61.7520 C.3    28  LYS28       0.0285
      6  CG       -13.6380  -37.5680  -60.5720 C.3    28  LYS28       0.0035
      7  CD       -12.3100  -38.3160  -60.4430 C.3    28  LYS28       0.0206
      8  CE       -12.2530  -39.1690  -59.1710 C.3    28  LYS28       0.1093
      9  NZ       -13.0890  -40.4110  -59.2290 N.3    28  LYS28      -0.1314
     10  N        -16.0720  -35.6260  -59.9030 N.am   29  PHE29      -0.1962
     11  CA       -16.3350  -34.9690  -58.6300 C.3    29  PHE29       0.1771
     12  C        -15.9680  -35.8590  -57.4590 C.2    29  PHE29       0.2619
     13  O        -15.9190  -37.0760  -57.5960 O.2    29  PHE29      -0.2715
     14  CB       -17.7710  -34.4170  -58.5200 C.3    29  PHE29       0.0574
     15  CG       -18.8150  -35.4400  -58.1730 C.ar   29  PHE29      -0.0200
     16  CD1      -19.6560  -35.9520  -59.1570 C.ar   29  PHE29      -0.0042
     17  CD2      -18.9950  -35.8570  -56.8500 C.ar   29  PHE29      -0.0042
     18  CE1      -20.6430  -36.8900  -58.8300 C.ar   29  PHE29      -0.0003
     19  CE2      -19.9720  -36.7870  -56.5190 C.ar   29  PHE29      -0.0003
     20  CZ       -20.7980  -37.3050  -57.5050 C.ar   29  PHE29      -0.0000
     21  N        -15.6510  -35.2280  -56.3340 N.am   30  CYS30      -0.1968
     22  CA       -15.2850  -35.9420  -55.1120 C.3    30  CYS30       0.1712
     23  C        -15.8130  -35.1470  -53.9430 C.2    30  CYS30       0.2296
     24  O        -16.2150  -33.9930  -54.0970 O.2    30  CYS30      -0.2864
     25  CB       -13.7470  -36.0680  -54.9790 C.3    30  CYS30       0.0983
     26  SG       -13.0450  -37.4070  -56.0090 S.3    30  CYS30      -0.0798
     27  N         -6.6380  -39.8400  -55.2140 N.3    45  HIS45      -0.1241
     28  CA        -7.0810  -40.2630  -56.5360 C.3    45  HIS45       0.1621
     29  C         -8.0440  -39.2430  -57.1420 C.2    45  HIS45       0.2264
     30  O         -8.4440  -39.3800  -58.2900 O.2    45  HIS45      -0.2867
     31  CB        -7.6820  -41.6730  -56.5320 C.3    45  HIS45       0.0745
     32  CG        -9.0950  -41.7440  -56.0400 C.ar   45  HIS45       0.0817
     33  ND1       -9.4120  -42.0170  -54.7250 N.ar   45  HIS45      -0.2268
     34  CD2      -10.2740  -41.6370  -56.6990 C.ar   45  HIS45       0.1154
     35  CE1      -10.7290  -42.0510  -54.5900 C.ar   45  HIS45       0.1986
     36  NE2      -11.2760  -41.8300  -55.7730 N.ar   45  HIS45      -0.2212
     37  N          1.6460  -42.2270  -52.6700 N.3    81  TYR81      -0.1227
     38  CA         0.4530  -42.5860  -53.4310 C.3    81  TYR81       0.1736
     39  C          0.7910  -43.6530  -54.4640 C.2    81  TYR81       0.2595
     40  O          1.7030  -43.4770  -55.2710 O.2    81  TYR81      -0.2718
     41  CB        -0.0940  -41.3320  -54.1100 C.3    81  TYR81       0.0548
     42  CG        -1.2720  -41.5690  -55.0070 C.ar   81  TYR81      -0.0200
     43  CD1       -2.5470  -41.7720  -54.4800 C.ar   81  TYR81      -0.0009
     44  CD2       -1.1230  -41.5760  -56.3810 C.ar   81  TYR81      -0.0009
     45  CE1       -3.6350  -41.9750  -55.3080 C.ar   81  TYR81       0.0417
     46  CE2       -2.2110  -41.7820  -57.2180 C.ar   81  TYR81       0.0417
     47  CZ        -3.4600  -41.9770  -56.6740 C.ar   81  TYR81       0.1957
     48  OH        -4.5270  -42.1980  -57.5090 O.3    81  TYR81      -0.2866
     49  N          0.0690  -44.7690  -54.4340 N.am   82  ASN82      -0.1960
     50  CA         0.4690  -45.9470  -55.2020 C.3    82  ASN82       0.1819
     51  C         -0.7040  -46.5890  -55.9410 C.2    82  ASN82       0.2621
     52  O         -1.5900  -47.1760  -55.3270 O.2    82  ASN82      -0.2715
     53  CB         1.1210  -46.9530  -54.2510 C.3    82  ASN82       0.1195
     54  CG         1.8320  -48.0780  -54.9720 C.2    82  ASN82       0.2630
     55  OD1        1.2640  -48.7460  -55.8390 O.2    82  ASN82      -0.2716
     56  ND2        3.0790  -48.3120  -54.5910 N.am   82  ASN82      -0.0877
     57  N         -0.7110  -46.4850  -57.2660 N.am   83  THR83      -0.1951
     58  CA        -1.8290  -47.0040  -58.0490 C.3    83  THR83       0.1897
     59  C         -1.8140  -48.5270  -58.2060 C.2    83  THR83       0.2313
     60  O         -2.7560  -49.1010  -58.7250 O.2    83  THR83      -0.2863
     61  CB        -1.8980  -46.3550  -59.4390 C.3    83  THR83       0.1794
     62  OG1       -0.6930  -46.6530  -60.1540 O.3    83  THR83      -0.2208
     63  CG2       -2.0570  -44.8510  -59.3120 C.3    83  THR83       0.0378
     64  N         -2.9780  -49.2430  -54.1850 N.3    86  LEU86      -0.1245
     65  CA        -4.0430  -48.3100  -53.7990 C.3    86  LEU86       0.1561
     66  C         -3.7890  -47.6830  -52.4250 C.2    86  LEU86       0.2260
     67  O         -4.6910  -47.0940  -51.8130 O.2    86  LEU86      -0.2867
     68  CB        -5.4200  -48.9830  -53.8400 C.3    86  LEU86       0.0270
     69  CG        -5.8050  -49.6870  -55.1370 C.3    86  LEU86       0.0019
     70  CD1       -7.2470  -50.2100  -55.0510 C.3    86  LEU86       0.0001
     71  CD2       -5.6330  -48.7460  -56.3270 C.3    86  LEU86       0.0001
     72  N         -3.9160  -43.0400  -50.1900 N.3    89  ASP89      -0.1239
     73  CA        -4.8900  -42.2620  -50.9610 C.3    89  ASP89       0.1674
     74  C         -5.3330  -41.0480  -50.1430 C.2    89  ASP89       0.2266
     75  O         -6.4230  -41.0260  -49.5810 O.2    89  ASP89      -0.2867
     76  CB        -6.0980  -43.1300  -51.3190 C.3    89  ASP89       0.1410
     77  CG        -7.0210  -42.4560  -52.3360 C.2    89  ASP89       0.3668
     78  OD1       -6.5720  -41.4640  -52.9440 O.co2  89  ASP89      -0.2456
     79  OD2       -8.1700  -42.9230  -52.5190 O.co2  89  ASP89      -0.2456
     80  N        -23.8290  -48.1060  -47.5220 N.3   173  SER173     -0.1202
     81  CA       -22.4280  -47.9880  -47.9130 C.3   173  SER173      0.2020
     82  C        -22.0880  -46.6180  -48.5040 C.2   173  SER173      0.2619
     83  O        -22.9320  -45.9840  -49.1290 O.2   173  SER173     -0.2717
     84  CB       -22.0860  -49.0530  -48.9530 C.3   173  SER173      0.2103
     85  OG       -20.7440  -48.9420  -49.3920 O.3   173  SER173     -0.2182
     86  N        -20.8490  -46.1730  -48.3160 N.am  174  ALA174     -0.1965
     87  CA       -20.3120  -45.1220  -49.1870 C.3   174  ALA174      0.1728
     88  C        -20.2250  -45.7170  -50.5890 C.2   174  ALA174      0.2616
     89  O        -20.1230  -46.9360  -50.7340 O.2   174  ALA174     -0.2715
     90  CB       -18.9330  -44.6850  -48.7080 C.3   174  ALA174      0.0334
     91  N        -20.2690  -44.8750  -51.6230 N.am  175  PHE175     -0.1960
     92  CA       -20.1980  -45.3730  -52.9930 C.3   175  PHE175      0.1771
     93  C        -19.5320  -44.3570  -53.9330 C.2   175  PHE175      0.2619
     94  O        -18.9500  -43.3780  -53.4730 O.2   175  PHE175     -0.2715
     95  CB       -21.5980  -45.7960  -53.4780 C.3   175  PHE175      0.0574
     96  CG       -21.5810  -46.6380  -54.7160 C.ar  175  PHE175     -0.0200
     97  CD1      -20.7200  -47.7190  -54.8290 C.ar  175  PHE175     -0.0042
     98  CD2      -22.4310  -46.3460  -55.7760 C.ar  175  PHE175     -0.0042
     99  CE1      -20.6960  -48.4890  -55.9800 C.ar  175  PHE175     -0.0003
    100  CE2      -22.4050  -47.0940  -56.9260 C.ar  175  PHE175     -0.0003
    101  CZ       -21.5480  -48.1820  -57.0310 C.ar  175  PHE175     -0.0000
    102  N        -19.5960  -44.6000  -55.2430 N.am  176  LYS176     -0.1963
    103  CA       -18.8600  -43.7790  -56.2170 C.3   176  LYS176      0.1728
    104  C        -19.1950  -42.3040  -56.1040 C.2   176  LYS176      0.2616
    105  O        -20.3630  -41.9370  -56.1610 O.2   176  LYS176     -0.2715
    106  CB       -19.1520  -44.2590  -57.6400 C.3   176  LYS176      0.0311
    107  CG       -18.7360  -45.6970  -57.9160 C.3   176  LYS176      0.0038
    108  CD       -18.8590  -45.9990  -59.4030 C.3   176  LYS176      0.0206
    109  CE       -18.6260  -47.4720  -59.7030 C.3   176  LYS176      0.1093
    110  NZ       -18.5950  -47.7090  -61.1840 N.3   176  LYS176     -0.1314
    111  N        -18.1730  -41.4600  -55.9460 N.am  177  GLY177     -0.1955
    112  CA       -18.3560  -40.0260  -55.7980 C.3   177  GLY177      0.1869
    113  C        -18.3420  -39.5220  -54.3620 C.2   177  GLY177      0.2309
    114  O        -18.2500  -38.3220  -54.1140 O.2   177  GLY177     -0.2863
    115  N        -15.9440  -40.5510  -52.5170 N.3   179  SER179     -0.1217
    116  CA       -14.4860  -40.5260  -52.3040 C.3   179  SER179      0.1889
    117  C        -14.0020  -39.1580  -51.8310 C.2   179  SER179      0.2288
    118  O        -14.4290  -38.1280  -52.3560 O.2   179  SER179     -0.2866
    119  CB       -13.7470  -40.9020  -53.6000 C.3   179  SER179      0.2089
    120  OG       -13.9770  -42.2420  -53.9880 O.3   179  SER179     -0.2183
    121  N        -12.9920  -41.5060  -47.4260 N.3   193  VAL193     -0.1231
    122  CA       -13.5250  -42.5060  -48.3470 C.3   193  VAL193      0.1692
    123  C        -12.5120  -42.7570  -49.4660 C.2   193  VAL193      0.2593
    124  O        -12.0400  -41.7950  -50.0860 O.2   193  VAL193     -0.2718
    125  CB       -14.8530  -42.0160  -49.0010 C.3   193  VAL193      0.0266
    126  CG1      -15.3800  -43.0560  -49.9690 C.3   193  VAL193      0.0020
    127  CG2      -15.9020  -41.7190  -47.9310 C.3   193  VAL193      0.0020
    128  N        -12.1710  -44.0160  -49.7340 N.am  194  SER194     -0.1938
    129  CA       -11.1840  -44.2950  -50.7930 C.3   194  SER194      0.2055
    130  C        -11.7080  -45.1150  -51.9770 C.2   194  SER194      0.2643
    131  O        -11.7140  -44.6340  -53.1110 O.2   194  SER194     -0.2714
    132  CB        -9.9180  -44.9520  -50.2030 C.3   194  SER194      0.2130
    133  OG        -8.9350  -45.1930  -51.2150 O.3   194  SER194     -0.2179
    134  N        -12.1110  -46.3580  -51.7290 N.am  195  TYR195     -0.1959
    135  CA       -12.6220  -47.1970  -52.8030 C.3   195  TYR195      0.1771
    136  C        -13.4550  -48.3510  -52.2680 C.2   195  TYR195      0.2620
    137  O        -13.5760  -48.5280  -51.0660 O.2   195  TYR195     -0.2715
    138  CB       -11.4950  -47.7220  -53.6890 C.3   195  TYR195      0.0574
    139  CG       -10.5910  -48.7600  -53.0500 C.ar  195  TYR195     -0.0198
    140  CD1      -10.8580  -50.1170  -53.1760 C.ar  195  TYR195     -0.0009
    141  CD2       -9.4560  -48.3830  -52.3470 C.ar  195  TYR195     -0.0009
    142  CE1      -10.0170  -51.0780  -52.6020 C.ar  195  TYR195      0.0417
    143  CE2       -8.6120  -49.3360  -51.7720 C.ar  195  TYR195      0.0417
    144  CZ        -8.8990  -50.6750  -51.9090 C.ar  195  TYR195      0.1957
    145  OH        -8.0460  -51.6020  -51.3390 O.3   195  TYR195     -0.2866
    146  N        -14.0450  -49.1120  -53.1830 N.am  196  GLY196     -0.1940
    147  CA       -14.8670  -50.2440  -52.8210 C.3   196  GLY196      0.2014
    148  C        -15.2190  -51.0490  -54.0520 C.2   196  GLY196      0.2639
    149  O        -14.6010  -50.9010  -55.1130 O.2   196  GLY196     -0.2714
    150  N        -16.2170  -51.9100  -53.9090 N.am  197  ARG197     -0.1963
    151  CA       -16.6350  -52.7710  -55.0070 C.3   197  ARG197      0.1729
    152  C        -17.5280  -51.9930  -55.9670 C.2   197  ARG197      0.2616
    153  O        -18.3470  -51.1830  -55.5370 O.2   197  ARG197     -0.2715
    154  CB       -17.4010  -53.9690  -54.4540 C.3   197  ARG197      0.0348
    155  CG       -16.5490  -54.9250  -53.6410 C.3   197  ARG197      0.0492
    156  CD       -17.3730  -56.0870  -53.1110 C.3   197  ARG197      0.2205
    157  NE       -18.1200  -56.7870  -54.1600 N.pl3 197  ARG197     -0.0865
    158  CZ       -17.7340  -57.9310  -54.7230 C.cat 197  ARG197      0.5346
    159  NH1      -16.5990  -58.5140  -54.3500 N.pl3 197  ARG197      0.1354
    160  NH2      -18.4890  -58.5000  -55.6590 N.pl3 197  ARG197      0.1354
    161  N        -17.3630  -52.2410  -57.2640 N.am  198  SER198     -0.1950
    162  CA       -18.2210  -51.6250  -58.2810 C.3   198  SER198      0.1924
    163  C        -19.6920  -51.9630  -58.0830 C.2   198  SER198      0.2314
    164  O        -20.5660  -51.1700  -58.4410 O.2   198  SER198     -0.2863
    165  CB       -17.7920  -52.0560  -59.6770 C.3   198  SER198      0.2116
    166  OG       -16.5180  -51.5190  -59.9780 O.3   198  SER198     -0.2180
    167  N        -21.2210  -52.2050  -55.2970 N.3   200  ALA200     -0.1245
    168  CA       -21.7260  -51.4960  -54.1150 C.3   200  ALA200      0.1562
    169  C        -21.9010  -52.3470  -52.8470 C.2   200  ALA200      0.2260
    170  O        -22.4400  -51.8700  -51.8480 O.2   200  ALA200     -0.2867
    171  CB       -23.0270  -50.7580  -54.4360 C.3   200  ALA200      0.0290
    172  N        -16.4970  -50.9520  -47.7080 N.3   204  ALA204     -0.1245
    173  CA       -15.6000  -50.1550  -48.5350 C.3   204  ALA204      0.1562
    174  C        -14.3360  -49.8350  -47.7480 C.2   204  ALA204      0.2260
    175  O        -14.2770  -50.0210  -46.5310 O.2   204  ALA204     -0.2867
    176  CB       -16.2800  -48.8540  -48.9880 C.3   204  ALA204      0.0290
@<TRIPOS>BOND
     1     1     2    1
     2     2     5    1
     3     2     3    1
     4     5     6    1
     5   110   109    1
     6     3     4    2
     7     3    10   am
     8     6     7    1
     9     7     8    1
    10    62    61    1
    11   166   165    1
    12    10    11    1
    13   109   108    1
    14   165   162    1
    15    61    63    1
    16    61    58    1
    17   108   107    1
    18     9     8    1
    19    16    18   ar
    20    16    15   ar
    21    18    20   ar
    22    60    59    2
    23    11    14    1
    24    11    12    1
    25    14    15    1
    26   164   163    2
    27    30    29    2
    28   162   163    1
    29   162   161    1
    30    59    58    1
    31    15    17   ar
    32    58    57    1
    33   107   106    1
    34   106   103    1
    35    13    12    2
    36    48    47    1
    37    20    19   ar
    38    12    21   am
    39    57    51   am
    40   161   152   am
    41    46    47   ar
    42    46    44   ar
    43    29    28    1
    44   101   100   ar
    45   101    99   ar
    46   100    98   ar
    47    17    19   ar
    48    34    32   ar
    49    34    36   ar
    50    47    45   ar
    51    28    31    1
    52    28    27    1
    53    31    32    1
    54    44    42   ar
    55    21    22    1
    56    71    69    1
    57   103   104    1
    58   103   102    1
    59   105   104    2
    60   104   111   am
    61    32    33   ar
    62    26    25    1
    63    99    97   ar
    64   152   153    2
    65   152   151    1
    66   111   112    1
    67    51    52    2
    68    51    50    1
    69    55    54    2
    70   112   113    1
    71    98    96   ar
    72    36    35   ar
    73   160   158    1
    74    45    43   ar
    75   167   168    1
    76    40    39    2
    77   102    93   am
    78    50    49    1
    79    50    53    1
    80    69    70    1
    81    69    68    1
    82   149   148    2
    83    22    25    1
    84    22    23    1
    85   151   154    1
    86   151   150    1
    87    42    43   ar
    88    42    41    1
    89    54    56   am
    90    54    53    1
    91    97    96   ar
    92    33    35   ar
    93   158   159    1
    94   158   157    2
    95    96    95    1
    96    39    49   am
    97    39    38    1
    98   154   155    1
    99   171   168    1
   100   113   114    2
   101    64    65    1
   102   157   156    1
   103   168   169    1
   104    41    38    1
   105    24    23    2
   106   148   150   am
   107   148   147    1
   108   120   119    1
   109    93    94    2
   110    93    92    1
   111    68    65    1
   112    65    66    1
   113   138   139    1
   114   138   135    1
   115   155   156    1
   116   119   116    1
   117    95    92    1
   118    38    37    1
   119   146   147    1
   120   146   136   am
   121   140   139   ar
   122   140   142   ar
   123   131   130    2
   124   139   141   ar
   125    92    91    1
   126    78    77   ar
   127   169   170    2
   128   135   136    1
   129   135   134    1
   130   142   144   ar
   131    79    77   ar
   132   115   116    1
   133    66    67    2
   134   118   117    2
   135   141   143   ar
   136    77    76    1
   137   116   117    1
   138   136   137    2
   139   130   134   am
   140   130   129    1
   141   144   143   ar
   142   144   145    1
   143    91    88   am
   144    76    73    1
   145   133   132    1
   146    73    72    1
   147    73    74    1
   148   129   132    1
   149   129   128    1
   150    89    88    2
   151    88    87    1
   152    74    75    2
   153   124   123    2
   154   126   125    1
   155   128   123   am
   156   123   122    1
   157    85    84    1
   158    87    90    1
   159    87    86    1
   160    83    82    2
   161   125   122    1
   162   125   127    1
   163   176   173    1
   164    84    81    1
   165   173   174    1
   166   173   172    1
   167    82    86   am
   168    82    81    1
   169   122   121    1
   170    81    80    1
   171   174   175    2
