@<TRIPOS>MOLECULE
tmp/3n7yA00.pdb
 132 127 0 0 0
SMALL
GASTEIGER

@<TRIPOS>ATOM
      1  N        -17.0400   53.0390   21.9700 N.3    13  ARG13      -0.1245
      2  CA       -16.0560   53.6050   22.8850 C.3    13  ARG13       0.1563
      3  C        -15.7930   55.0740   22.5340 C.2    13  ARG13       0.2260
      4  O        -15.7910   55.9460   23.4100 O.2    13  ARG13      -0.2867
      5  CB       -14.7630   52.7940   22.7860 C.3    13  ARG13       0.0307
      6  CG       -13.5600   53.3510   23.5400 C.3    13  ARG13       0.0489
      7  CD       -12.3750   52.4300   23.3090 C.3    13  ARG13       0.2205
      8  NE       -11.1130   52.9670   23.7980 N.pl3  13  ARG13      -0.0865
      9  CZ       -10.4200   52.4470   24.8060 C.cat  13  ARG13       0.5346
     10  NH1      -10.8700   51.3740   25.4430 N.pl3  13  ARG13       0.1354
     11  NH2       -9.2560   52.9790   25.1560 N.pl3  13  ARG13       0.1354
     12  N        -21.0980   50.9240   29.4670 N.3    32  ARG32      -0.1245
     13  CA       -21.4990   50.6130   28.1060 C.3    32  ARG32       0.1563
     14  C        -21.1960   49.1500   27.8310 C.2    32  ARG32       0.2260
     15  O        -20.4280   48.5110   28.5620 O.2    32  ARG32      -0.2867
     16  CB       -20.7360   51.5060   27.1160 C.3    32  ARG32       0.0307
     17  CG       -19.2200   51.3760   27.2000 C.3    32  ARG32       0.0489
     18  CD       -18.4930   52.4490   26.3720 C.3    32  ARG32       0.2205
     19  NE       -17.0450   52.4220   26.6070 N.pl3  32  ARG32      -0.0865
     20  CZ       -16.2170   51.5140   26.1020 C.cat  32  ARG32       0.5346
     21  NH1      -16.6830   50.5510   25.3150 N.pl3  32  ARG32       0.1354
     22  NH2      -14.9260   51.5500   26.4020 N.pl3  32  ARG32       0.1354
     23  N        -19.4080   46.6320   25.5820 N.3    34  SER34      -0.1202
     24  CA       -18.2560   46.6130   24.6860 C.3    34  SER34       0.2020
     25  C        -18.5070   45.9920   23.3190 C.2    34  SER34       0.2619
     26  O        -19.2130   44.9920   23.2100 O.2    34  SER34      -0.2717
     27  CB       -17.1030   45.8740   25.3650 C.3    34  SER34       0.2103
     28  OG       -15.9790   45.7880   24.5060 O.3    34  SER34      -0.2182
     29  N        -17.9240   46.5880   22.2780 N.am   35  GLU35      -0.1965
     30  CA       -18.0610   46.0540   20.9230 C.3    35  GLU35       0.1733
     31  C        -16.8950   45.1190   20.6770 C.2    35  GLU35       0.2617
     32  O        -17.0610   44.0390   20.1160 O.2    35  GLU35      -0.2715
     33  CB       -18.0140   47.1540   19.8680 C.3    35  GLU35       0.0429
     34  CG       -18.9320   48.3180   20.1060 C.3    35  GLU35       0.1163
     35  CD       -19.0280   49.2110   18.8890 C.2    35  GLU35       0.3649
     36  OE1      -19.7680   48.8460   17.9550 O.co2  35  GLU35      -0.2457
     37  OE2      -18.3580   50.2640   18.8560 O.co2  35  GLU35      -0.2457
     38  N        -15.7090   45.5510   21.1000 N.am   36  SER36      -0.1950
     39  CA       -14.4910   44.7670   20.9330 C.3    36  SER36       0.1924
     40  C        -14.6030   43.4400   21.6760 C.2    36  SER36       0.2314
     41  O        -13.9710   42.4510   21.3040 O.2    36  SER36      -0.2863
     42  CB       -13.2840   45.5540   21.4570 C.3    36  SER36       0.2116
     43  OG       -13.3490   45.7220   22.8660 O.3    36  SER36      -0.2180
     44  N        -18.1030   47.7760   29.8740 N.3    42  SER42      -0.1217
     45  CA       -16.9670   48.6720   30.0170 C.3    42  SER42       0.1889
     46  C        -17.4000   49.9010   30.7970 C.2    42  SER42       0.2288
     47  O        -18.4990   50.4210   30.6000 O.2    42  SER42      -0.2866
     48  CB       -16.4360   49.1090   28.6440 C.3    42  SER42       0.2089
     49  OG       -15.9390   48.0020   27.9130 O.3    42  SER42      -0.2183
     50  N        -10.7670   57.6780   31.0850 N.3    52  GLN52      -0.1231
     51  CA       -10.2100   56.3670   31.3850 C.3    52  GLN52       0.1698
     52  C        -11.2710   55.2810   31.2170 C.2    52  GLN52       0.2592
     53  O        -12.4510   55.4920   31.5260 O.2    52  GLN52      -0.2718
     54  CB        -9.6270   56.3460   32.8070 C.3    52  GLN52       0.0381
     55  CG        -8.2420   57.0050   32.9170 C.3    52  GLN52       0.0905
     56  CD        -7.6660   56.9530   34.3260 C.2    52  GLN52       0.2608
     57  OE1       -7.8970   56.0010   35.0620 O.2    52  GLN52      -0.2717
     58  NE2       -6.8950   57.9720   34.6930 N.am   52  GLN52      -0.0878
     59  N        -10.8440   54.1260   30.7160 N.am   53  HIS53      -0.1962
     60  CA       -11.7400   52.9990   30.4820 C.3    53  HIS53       0.1787
     61  C        -11.3280   51.7840   31.2960 C.2    53  HIS53       0.2620
     62  O        -10.1550   51.4060   31.3210 O.2    53  HIS53      -0.2715
     63  CB       -11.7340   52.6090   29.0010 C.3    53  HIS53       0.0785
     64  CG       -12.1160   53.7240   28.0810 C.ar   53  HIS53       0.0821
     65  ND1      -13.4210   54.1400   27.9170 N.ar   53  HIS53      -0.2267
     66  CD2      -11.3630   54.5210   27.2900 C.ar   53  HIS53       0.1154
     67  CE1      -13.4540   55.1500   27.0650 C.ar   53  HIS53       0.1986
     68  NE2      -12.2160   55.4020   26.6710 N.ar   53  HIS53      -0.2212
     69  N        -12.3060   51.1690   31.9500 N.am   54  PHE54      -0.1960
     70  CA       -12.0570   49.9810   32.7540 C.3    54  PHE54       0.1771
     71  C        -12.9380   48.8430   32.2610 C.2    54  PHE54       0.2619
     72  O        -14.1000   49.0510   31.9080 O.2    54  PHE54      -0.2715
     73  CB       -12.3640   50.2520   34.2330 C.3    54  PHE54       0.0574
     74  CG       -11.6790   51.4720   34.7880 C.ar   54  PHE54      -0.0200
     75  CD1      -12.2240   52.7410   34.5980 C.ar   54  PHE54      -0.0042
     76  CD2      -10.4820   51.3530   35.4970 C.ar   54  PHE54      -0.0042
     77  CE1      -11.5890   53.8790   35.1060 C.ar   54  PHE54      -0.0003
     78  CE2       -9.8350   52.4870   36.0110 C.ar   54  PHE54      -0.0003
     79  CZ       -10.3910   53.7520   35.8150 C.ar   54  PHE54      -0.0000
     80  N        -12.3900   47.6360   32.2280 N.am   55  LYS55      -0.1977
     81  CA       -13.1690   46.4890   31.7960 C.3    55  LYS55       0.1596
     82  C        -13.8240   45.8450   33.0060 C.2    55  LYS55       0.2287
     83  O        -13.1770   45.6350   34.0290 O.2    55  LYS55      -0.2864
     84  CB       -12.2870   45.4520   31.0950 C.3    55  LYS55       0.0298
     85  CG       -13.0050   44.1190   30.8710 C.3    55  LYS55       0.0038
     86  CD       -12.1400   43.0820   30.1700 C.3    55  LYS55       0.0206
     87  CE       -12.0370   43.3610   28.6820 C.3    55  LYS55       0.1093
     88  NZ       -13.3740   43.2840   28.0260 N.3    55  LYS55      -0.1314
     89  N        -14.9160   42.7970   34.8200 N.3    57  LEU57      -0.1245
     90  CA       -14.5980   41.3780   34.7860 C.3    57  LEU57       0.1561
     91  C        -15.6500   40.5990   35.5690 C.2    57  LEU57       0.2260
     92  O        -16.3730   41.1740   36.3840 O.2    57  LEU57      -0.2867
     93  CB       -13.2220   41.1500   35.4130 C.3    57  LEU57       0.0270
     94  CG       -12.1020   41.9960   34.8120 C.3    57  LEU57       0.0019
     95  CD1      -10.8790   41.9460   35.7110 C.3    57  LEU57       0.0001
     96  CD2      -11.7830   41.4950   33.4140 C.3    57  LEU57       0.0001
     97  N        -13.4820   44.8130   39.2110 N.3    66  LEU66      -0.1231
     98  CA       -12.5250   45.5770   38.4210 C.3    66  LEU66       0.1693
     99  C        -11.1140   45.2330   38.8660 C.2    66  LEU66       0.2592
    100  O        -10.2040   45.0870   38.0410 O.2    66  LEU66      -0.2718
    101  CB       -12.7540   47.0760   38.6090 C.3    66  LEU66       0.0284
    102  CG       -14.1340   47.6120   38.2350 C.3    66  LEU66       0.0019
    103  CD1      -14.2090   49.0870   38.6190 C.3    66  LEU66       0.0001
    104  CD2      -14.3810   47.4090   36.7400 C.3    66  LEU66       0.0001
    105  N        -10.9400   45.1110   40.1760 N.am   67  TRP67      -0.1976
    106  CA        -9.6390   44.7960   40.7430 C.3    67  TRP67       0.1640
    107  C         -9.7000   43.5400   41.6100 C.2    67  TRP67       0.2290
    108  O         -9.4110   42.4500   41.1270 O.2    67  TRP67      -0.2864
    109  CB        -9.1290   45.9880   41.5560 C.3    67  TRP67       0.0576
    110  CG        -9.2610   47.3010   40.8280 C.ar   67  TRP67       0.0006
    111  CD1      -10.3130   48.1700   40.8950 C.ar   67  TRP67       0.0946
    112  CD2       -8.3180   47.8830   39.9170 C.ar   67  TRP67       0.0152
    113  NE1      -10.0850   49.2540   40.0860 N.ar   67  TRP67      -0.2442
    114  CE2       -8.8670   49.1050   39.4730 C.ar   67  TRP67       0.0810
    115  CE3       -7.0610   47.4880   39.4320 C.ar   67  TRP67       0.0012
    116  CZ2       -8.2020   49.9440   38.5660 C.ar   67  TRP67       0.0191
    117  CZ3       -6.3980   48.3250   38.5280 C.ar   67  TRP67       0.0001
    118  CH2       -6.9720   49.5390   38.1070 C.ar   67  TRP67       0.0015
    119  N        -10.1580   53.5510   40.6720 N.3    87  SER87      -0.1217
    120  CA        -8.8120   53.2780   40.1790 C.3    87  SER87       0.1889
    121  C         -7.7880   53.0850   41.2960 C.2    87  SER87       0.2288
    122  O         -7.8150   53.7810   42.3090 O.2    87  SER87      -0.2866
    123  CB        -8.3610   54.4220   39.2690 C.3    87  SER87       0.2089
    124  OG        -6.9700   54.3570   39.0180 O.3    87  SER87      -0.2183
    125  N         -4.6900   53.5620   40.7760 N.3    89  ASN89      -0.1240
    126  CA        -3.5970   54.4570   40.3980 C.3    89  ASN89       0.1653
    127  C         -3.8210   55.8640   40.9410 C.2    89  ASN89       0.2266
    128  O         -2.9510   56.4280   41.6060 O.2    89  ASN89      -0.2867
    129  CB        -3.4840   54.5160   38.8820 C.3    89  ASN89       0.1155
    130  CG        -3.3230   53.1490   38.2580 C.2    89  ASN89       0.2627
    131  OD1       -3.8850   52.8740   37.1970 O.2    89  ASN89      -0.2716
    132  ND2       -2.5510   52.2830   38.9050 N.am   89  ASN89      -0.0877
@<TRIPOS>BOND
     1    36    35   ar
     2    37    35   ar
     3    35    34    1
     4    33    34    1
     5    33    30    1
     6    32    31    2
     7    31    30    1
     8    31    38   am
     9    30    29    1
    10    39    38    1
    11    39    42    1
    12    39    40    1
    13    41    40    2
    14    42    43    1
    15     1     2    1
    16    29    25   am
    17     3     2    1
    18     3     4    2
    19     5     2    1
    20     5     6    1
    21    26    25    2
    22     7     6    1
    23     7     8    1
    24    25    24    1
    25     8     9    2
    26    28    27    1
    27    24    27    1
    28    24    23    1
    29     9    11    1
    30     9    10    1
    31    21    20    1
    32    20    22    1
    33    20    19    2
    34    18    19    1
    35    18    17    1
    36    68    67   ar
    37    68    66   ar
    38    67    65   ar
    39    16    17    1
    40    16    13    1
    41    66    64   ar
    42    14    13    1
    43    14    15    2
    44    49    48    1
    45    65    64   ar
    46    88    87    1
    47    64    63    1
    48    13    12    1
    49    48    45    1
    50    87    86    1
    51    63    60    1
    52    44    45    1
    53    45    46    1
    54    86    85    1
    55    60    59    1
    56    60    61    1
    57    47    46    2
    58    59    52   am
    59    85    84    1
    60    50    51    1
    61    84    81    1
    62    52    51    1
    63    52    53    2
    64    61    62    2
    65    61    69   am
    66    51    54    1
    67    81    80    1
    68    81    82    1
    69    72    71    2
    70    69    70    1
    71    80    71   am
    72    71    70    1
    73    70    73    1
    74    54    55    1
    75    55    56    1
    76    82    83    2
    77    96    94    1
    78    73    74    1
    79    56    58   am
    80    56    57    2
    81    75    74   ar
    82    75    77   ar
    83    90    89    1
    84    90    93    1
    85    90    91    1
    86    74    76   ar
    87    94    93    1
    88    94    95    1
    89    77    79   ar
    90    76    78   ar
    91    91    92    2
    92    79    78   ar
    93   104   102    1
    94   131   130    2
    95   100    99    2
    96   118   117   ar
    97   118   116   ar
    98   102   101    1
    99   102   103    1
   100   130   129    1
   101   130   132   am
   102    98   101    1
   103    98    99    1
   104    98    97    1
   105   117   115   ar
   106   116   114   ar
   107    99   105   am
   108   129   126    1
   109   124   123    1
   110   123   120    1
   111   115   112   ar
   112   114   112   ar
   113   114   113   ar
   114   112   110   ar
   115   113   111   ar
   116   105   106    1
   117   120   119    1
   118   120   121    1
   119   126   125    1
   120   126   127    1
   121   106   109    1
   122   106   107    1
   123   110   111   ar
   124   110   109    1
   125   127   128    2
   126   108   107    2
   127   121   122    2
