@<TRIPOS>MOLECULE
tmp/3n83E00.pdb
 150 147 0 0 0
SMALL
GASTEIGER

@<TRIPOS>ATOM
      1  N         58.0350  142.4740  106.3300 N.3   159  ILE159     -0.1231
      2  CA        57.0410  143.0380  105.4230 C.3   159  ILE159      0.1692
      3  C         56.1830  141.8830  104.9320 C.2   159  ILE159      0.2592
      4  O         56.6940  140.9220  104.3380 O.2   159  ILE159     -0.2718
      5  CB        57.7000  143.8400  104.2570 C.3   159  ILE159      0.0266
      6  CG1       58.5310  145.0150  104.8040 C.3   159  ILE159      0.0019
      7  CG2       56.6260  144.3930  103.2910 C.3   159  ILE159      0.0020
      8  CD1       59.6040  145.5290  103.8410 C.3   159  ILE159      0.0001
      9  N         54.8830  141.9610  105.2170 N.am  160  ILE160     -0.1966
     10  CA        53.9960  140.8190  104.9870 C.3   160  ILE160      0.1712
     11  C         52.7910  141.1530  104.0890 C.2   160  ILE160      0.2458
     12  O         52.3990  142.3270  103.9630 O.2   160  ILE160     -0.2730
     13  CB        53.5720  140.1070  106.3250 C.3   160  ILE160      0.0289
     14  CG1       52.7410  141.0260  107.2400 C.3   160  ILE160      0.0022
     15  CG2       54.8090  139.5800  107.0640 C.3   160  ILE160      0.0023
     16  CD1       52.0100  140.2820  108.3830 C.3   160  ILE160      0.0001
     17  N         52.2240  140.1260  103.4360 N.am  161  PRO161     -0.2716
     18  CA        51.1180  140.3650  102.5040 C.3   161  PRO161      0.1536
     19  C         49.7280  140.1660  103.1350 C.2   161  PRO161      0.2598
     20  O         49.6160  139.9210  104.3380 O.2   161  PRO161     -0.2715
     21  CB        51.3870  139.3230  101.4170 C.3   161  PRO161      0.0310
     22  CG        52.0120  138.1630  102.1830 C.3   161  PRO161      0.0237
     23  CD        52.5980  138.6960  103.4680 C.3   161  PRO161      0.0939
     24  N         48.6910  140.2530  102.3080 N.am  162  TRP162     -0.1974
     25  CA        47.3090  140.3190  102.7730 C.3   162  TRP162      0.1640
     26  C         46.5420  138.9870  102.7250 C.2   162  TRP162      0.2290
     27  O         45.4090  138.9130  103.1910 O.2   162  TRP162     -0.2864
     28  CB        46.5600  141.3820  101.9570 C.3   162  TRP162      0.0576
     29  CG        46.8030  141.2660  100.4660 C.ar  162  TRP162      0.0006
     30  CD1       47.6380  142.0420   99.7060 C.ar  162  TRP162      0.0946
     31  CD2       46.2300  140.2970   99.5680 C.ar  162  TRP162      0.0152
     32  NE1       47.6110  141.6260   98.3950 N.ar  162  TRP162     -0.2442
     33  CE2       46.7580  140.5570   98.2810 C.ar  162  TRP162      0.0810
     34  CE3       45.3170  139.2430   99.7230 C.ar  162  TRP162      0.0012
     35  CZ2       46.4090  139.7900   97.1540 C.ar  162  TRP162      0.0191
     36  CZ3       44.9770  138.4740   98.5970 C.ar  162  TRP162      0.0001
     37  CH2       45.4980  138.7700   97.3360 C.ar  162  TRP162      0.0015
     38  N         55.7710  145.7480  108.8880 N.3   186  LYS186     -0.1231
     39  CA        54.8880  146.4900  108.0010 C.3   186  LYS186      0.1693
     40  C         53.8190  145.5230  107.4870 C.2   186  LYS186      0.2592
     41  O         54.1230  144.6090  106.7140 O.2   186  LYS186     -0.2718
     42  CB        55.7040  147.0870  106.8400 C.3   186  LYS186      0.0285
     43  CG        55.2810  148.4980  106.3690 C.3   186  LYS186      0.0035
     44  CD        53.9230  148.5230  105.6820 C.3   186  LYS186      0.0206
     45  CE        53.9290  147.7960  104.3460 C.3   186  LYS186      0.1093
     46  NZ        52.5290  147.6860  103.7680 N.3   186  LYS186     -0.1314
     47  N         52.5750  145.7210  107.9250 N.am  187  VAL187     -0.1966
     48  CA        51.4450  144.8850  107.4930 C.3   187  VAL187      0.1727
     49  C         50.8390  145.4370  106.1990 C.2   187  VAL187      0.2616
     50  O         51.0290  146.6090  105.8820 O.2   187  VAL187     -0.2715
     51  CB        50.3620  144.7350  108.6090 C.3   187  VAL187      0.0290
     52  CG1       50.9560  143.9950  109.8220 C.3   187  VAL187      0.0023
     53  CG2       49.7610  146.1050  109.0110 C.3   187  VAL187      0.0023
     54  N         50.1330  144.5920  105.4480 N.am  188  ALA188     -0.1963
     55  CA        49.5440  145.0130  104.1670 C.3   188  ALA188      0.1728
     56  C         48.3610  145.9700  104.3490 C.2   188  ALA188      0.2616
     57  O         47.4650  145.7330  105.1830 O.2   188  ALA188     -0.2715
     58  CB        49.1260  143.8180  103.3480 C.3   188  ALA188      0.0334
     59  N         48.3610  147.0340  103.5450 N.am  189  GLU189     -0.1963
     60  CA        47.3030  148.0530  103.5580 C.3   189  GLU189      0.1733
     61  C         45.8940  147.4720  103.4140 C.2   189  GLU189      0.2616
     62  O         44.9390  148.0440  103.9230 O.2   189  GLU189     -0.2715
     63  CB        47.5460  149.1130  102.4670 C.3   189  GLU189      0.0429
     64  CG        47.7980  148.5650  101.0610 C.3   189  GLU189      0.1163
     65  CD        49.2850  148.3970  100.7360 C.2   189  GLU189      0.3649
     66  OE1       50.0560  147.7770  101.5310 O.co2 189  GLU189     -0.2457
     67  OE2       49.6820  148.9030   99.6670 O.co2 189  GLU189     -0.2457
     68  N         45.7780  146.3440  102.7140 N.am  190  GLN190     -0.1977
     69  CA        44.4830  145.7020  102.4740 C.3   190  GLN190      0.1601
     70  C         43.9250  145.0220  103.7170 C.2   190  GLN190      0.2287
     71  O         42.7270  144.9020  103.8450 O.2   190  GLN190     -0.2864
     72  CB        44.5510  144.6860  101.3180 C.3   190  GLN190      0.0394
     73  CG        44.8450  145.2940   99.9560 C.3   190  GLN190      0.0908
     74  CD        46.3350  145.3110   99.5720 C.2   190  GLN190      0.2608
     75  OE1       47.2330  145.3230  100.4210 O.2   190  GLN190     -0.2717
     76  NE2       46.5920  145.3200   98.2730 N.am  190  GLN190     -0.0878
     77  N         53.3590  150.2580  100.6660 N.3   219  GLY219     -0.1210
     78  CA        54.6350  149.6120  100.3810 C.3   219  GLY219      0.1940
     79  C         55.7470  150.5660   99.9790 C.2   219  GLY219      0.2453
     80  O         56.8570  150.5290  100.5550 O.2   219  GLY219     -0.2732
     81  N         55.4760  151.4190   98.9740 N.am  220  PRO220     -0.2728
     82  CA        56.5080  152.3160   98.4750 C.3   220  PRO220      0.1401
     83  C         56.9430  153.3650   99.5080 C.2   220  PRO220      0.2269
     84  O         57.9720  154.0140   99.3290 O.2   220  PRO220     -0.2865
     85  CB        55.8360  152.9910   97.2800 C.3   220  PRO220      0.0296
     86  CG        54.6690  152.1110   96.9280 C.3   220  PRO220      0.0237
     87  CD        54.2090  151.5700   98.2300 C.3   220  PRO220      0.0939
     88  N         57.0650  150.3580  103.6110 N.3   223  GLY223     -0.1210
     89  CA        57.8120  149.1720  103.2710 C.3   223  GLY223      0.1956
     90  C         59.2240  149.4910  102.8360 C.2   223  GLY223      0.2611
     91  O         60.1840  148.8940  103.3350 O.2   223  GLY223     -0.2717
     92  N         59.3540  150.4430  101.9120 N.am  224  ALA224     -0.1979
     93  CA        60.6440  150.8370  101.3450 C.3   224  ALA224      0.1597
     94  C         61.5510  151.4580  102.4090 C.2   224  ALA224      0.2287
     95  O         62.7600  151.2150  102.4150 O.2   224  ALA224     -0.2864
     96  CB        60.4290  151.8100  100.1790 C.3   224  ALA224      0.0319
     97  N         63.1280  148.5620  104.2340 N.3   227  ALA227     -0.1245
     98  CA        64.0970  147.8650  103.3850 C.3   227  ALA227      0.1562
     99  C         65.3970  148.6650  103.2280 C.2   227  ALA227      0.2260
    100  O         66.4950  148.0860  103.1250 O.2   227  ALA227     -0.2867
    101  CB        63.4820  147.5760  102.0180 C.3   227  ALA227      0.0290
    102  N         60.8440  139.6480  103.5860 N.3   237  PHE237     -0.1227
    103  CA        59.7270  140.0820  102.7790 C.3   237  PHE237      0.1736
    104  C         58.9410  138.9040  102.2170 C.2   237  PHE237      0.2595
    105  O         59.5320  137.9790  101.6650 O.2   237  PHE237     -0.2718
    106  CB        60.2260  140.9450  101.6320 C.3   237  PHE237      0.0547
    107  CG        59.1630  141.2890  100.6350 C.ar  237  PHE237     -0.0202
    108  CD1       58.3390  142.3920  100.8380 C.ar  237  PHE237     -0.0042
    109  CD2       58.9910  140.5180   99.4730 C.ar  237  PHE237     -0.0042
    110  CE1       57.3720  142.7130   99.9250 C.ar  237  PHE237     -0.0003
    111  CE2       58.0230  140.8440   98.5520 C.ar  237  PHE237     -0.0003
    112  CZ        57.2080  141.9380   98.7700 C.ar  237  PHE237     -0.0000
    113  N         57.6160  138.9670  102.3360 N.am  238  ALA238     -0.1966
    114  CA        56.7260  138.0610  101.6200 C.3   238  ALA238      0.1728
    115  C         55.7630  138.8540  100.7230 C.2   238  ALA238      0.2617
    116  O         55.1300  139.8390  101.1610 O.2   238  ALA238     -0.2715
    117  CB        55.9780  137.1570  102.5890 C.3   238  ALA238      0.0334
    118  N         55.6890  138.4500   99.4540 N.am  239  GLY239     -0.1940
    119  CA        54.8450  139.1240   98.4680 C.3   239  GLY239      0.2014
    120  C         55.2220  138.7750   97.0330 C.2   239  GLY239      0.2639
    121  O         55.6630  137.6650   96.7630 O.2   239  GLY239     -0.2714
    122  N         55.0510  139.7290   96.1210 N.am  240  SER240     -0.1949
    123  CA        55.3490  139.5260   94.7020 C.3   240  SER240      0.1924
    124  C         56.8460  139.4050   94.4120 C.2   240  SER240      0.2314
    125  O         57.6810  140.0350   95.0790 O.2   240  SER240     -0.2863
    126  CB        54.7420  140.6590   93.8670 C.3   240  SER240      0.2116
    127  OG        55.4550  141.8710   94.0530 O.3   240  SER240     -0.2180
    128  N         58.3570  142.8490   93.7510 N.3   243  ILE243     -0.1245
    129  CA        58.7530  143.6590   94.9090 C.3   243  ILE243      0.1561
    130  C         59.9230  143.0330   95.6700 C.2   243  ILE243      0.2260
    131  O         60.7010  143.7380   96.3130 O.2   243  ILE243     -0.2867
    132  CB        57.5280  143.9960   95.8310 C.3   243  ILE243      0.0252
    133  CG1       56.4890  144.8180   95.0570 C.3   243  ILE243      0.0019
    134  CG2       57.9480  144.7550   97.1120 C.3   243  ILE243      0.0019
    135  CD1       57.0070  146.0960   94.4380 C.3   243  ILE243      0.0001
    136  N         63.0190  144.6890   94.3560 N.3   246  VAL246     -0.1231
    137  CA        63.1240  146.0170   94.9620 C.3   246  VAL246      0.1692
    138  C         63.7230  145.9260   96.3750 C.2   246  VAL246      0.2591
    139  O         64.6030  146.7090   96.7160 O.2   246  VAL246     -0.2718
    140  CB        61.7450  146.7570   94.9550 C.3   246  VAL246      0.0266
    141  CG1       61.8090  148.0800   95.7000 C.3   246  VAL246      0.0020
    142  CG2       61.2790  146.9890   93.5210 C.3   246  VAL246      0.0020
    143  N         63.2850  144.9340   97.1580 N.am  247  ILE247     -0.1980
    144  CA        63.8050  144.6940   98.5170 C.3   247  ILE247      0.1595
    145  C         65.2940  144.3270   98.5130 C.2   247  ILE247      0.2287
    146  O         66.0690  144.9330   99.2380 O.2   247  ILE247     -0.2864
    147  CB        63.0050  143.5770   99.2480 C.3   247  ILE247      0.0276
    148  CG1       61.4810  143.8530   99.2280 C.3   247  ILE247      0.0022
    149  CG2       63.5740  143.3100  100.6550 C.3   247  ILE247      0.0022
    150  CD1       60.9760  144.9590  100.1240 C.3   247  ILE247      0.0001
@<TRIPOS>BOND
     1   142   140    1
     2   128   129    1
     3   126   127    1
     4   126   123    1
     5   136   137    1
     6   124   123    1
     7   124   125    2
     8   135   133    1
     9   123   122    1
    10   129   130    1
    11   129   132    1
    12   140   137    1
    13   140   141    1
    14   137   138    1
    15   133   132    1
    16   130   131    2
    17   132   134    1
    18   122   120   am
    19   138   139    2
    20   138   143   am
    21   121   120    2
    22    86    85    1
    23    86    87    1
    24   120   119    1
    25    35    37   ar
    26    35    33   ar
    27   143   144    1
    28    85    82    1
    29    37    36   ar
    30    87    81    1
    31    76    74   am
    32    33    32   ar
    33    33    31   ar
    34    32    30   ar
    35   119   118    1
    36    82    81    1
    37    82    83    1
    38   145   144    1
    39   145   146    2
    40   144   147    1
    41   111   112   ar
    42   111   109   ar
    43    36    34   ar
    44   112   110   ar
    45    81    79   am
    46   148   147    1
    47   148   150    1
    48   147   149    1
    49    84    83    2
    50   118   115   am
    51   109   107   ar
    52    31    34   ar
    53    31    29   ar
    54    74    73    1
    55    74    75    2
    56    67    65   ar
    57    30    29   ar
    58   110   108   ar
    59    73    72    1
    60    79    78    1
    61    79    80    2
    62    96    93    1
    63    78    77    1
    64    29    28    1
    65   107   108   ar
    66   107   106    1
    67   115   116    2
    68   115   114    1
    69    65    64    1
    70    65    66   ar
    71    64    63    1
    72    72    69    1
    73    93    92    1
    74    93    94    1
    75    21    22    1
    76    21    18    1
    77   114   113    1
    78   114   117    1
    79   106   103    1
    80   105   104    2
    81    92    90   am
    82    28    25    1
    83   101    98    1
    84    22    23    1
    85   104   113   am
    86   104   103    1
    87    24    25    1
    88    24    19   am
    89    94    95    2
    90    63    60    1
    91    69    68    1
    92    69    70    1
    93    18    19    1
    94    18    17    1
    95    68    61   am
    96    26    25    1
    97    26    27    2
    98   103   102    1
    99    90    89    1
   100    90    91    2
   101   100    99    2
   102    19    20    2
   103    99    98    1
   104    89    88    1
   105     7     5    1
   106    58    55    1
   107    98    97    1
   108    61    60    1
   109    61    62    2
   110    17    23    1
   111    17    11   am
   112    59    60    1
   113    59    56   am
   114    70    71    2
   115    46    45    1
   116     8     6    1
   117    12    11    2
   118    11    10    1
   119    55    56    1
   120    55    54    1
   121     5     6    1
   122     5     2    1
   123     4     3    2
   124    45    44    1
   125    56    57    2
   126     3     9   am
   127     3     2    1
   128    10     9    1
   129    10    13    1
   130     2     1    1
   131    54    49   am
   132    44    43    1
   133    50    49    2
   134    49    48    1
   135    13    15    1
   136    13    14    1
   137    43    42    1
   138    41    40    2
   139    42    39    1
   140    14    16    1
   141    40    47   am
   142    40    39    1
   143    48    47    1
   144    48    51    1
   145    39    38    1
   146    51    53    1
   147    51    52    1
