@<TRIPOS>MOLECULE
tmp/3n84C00.pdb
 141 136 0 0 0
SMALL
GASTEIGER

@<TRIPOS>ATOM
      1  N          4.7160  -41.2580   26.7670 N.3    13  ARG13      -0.1245
      2  CA         3.8480  -40.6530   25.7460 C.3    13  ARG13       0.1563
      3  C          3.5340  -39.2010   26.1260 C.2    13  ARG13       0.2260
      4  O          3.6500  -38.3220   25.2900 O.2    13  ARG13      -0.2867
      5  CB         2.5630  -41.4980   25.6680 C.3    13  ARG13       0.0307
      6  CG         1.4110  -40.9090   24.8720 C.3    13  ARG13       0.0489
      7  CD         0.2720  -41.9150   24.8290 C.3    13  ARG13       0.2205
      8  NE        -0.9630  -41.3520   24.3020 N.pl3  13  ARG13      -0.0865
      9  CZ        -1.6250  -41.8390   23.2480 C.cat  13  ARG13       0.5346
     10  NH1       -1.1740  -42.8910   22.5570 N.pl3  13  ARG13       0.1354
     11  NH2       -2.7910  -41.3120   22.9300 N.pl3  13  ARG13       0.1354
     12  N          9.4770  -43.1460   19.3260 N.3    32  ARG32      -0.1245
     13  CA         9.8620  -43.5260   20.6910 C.3    32  ARG32       0.1563
     14  C          9.5820  -45.0160   20.8750 C.2    32  ARG32       0.2260
     15  O          8.7820  -45.6000   20.1380 O.2    32  ARG32      -0.2867
     16  CB         9.0520  -42.7300   21.7420 C.3    32  ARG32       0.0307
     17  CG         7.5350  -42.7210   21.5290 C.3    32  ARG32       0.0489
     18  CD         6.7860  -41.8060   22.4780 C.3    32  ARG32       0.2205
     19  NE         5.3550  -41.6880   22.1440 N.pl3  32  ARG32      -0.0865
     20  CZ         4.4170  -42.5910   22.4510 C.cat  32  ARG32       0.5346
     21  NH1        4.7110  -43.7150   23.1270 N.pl3  32  ARG32       0.1354
     22  NH2        3.1770  -42.4200   22.0070 N.pl3  32  ARG32       0.1354
     23  N          7.8010  -47.6690   22.7920 N.3    34  SER34      -0.1202
     24  CA         6.5340  -47.6400   23.5370 C.3    34  SER34       0.2020
     25  C          6.6760  -48.2000   24.9520 C.2    34  SER34       0.2619
     26  O          7.4390  -49.1220   25.1820 O.2    34  SER34      -0.2717
     27  CB         5.4580  -48.4470   22.8210 C.3    34  SER34       0.2103
     28  OG         4.2320  -48.3370   23.5330 O.3    34  SER34      -0.2182
     29  N          5.9180  -47.6190   25.8800 N.am   35  GLU35      -0.1965
     30  CA         5.9000  -48.1170   27.2640 C.3    35  GLU35       0.1733
     31  C          4.7360  -49.0980   27.4270 C.2    35  GLU35       0.2617
     32  O          4.8770  -50.1550   28.0680 O.2    35  GLU35      -0.2715
     33  CB         5.7550  -46.9720   28.2580 C.3    35  GLU35       0.0429
     34  CG         6.9430  -46.0230   28.2440 C.3    35  GLU35       0.1163
     35  CD         7.0060  -45.1280   29.4660 C.2    35  GLU35       0.3649
     36  OE1        8.0750  -45.1150   30.0890 O.co2  35  GLU35      -0.2457
     37  OE2        6.0020  -44.4460   29.8060 O.co2  35  GLU35      -0.2457
     38  N          3.6010  -48.7900   26.7930 N.am   36  SER36      -0.1950
     39  CA         2.3830  -49.6110   26.8870 C.3    36  SER36       0.1924
     40  C          2.5580  -50.9260   26.1240 C.2    36  SER36       0.2314
     41  O          1.9680  -51.9470   26.4810 O.2    36  SER36      -0.2863
     42  CB         1.1880  -48.8500   26.3010 C.3    36  SER36       0.2116
     43  OG         1.4190  -48.6310   24.9250 O.3    36  SER36      -0.2180
     44  N          6.3680  -46.2380   18.6060 N.3    42  SER42      -0.1217
     45  CA         5.2480  -45.3070   18.4100 C.3    42  SER42       0.1889
     46  C          5.8180  -44.0400   17.7720 C.2    42  SER42       0.2288
     47  O          6.9530  -43.6240   18.0760 O.2    42  SER42      -0.2866
     48  CB         4.5810  -44.9300   19.7400 C.3    42  SER42       0.2089
     49  OG         3.9350  -46.0110   20.3390 O.3    42  SER42      -0.2183
     50  N         -0.7120  -36.1740   17.8360 N.3    52  GLN52      -0.1231
     51  CA        -1.3060  -37.4570   17.4290 C.3    52  GLN52       0.1698
     52  C         -0.2420  -38.5530   17.5050 C.2    52  GLN52       0.2592
     53  O          0.9400  -38.3020   17.2230 O.2    52  GLN52      -0.2718
     54  CB        -1.8140  -37.3570   15.9950 C.3    52  GLN52       0.0381
     55  CG        -3.1300  -36.6110   15.8820 C.3    52  GLN52       0.0905
     56  CD        -3.7310  -36.6610   14.4840 C.2    52  GLN52       0.2608
     57  OE1       -3.1440  -37.2190   13.5510 O.2    52  GLN52      -0.2717
     58  NE2       -4.9190  -36.0920   14.3390 N.am   52  GLN52      -0.0878
     59  N         -0.6750  -39.7660   17.8520 N.am   53  HIS53      -0.1962
     60  CA         0.2550  -40.8970   17.9790 C.3    53  HIS53       0.1787
     61  C         -0.1470  -42.0080   17.0100 C.2    53  HIS53       0.2620
     62  O         -1.3200  -42.2550   16.8040 O.2    53  HIS53      -0.2715
     63  CB         0.2420  -41.4380   19.4080 C.3    53  HIS53       0.0785
     64  CG         0.5500  -40.3960   20.4330 C.ar   53  HIS53       0.0821
     65  ND1        1.8320  -39.9860   20.7050 N.ar   53  HIS53      -0.2267
     66  CD2       -0.2640  -39.6390   21.2050 C.ar   53  HIS53       0.1154
     67  CE1        1.7970  -39.0230   21.6060 C.ar   53  HIS53       0.1986
     68  NE2        0.5360  -38.7930   21.9280 N.ar   53  HIS53      -0.2212
     69  N          0.8650  -42.6490   16.4330 N.am   54  PHE54      -0.1960
     70  CA         0.6850  -43.7360   15.4590 C.3    54  PHE54       0.1771
     71  C          1.4430  -44.9640   15.9690 C.2    54  PHE54       0.2619
     72  O          2.6210  -44.8620   16.2910 O.2    54  PHE54      -0.2715
     73  CB         1.2930  -43.3200   14.1080 C.3    54  PHE54       0.0574
     74  CG         0.6410  -42.0910   13.4880 C.ar   54  PHE54      -0.0200
     75  CD1        0.8920  -40.7750   13.9900 C.ar   54  PHE54      -0.0042
     76  CD2       -0.2790  -42.2500   12.4430 C.ar   54  PHE54      -0.0042
     77  CE1        0.2190  -39.6420   13.4630 C.ar   54  PHE54      -0.0003
     78  CE2       -0.9570  -41.1250   11.8980 C.ar   54  PHE54      -0.0003
     79  CZ        -0.7150  -39.8250   12.4090 C.ar   54  PHE54      -0.0000
     80  N          0.7840  -46.1150   16.0290 N.am   55  LYS55      -0.1977
     81  CA         1.4860  -47.3330   16.4550 C.3    55  LYS55       0.1596
     82  C          2.1990  -47.9390   15.2430 C.2    55  LYS55       0.2287
     83  O          1.5820  -48.1480   14.1840 O.2    55  LYS55      -0.2864
     84  CB         0.4890  -48.3320   17.0810 C.3    55  LYS55       0.0298
     85  CG         1.1080  -49.7070   17.4060 C.3    55  LYS55       0.0038
     86  CD         0.1310  -50.6520   18.1380 C.3    55  LYS55       0.0206
     87  CE        -0.1650  -50.2110   19.5920 C.3    55  LYS55       0.1093
     88  NZ         1.0950  -50.0210   20.3800 N.3    55  LYS55      -0.1314
     89  N          3.3120  -50.7890   13.4330 N.3    57  LEU57      -0.1245
     90  CA         2.9650  -52.2180   13.4240 C.3    57  LEU57       0.1561
     91  C          4.0800  -53.0380   12.7720 C.2    57  LEU57       0.2260
     92  O          4.8770  -52.5120   12.0100 O.2    57  LEU57      -0.2867
     93  CB         1.6700  -52.3900   12.6390 C.3    57  LEU57       0.0270
     94  CG         0.4770  -51.5720   13.1500 C.3    57  LEU57       0.0019
     95  CD1       -0.5350  -51.4890   11.9910 C.3    57  LEU57       0.0001
     96  CD2       -0.1270  -52.1850   14.4670 C.3    57  LEU57       0.0001
     97  N          2.3350  -48.5170    9.0380 N.3    66  LEU66      -0.1231
     98  CA         1.2940  -47.7820    9.7680 C.3    66  LEU66       0.1693
     99  C         -0.0750  -48.1310    9.1770 C.2    66  LEU66       0.2592
    100  O         -1.0590  -48.2950    9.8990 O.2    66  LEU66      -0.2718
    101  CB         1.4870  -46.2750    9.5940 C.3    66  LEU66       0.0284
    102  CG         2.8030  -45.6210   10.0540 C.3    66  LEU66       0.0019
    103  CD1        2.6700  -44.1410    9.9020 C.3    66  LEU66       0.0001
    104  CD2        3.1080  -45.9970   11.5050 C.3    66  LEU66       0.0001
    105  N         -0.1120  -48.2320    7.8510 N.am   67  TRP67      -0.1976
    106  CA        -1.3750  -48.4570    7.1330 C.3    67  TRP67       0.1640
    107  C         -1.2870  -49.6820    6.2200 C.2    67  TRP67       0.2290
    108  O         -1.4710  -50.8010    6.6910 O.2    67  TRP67      -0.2864
    109  CB        -1.7360  -47.1980    6.3740 C.3    67  TRP67       0.0576
    110  CG        -1.8060  -45.9730    7.2290 C.ar   67  TRP67       0.0006
    111  CD1       -0.8690  -44.9930    7.3050 C.ar   67  TRP67       0.0946
    112  CD2       -2.8820  -45.5760    8.1050 C.ar   67  TRP67       0.0152
    113  NE1       -1.2800  -44.0100    8.1810 N.ar   67  TRP67      -0.2442
    114  CE2       -2.5110  -44.3310    8.6790 C.ar   67  TRP67       0.0810
    115  CE3       -4.1290  -46.1330    8.4410 C.ar   67  TRP67       0.0012
    116  CZ2       -3.3440  -43.6240    9.5810 C.ar   67  TRP67       0.0191
    117  CZ3       -4.9840  -45.4290    9.3480 C.ar   67  TRP67       0.0001
    118  CH2       -4.5740  -44.1800    9.9050 C.ar   67  TRP67       0.0015
    119  N         -0.9000  -39.7890    7.9060 N.3    87  SER87      -0.1217
    120  CA        -2.2680  -40.1560    8.2900 C.3    87  SER87       0.1889
    121  C         -3.1490  -40.3460    7.0520 C.2    87  SER87       0.2288
    122  O         -3.0030  -39.6450    6.0670 O.2    87  SER87      -0.2866
    123  CB        -2.8840  -39.0400    9.1050 C.3    87  SER87       0.2089
    124  OG        -4.1980  -39.3890    9.4570 O.3    87  SER87      -0.2183
    125  N         -6.3100  -39.9870    7.5750 N.3    89  ASN89      -0.1225
    126  CA        -7.4720  -39.1860    7.9850 C.3    89  ASN89       0.1785
    127  C         -7.2900  -37.7010    7.6610 C.2    89  ASN89       0.2597
    128  O         -8.2460  -37.0400    7.2350 O.2    89  ASN89      -0.2718
    129  CB        -7.8080  -39.4220    9.4480 C.3    89  ASN89       0.1169
    130  CG        -8.1430  -40.8810    9.7420 C.2    89  ASN89       0.2627
    131  OD1       -7.9340  -41.3660   10.8630 O.2    89  ASN89      -0.2716
    132  ND2       -8.6480  -41.5890    8.7400 N.am   89  ASN89      -0.0877
    133  N         -6.1170  -37.1500    7.9840 N.am   90  GLN90      -0.1979
    134  CA        -5.8060  -35.7440    7.6830 C.3    90  GLN90       0.1601
    135  C         -4.4470  -35.6870    6.9820 C.2    90  GLN90       0.2287
    136  O         -3.6830  -36.6540    7.0190 O.2    90  GLN90      -0.2864
    137  CB        -5.7460  -34.8740    8.9540 C.3    90  GLN90       0.0394
    138  CG        -7.0750  -34.5960    9.6290 C.3    90  GLN90       0.0908
    139  CD        -7.5040  -35.6700   10.6120 C.2    90  GLN90       0.2608
    140  OE1       -6.6750  -36.2630   11.3320 O.2    90  GLN90      -0.2717
    141  NE2       -8.7970  -35.9380   10.6470 N.am   90  GLN90      -0.0878
@<TRIPOS>BOND
     1   122   121    2
     2   107   108    2
     3   107   106    1
     4   109   106    1
     5   109   110    1
     6   135   136    2
     7   135   134    1
     8   121   120    1
     9   106   105    1
    10   110   111   ar
    11   110   112   ar
    12   128   127    2
    13   111   113   ar
    14   125   126    1
    15   127   133   am
    16   127   126    1
    17   134   133    1
    18   134   137    1
    19   105    99   am
    20   119   120    1
    21   126   129    1
    22   112   115   ar
    23   112   114   ar
    24   113   114   ar
    25   120   123    1
    26   115   117   ar
    27   114   116   ar
    28   132   130   am
    29   137   138    1
    30    97    98    1
    31   123   124    1
    32    99    98    1
    33    99   100    2
    34   117   118   ar
    35   129   130    1
    36   116   118   ar
    37   101    98    1
    38   101   102    1
    39   138   139    1
    40   130   131    2
    41   103   102    1
    42   102   104    1
    43   139   141   am
    44   139   140    2
    45    78    79   ar
    46    78    76   ar
    47    95    94    1
    48    92    91    2
    49    79    77   ar
    50    76    74   ar
    51    93    94    1
    52    93    90    1
    53    91    90    1
    54    94    96    1
    55    90    89    1
    56    77    75   ar
    57    74    75   ar
    58    74    73    1
    59    57    56    2
    60    73    70    1
    61    83    82    2
    62    58    56   am
    63    56    55    1
    64    82    81    1
    65    70    71    1
    66    70    69    1
    67    55    54    1
    68    71    80   am
    69    71    72    2
    70    54    51    1
    71    80    81    1
    72    69    61   am
    73    81    84    1
    74    62    61    2
    75    61    60    1
    76    84    85    1
    77    53    52    2
    78    85    86    1
    79    51    52    1
    80    51    50    1
    81    52    59   am
    82    46    47    2
    83    46    45    1
    84    59    60    1
    85    60    63    1
    86    86    87    1
    87    45    44    1
    88    45    48    1
    89    12    13    1
    90    63    64    1
    91    87    88    1
    92    48    49    1
    93    15    14    2
    94    64    65   ar
    95    64    66   ar
    96    13    14    1
    97    13    16    1
    98    65    67   ar
    99    66    68   ar
   100    17    16    1
   101    17    18    1
   102    67    68   ar
   103    22    20    1
   104    19    20    2
   105    19    18    1
   106    20    21    1
   107    10     9    1
   108    23    24    1
   109    27    28    1
   110    27    24    1
   111    11     9    1
   112     9     8    2
   113    24    25    1
   114     8     7    1
   115     7     6    1
   116     6     5    1
   117    43    42    1
   118    25    26    2
   119    25    29   am
   120     4     3    2
   121     5     2    1
   122     2     3    1
   123     2     1    1
   124    29    30    1
   125    40    41    2
   126    40    39    1
   127    42    39    1
   128    38    39    1
   129    38    31   am
   130    30    31    1
   131    30    33    1
   132    31    32    2
   133    34    33    1
   134    34    35    1
   135    35    37   ar
   136    35    36   ar
