@<TRIPOS>MOLECULE
tmp/3n85A01.pdb
 102 94 0 0 0
SMALL
GASTEIGER

@<TRIPOS>ATOM
      1  N         71.7110   30.8420  -49.8350 N.3     2  GLN2       -0.1245
      2  CA        72.2260   31.0080  -51.1930 C.3     2  GLN2        0.1566
      3  C         73.7560   31.0300  -51.2600 C.2     2  GLN2        0.2260
      4  O         74.3460   30.7150  -52.3000 O.2     2  GLN2       -0.2867
      5  CB        71.6750   32.3080  -51.7830 C.3     2  GLN2        0.0367
      6  CG        71.7520   33.5170  -50.8420 C.3     2  GLN2        0.0905
      7  CD        71.2760   34.8020  -51.4890 C.2     2  GLN2        0.2608
      8  OE1       71.8380   35.2700  -52.4920 O.2     2  GLN2       -0.2717
      9  NE2       70.2390   35.3930  -50.9070 N.am    2  GLN2       -0.0878
     10  N         74.0240   29.2690  -54.4810 N.3    32  GLN32      -0.1245
     11  CA        74.0250   30.1550  -55.6550 C.3    32  GLN32       0.1566
     12  C         75.3510   30.8760  -55.8180 C.2    32  GLN32       0.2260
     13  O         75.8770   31.0050  -56.9240 O.2    32  GLN32      -0.2867
     14  CB        72.9420   31.2120  -55.5110 C.3    32  GLN32       0.0367
     15  CG        71.5590   30.7100  -55.7630 C.3    32  GLN32       0.0905
     16  CD        70.5400   31.7750  -55.5230 C.2    32  GLN32       0.2608
     17  OE1       70.1350   32.0190  -54.3890 O.2    32  GLN32      -0.2717
     18  NE2       70.1130   32.4260  -56.5920 N.am   32  GLN32      -0.0878
     19  N         75.5180   30.2670  -59.4940 N.3    56  GLN56      -0.1231
     20  CA        75.3860   31.4380  -60.3390 C.3    56  GLN56       0.1698
     21  C         76.7070   32.1970  -60.4030 C.2    56  GLN56       0.2592
     22  O         76.9870   32.8990  -61.3750 O.2    56  GLN56      -0.2718
     23  CB        74.3210   32.3440  -59.7370 C.3    56  GLN56       0.0381
     24  CG        73.6740   33.2890  -60.7040 C.3    56  GLN56       0.0905
     25  CD        72.6620   34.1940  -60.0330 C.2    56  GLN56       0.2608
     26  OE1       72.7350   35.4210  -60.1570 O.2    56  GLN56      -0.2717
     27  NE2       71.7130   33.5980  -59.3100 N.am   56  GLN56      -0.0878
     28  N         77.5300   32.0220  -59.3720 N.am   57  GLU57      -0.1979
     29  CA        78.6510   32.9060  -59.1150 C.3    57  GLU57       0.1602
     30  C         79.7090   32.2120  -58.2530 C.2    57  GLU57       0.2287
     31  O         79.3790   31.6290  -57.2190 O.2    57  GLU57      -0.2864
     32  CB        78.0930   34.1310  -58.4020 C.3    57  GLU57       0.0415
     33  CG        79.0660   35.2300  -58.1370 C.3    57  GLU57       0.1163
     34  CD        78.3690   36.5290  -57.8200 C.2    57  GLU57       0.3649
     35  OE1       77.3330   36.8300  -58.4640 O.co2  57  GLU57      -0.2457
     36  OE2       78.8660   37.2470  -56.9250 O.co2  57  GLU57      -0.2457
     37  N         77.4890   32.4690  -64.0400 N.3    78  ARG78      -0.1245
     38  CA        77.6770   33.7130  -64.8040 C.3    78  ARG78       0.1563
     39  C         79.0840   34.2860  -64.7030 C.2    78  ARG78       0.2260
     40  O         79.5940   34.8780  -65.6580 O.2    78  ARG78      -0.2867
     41  CB        76.7040   34.7820  -64.3300 C.3    78  ARG78       0.0307
     42  CG        75.2820   34.5290  -64.7210 C.3    78  ARG78       0.0489
     43  CD        74.3320   35.3180  -63.8420 C.3    78  ARG78       0.2205
     44  NE        72.9690   35.2710  -64.3620 N.pl3  78  ARG78      -0.0865
     45  CZ        71.9740   36.0360  -63.9310 C.cat  78  ARG78       0.5346
     46  NH1       72.1740   36.9170  -62.9630 N.pl3  78  ARG78       0.1354
     47  NH2       70.7750   35.9220  -64.4740 N.pl3  78  ARG78       0.1354
     48  N         70.7470   48.5370  -61.6770 N.3   218  SER218     -0.1217
     49  CA        69.9070   47.4920  -61.1000 C.3   218  SER218      0.1889
     50  C         69.6090   46.4200  -62.1470 C.2   218  SER218      0.2288
     51  O         68.9040   45.4450  -61.8790 O.2   218  SER218     -0.2866
     52  CB        68.6020   48.0940  -60.5750 C.3   218  SER218      0.2089
     53  OG        67.8710   48.7370  -61.6070 O.3   218  SER218     -0.2183
     54  N         72.0560   44.8200  -63.7920 N.3   220  CYS220     -0.1221
     55  CA        73.2730   44.0100  -63.8790 C.3   220  CYS220      0.1808
     56  C         73.0220   42.5180  -63.8240 C.2   220  CYS220      0.2601
     57  O         72.1790   42.0570  -63.0560 O.2   220  CYS220     -0.2717
     58  CB        74.1880   44.3540  -62.7130 C.3   220  CYS220      0.0970
     59  SG        74.9720   45.9550  -62.8210 S.3   220  CYS220     -0.0800
     60  N         73.7720   41.7560  -64.6100 N.am  221  LEU221     -0.1965
     61  CA        73.7400   40.2990  -64.4640 C.3   221  LEU221      0.1728
     62  C         74.6550   39.8440  -63.3320 C.2   221  LEU221      0.2616
     63  O         74.4780   38.7610  -62.7800 O.2   221  LEU221     -0.2715
     64  CB        74.1050   39.5930  -65.7710 C.3   221  LEU221      0.0311
     65  CG        73.1020   39.6980  -66.9230 C.3   221  LEU221      0.0022
     66  CD1       73.6180   38.9400  -68.1320 C.3   221  LEU221      0.0001
     67  CD2       71.7170   39.2060  -66.5170 C.3   221  LEU221      0.0001
     68  N         75.6360   40.6800  -63.0030 N.am  222  ALA222     -0.1963
     69  CA        76.5300   40.4510  -61.8680 C.3   222  ALA222      0.1728
     70  C         77.1260   41.7850  -61.4290 C.2   222  ALA222      0.2616
     71  O         77.3070   42.6850  -62.2570 O.2   222  ALA222     -0.2715
     72  CB        77.6350   39.4690  -62.2390 C.3   222  ALA222      0.0334
     73  N         77.4180   41.9180  -60.1350 N.am  223  CYS223     -0.1968
     74  CA        78.0570   43.1300  -59.6300 C.3   223  CYS223      0.1712
     75  C         79.5620   43.0180  -59.7330 C.2   223  CYS223      0.2296
     76  O         80.1480   42.0140  -59.3450 O.2   223  CYS223     -0.2864
     77  CB        77.6560   43.4170  -58.1880 C.3   223  CYS223      0.0983
     78  SG        75.9220   43.9440  -57.9340 S.3   223  CYS223     -0.0798
     79  N         77.0590   43.9880  -54.1160 N.3   227  ASN227     -0.1240
     80  CA        75.6190   43.9760  -54.3170 C.3   227  ASN227      0.1653
     81  C         74.8830   44.5600  -53.1180 C.2   227  ASN227      0.2266
     82  O         74.8250   43.9370  -52.0600 O.2   227  ASN227     -0.2867
     83  CB        75.1470   42.5510  -54.5870 C.3   227  ASN227      0.1155
     84  CG        73.7270   42.4860  -55.1130 C.2   227  ASN227      0.2627
     85  OD1       72.9730   43.4640  -55.0510 O.2   227  ASN227     -0.2716
     86  ND2       73.3590   41.3170  -55.6470 N.am  227  ASN227     -0.0877
     87  N         71.5180   45.1500  -51.9370 N.3   229  SER229     -0.1202
     88  CA        70.0970   44.8060  -52.1030 C.3   229  SER229      0.2020
     89  C         69.5520   45.0120  -53.5230 C.2   229  SER229      0.2619
     90  O         68.5220   45.6640  -53.7110 O.2   229  SER229     -0.2717
     91  CB        69.2330   45.5590  -51.0890 C.3   229  SER229      0.2103
     92  OG        69.1580   44.8570  -49.8630 O.3   229  SER229     -0.2182
     93  N         70.2490   44.4630  -54.5160 N.am  230  GLY230     -0.1956
     94  CA        69.8090   44.5450  -55.9100 C.3   230  GLY230      0.1869
     95  C         70.3320   45.7310  -56.6990 C.2   230  GLY230      0.2309
     96  O         69.9270   45.9400  -57.8420 O.2   230  GLY230     -0.2863
     97  N         74.0630   47.4380  -57.8260 N.3   232  CYS232     -0.1235
     98  CA        75.5130   47.2780  -57.8490 C.3   232  CYS232      0.1677
     99  C         76.2350   48.5880  -57.5380 C.2   232  CYS232      0.2270
    100  O         75.9500   49.6250  -58.1470 O.2   232  CYS232     -0.2867
    101  CB        75.9730   46.7310  -59.1920 C.3   232  CYS232      0.0956
    102  SG        75.3850   45.0650  -59.5590 S.3   232  CYS232     -0.0801
@<TRIPOS>BOND
     1    66    65    1
     2    65    67    1
     3    65    64    1
     4    64    61    1
     5    40    39    2
     6    38    39    1
     7    38    41    1
     8    38    37    1
     9    42    41    1
    10    42    43    1
    11    60    61    1
    12    60    56   am
    13    47    45    1
    14    61    62    1
    15    44    45    2
    16    44    43    1
    17    45    46    1
    18    55    56    1
    19    55    54    1
    20    55    58    1
    21    56    57    2
    22    62    68   am
    23    62    63    2
    24    68    69    1
    25    59    58    1
    26    71    70    2
    27    72    69    1
    28    50    51    2
    29    50    49    1
    30    69    70    1
    31    48    49    1
    32    53    52    1
    33    70    73   am
    34    22    21    2
    35    49    52    1
    36    24    25    1
    37    24    23    1
    38    21    20    1
    39    21    28   am
    40    20    23    1
    41    20    19    1
    42    26    25    2
    43    73    74    1
    44    25    27   am
    45    75    74    1
    46    75    76    2
    47    74    77    1
    48   102   101    1
    49   102    78    1
    50    28    29    1
    51   101    98    1
    52    29    32    1
    53    29    30    1
    54    35    34   ar
    55    32    33    1
    56    30    31    2
    57    77    78    1
    58   100    99    2
    59    33    34    1
    60    98    97    1
    61    98    99    1
    62    96    95    2
    63    34    36   ar
    64    13    12    2
    65    95    94    1
    66    18    16   am
    67    94    93    1
    68    12    11    1
    69    15    16    1
    70    15    14    1
    71    11    14    1
    72    11    10    1
    73    86    84   am
    74    16    17    2
    75    84    85    2
    76    84    83    1
    77    83    80    1
    78    93    89   am
    79    80    79    1
    80    80    81    1
    81    90    89    2
    82    89    88    1
    83    81    82    2
    84     8     7    2
    85     4     3    2
    86    88    87    1
    87    88    91    1
    88     5     2    1
    89     5     6    1
    90     7     9   am
    91     7     6    1
    92     3     2    1
    93     2     1    1
    94    91    92    1
