@<TRIPOS>MOLECULE
tmp/3n86F00.pdb
 153 146 0 0 0
SMALL
GASTEIGER

@<TRIPOS>ATOM
      1  N         20.2270   -6.9510   30.0850 N.3     9  PRO9       -0.2102
      2  CA        19.0110   -6.5020   30.7380 C.3     9  PRO9        0.1504
      3  C         17.9470   -7.5250   30.6860 C.2     9  PRO9        0.2576
      4  O         17.8320   -8.2510   29.6480 O.2     9  PRO9       -0.2718
      5  CB        18.5640   -5.3420   29.8960 C.3     9  PRO9        0.0282
      6  CG        19.8720   -4.7700   29.3460 C.3     9  PRO9        0.0208
      7  CD        20.8100   -5.9280   29.1650 C.3     9  PRO9        0.0893
      8  N         17.1410   -7.5200   31.7480 N.am   10  ASN10      -0.1961
      9  CA        16.0260   -8.4500   31.9400 C.3    10  ASN10       0.1819
     10  C         16.4100   -9.9070   32.2720 C.2    10  ASN10       0.2621
     11  O         15.5510  -10.7030   32.7040 O.2    10  ASN10      -0.2715
     12  CB        15.0260   -8.4430   30.7680 C.3    10  ASN10       0.1195
     13  CG        14.6800   -7.0470   30.3010 C.2    10  ASN10       0.2630
     14  OD1       14.5340   -6.1060   31.1130 O.2    10  ASN10      -0.2716
     15  ND2       14.6970   -6.8640   28.9890 N.am   10  ASN10      -0.0877
     16  N         17.6650  -10.2850   32.0470 N.am   11  LEU11      -0.1977
     17  CA        18.0290  -11.6890   32.1870 C.3    11  LEU11       0.1596
     18  C         18.0270  -12.2080   33.6590 C.2    11  LEU11       0.2287
     19  O         18.0950  -13.4240   33.8700 O.2    11  LEU11      -0.2864
     20  CB        19.3370  -12.0160   31.4650 C.3    11  LEU11       0.0297
     21  CG        19.0210  -11.9260   29.9590 C.3    11  LEU11       0.0022
     22  CD1       20.3480  -11.7630   29.2570 C.3    11  LEU11       0.0001
     23  CD2       18.3710  -13.2260   29.4720 C.3    11  LEU11       0.0001
     24  N         15.3580  -12.3080   35.1290 N.3    13  ARG13      -0.1231
     25  CA        13.9880  -12.8870   35.1980 C.3    13  ARG13       0.1694
     26  C         13.8550  -14.2450   34.4800 C.2    13  ARG13       0.2591
     27  O         12.7330  -14.7570   34.3060 O.2    13  ARG13      -0.2718
     28  CB        12.9810  -11.8880   34.6140 C.3    13  ARG13       0.0321
     29  CG        12.8130  -10.6400   35.5030 C.3    13  ARG13       0.0489
     30  CD        12.0190   -9.4930   34.8690 C.3    13  ARG13       0.2205
     31  NE        10.5680   -9.7960   34.8090 N.pl3  13  ARG13      -0.0865
     32  CZ         9.7190   -9.7950   35.8610 C.cat  13  ARG13       0.5346
     33  NH1       10.1560   -9.5010   37.0570 N.pl3  13  ARG13       0.1354
     34  NH2        8.3940  -10.0290   35.6990 N.pl3  13  ARG13       0.1354
     35  N         14.9960  -14.7810   34.0300 N.am   14  LEU14      -0.1980
     36  CA        15.1040  -16.0780   33.3570 C.3    14  LEU14       0.1596
     37  C         14.3780  -17.1700   34.1190 C.2    14  LEU14       0.2287
     38  O         14.3950  -17.1760   35.3660 O.2    14  LEU14      -0.2864
     39  CB        16.5820  -16.4800   33.2110 C.3    14  LEU14       0.0297
     40  CG        17.2910  -15.9890   31.9370 C.3    14  LEU14       0.0022
     41  CD1       18.7720  -16.2510   32.0170 C.3    14  LEU14       0.0001
     42  CD2       16.6740  -16.6830   30.6640 C.3    14  LEU14       0.0001
     43  N         10.0810  -16.2340   34.0710 N.3    17  ARG17      -0.1231
     44  CA         9.3570  -15.3800   33.1180 C.3    17  ARG17       0.1694
     45  C          9.7790  -15.7430   31.6810 C.2    17  ARG17       0.2591
     46  O         10.8710  -16.2350   31.4740 O.2    17  ARG17      -0.2718
     47  CB         9.6150  -13.9000   33.4100 C.3    17  ARG17       0.0321
     48  CG         9.3040  -13.4710   34.9020 C.3    17  ARG17       0.0489
     49  CD         7.8830  -13.8630   35.2350 C.3    17  ARG17       0.2205
     50  NE         7.3940  -13.3940   36.5420 N.pl3  17  ARG17      -0.0865
     51  CZ         6.0850  -13.3790   36.9020 C.cat  17  ARG17       0.5346
     52  NH1        5.1330  -13.7870   36.0560 N.pl3  17  ARG17       0.1354
     53  NH2        5.7020  -12.9450   38.1030 N.pl3  17  ARG17       0.1354
     54  N          8.8710  -15.5500   30.7230 N.am   18  GLU18      -0.1979
     55  CA         9.1310  -15.7970   29.2890 C.3    18  GLU18       0.1602
     56  C          9.7290  -17.1840   29.0230 C.2    18  GLU18       0.2287
     57  O         10.6520  -17.3320   28.1850 O.2    18  GLU18      -0.2864
     58  CB        10.0210  -14.6730   28.7010 C.3    18  GLU18       0.0415
     59  CG         9.3890  -13.2690   28.7320 C.3    18  GLU18       0.1163
     60  CD         8.3160  -13.1050   27.6150 C.2    18  GLU18       0.3649
     61  OE1        8.5530  -12.3510   26.6190 O.co2  18  GLU18      -0.2457
     62  OE2        7.2630  -13.7680   27.7270 O.co2  18  GLU18      -0.2457
     63  N         12.9960  -17.9850   26.5500 N.3    22  TYR22      -0.1241
     64  CA        14.3980  -18.1150   27.0680 C.3    22  TYR22       0.1605
     65  C         14.6580  -19.3440   27.9820 C.2    22  TYR22       0.2264
     66  O         15.7440  -19.4450   28.5990 O.2    22  TYR22      -0.2867
     67  CB        14.8960  -16.8130   27.7380 C.3    22  TYR22       0.0534
     68  CG        14.7430  -15.6030   26.8270 C.ar   22  TYR22      -0.0201
     69  CD1       13.7060  -14.6820   27.0130 C.ar   22  TYR22      -0.0009
     70  CD2       15.6020  -15.4350   25.7230 C.ar   22  TYR22      -0.0009
     71  CE1       13.5680  -13.6260   26.1490 C.ar   22  TYR22       0.0417
     72  CE2       15.4640  -14.4010   24.8500 C.ar   22  TYR22       0.0417
     73  CZ        14.4310  -13.4990   25.0550 C.ar   22  TYR22       0.1957
     74  OH        14.2850  -12.4800   24.1390 O.3    22  TYR22      -0.2866
     75  N         26.1130  -12.5180   27.3210 N.3    73  ASN73      -0.1240
     76  CA        24.8110  -12.4350   26.6890 C.3    73  ASN73       0.1653
     77  C         24.2540  -11.0150   26.9370 C.2    73  ASN73       0.2266
     78  O         23.6780  -10.7730   27.9830 O.2    73  ASN73      -0.2867
     79  CB        23.8400  -13.4590   27.3110 C.3    73  ASN73       0.1155
     80  CG        22.4860  -13.4110   26.6640 C.2    73  ASN73       0.2627
     81  OD1       22.1430  -12.4210   26.0070 O.2    73  ASN73      -0.2716
     82  ND2       21.6860  -14.4330   26.9060 N.am   73  ASN73      -0.0877
     83  N         21.6990   -9.4890   25.8700 N.3    75  GLY75      -0.1210
     84  CA        20.2310   -9.2840   25.7260 C.3    75  GLY75       0.1956
     85  C         19.9670   -8.2600   24.6080 C.2    75  GLY75       0.2612
     86  O         20.6110   -8.2750   23.5790 O.2    75  GLY75      -0.2717
     87  N         19.0150   -7.3490   24.8060 N.am   76  GLY76      -0.1956
     88  CA        18.5920   -6.3500   23.7640 C.3    76  GLY76       0.1869
     89  C         19.7380   -5.4480   23.2950 C.2    76  GLY76       0.2309
     90  O         19.7920   -5.0390   22.1260 O.2    76  GLY76      -0.2863
     91  N         21.8540   -5.7430   19.9100 N.3    79  HIS79      -0.1241
     92  CA        21.4390   -5.1460   18.6630 C.3    79  HIS79       0.1621
     93  C         21.4870   -3.6270   18.6010 C.2    79  HIS79       0.2264
     94  O         21.2110   -3.0650   17.5290 O.2    79  HIS79      -0.2867
     95  CB        19.9670   -5.5990   18.3240 C.3    79  HIS79       0.0745
     96  CG        19.7420   -7.0290   18.6210 C.ar   79  HIS79       0.0817
     97  ND1       20.3680   -8.0390   17.9100 N.ar   79  HIS79      -0.2268
     98  CD2       19.0190   -7.6320   19.6030 C.ar   79  HIS79       0.1154
     99  CE1       20.0420   -9.2040   18.4590 C.ar   79  HIS79       0.1986
    100  NE2       19.2160   -8.9790   19.4790 N.ar   79  HIS79      -0.2212
    101  N         23.6690  -16.2760   22.8190 N.3    99  HIS99      -0.1226
    102  CA        22.2430  -16.0190   22.8780 C.3    99  HIS99       0.1752
    103  C         21.5590  -17.3220   23.1620 C.2    99  HIS99       0.2596
    104  O         21.8210  -18.3520   22.5200 O.2    99  HIS99      -0.2718
    105  CB        21.7520  -15.4550   21.5460 C.3    99  HIS99       0.0759
    106  CG        22.3880  -14.1600   21.2350 C.ar   99  HIS99       0.0818
    107  ND1       22.0330  -12.9980   21.8930 N.ar   99  HIS99      -0.2268
    108  CD2       23.4730  -13.8660   20.4960 C.ar   99  HIS99       0.1154
    109  CE1       22.8250  -12.0240   21.4860 C.ar   99  HIS99       0.1986
    110  NE2       23.7010  -12.5220   20.6250 N.ar   99  HIS99      -0.2212
    111  N         20.6530  -17.2720   24.1120 N.am  100  ILE100     -0.1966
    112  CA        19.9110  -18.4710   24.5470 C.3   100  ILE100      0.1727
    113  C         18.9250  -18.8640   23.4380 C.2   100  ILE100      0.2616
    114  O         18.8220  -20.0470   23.0740 O.2   100  ILE100     -0.2715
    115  CB        19.1240  -18.1800   25.8630 C.3   100  ILE100      0.0290
    116  CG1       20.0790  -17.9920   27.0390 C.3   100  ILE100      0.0022
    117  CG2       17.9900  -19.2340   26.1400 C.3   100  ILE100      0.0023
    118  CD1       19.3910  -17.1920   28.2920 C.3   100  ILE100      0.0001
    119  N         18.1640  -17.8890   22.9250 N.am  101  SER101     -0.1950
    120  CA        17.2270  -18.1570   21.8460 C.3   101  SER101      0.1924
    121  C         18.0000  -18.1400   20.4620 C.2   101  SER101      0.2314
    122  O         19.1140  -17.5950   20.3200 O.2   101  SER101     -0.2863
    123  CB        16.1290  -17.0700   21.8610 C.3   101  SER101      0.2116
    124  OG        16.6020  -15.8040   21.3350 O.3   101  SER101     -0.2180
    125  N         18.2080  -16.3220   17.5060 N.3   103  VAL103     -0.1245
    126  CA        17.9060  -14.9650   17.0940 C.3   103  VAL103      0.1561
    127  C         17.6750  -14.9030   15.5940 C.2   103  VAL103      0.2260
    128  O         17.1490  -13.8950   15.1010 O.2   103  VAL103     -0.2867
    129  CB        19.0480  -13.9340   17.4070 C.3   103  VAL103      0.0252
    130  CG1       19.1040  -13.6490   18.9320 C.3   103  VAL103      0.0019
    131  CG2       20.4010  -14.3750   16.8340 C.3   103  VAL103      0.0019
    132  N         13.6180  -15.3730   14.6380 N.3   106  ARG106     -0.1245
    133  CA        12.7430  -14.3620   15.2600 C.3   106  ARG106      0.1563
    134  C         12.5870  -13.1060   14.3530 C.2   106  ARG106      0.2260
    135  O         12.5150  -13.2610   13.1390 O.2   106  ARG106     -0.2867
    136  CB        13.2090  -14.0120   16.7020 C.3   106  ARG106      0.0307
    137  CG        13.3590  -15.2160   17.6260 C.3   106  ARG106      0.0489
    138  CD        13.9980  -14.8370   18.9720 C.3   106  ARG106      0.2205
    139  NE        13.0940  -13.9200   19.6930 N.pl3 106  ARG106     -0.0865
    140  CZ        13.3120  -13.4320   20.9000 C.cat 106  ARG106      0.5346
    141  NH1       14.3680  -13.8450   21.5950 N.pl3 106  ARG106      0.1354
    142  NH2       12.3990  -12.6150   21.4580 N.pl3 106  ARG106      0.1354
    143  N         16.7780   -8.8640   15.0480 N.3   110  ARG110     -0.1245
    144  CA        17.5970   -9.6210   15.9660 C.3   110  ARG110      0.1563
    145  C         18.6700  -10.3390   15.1880 C.2   110  ARG110      0.2260
    146  O         19.5810  -10.9520   15.7910 O.2   110  ARG110     -0.2867
    147  CB        16.7750  -10.6680   16.7620 C.3   110  ARG110      0.0307
    148  CG        15.7790   -9.9750   17.7060 C.3   110  ARG110      0.0489
    149  CD        15.1060  -11.0080   18.6230 C.3   110  ARG110      0.2205
    150  NE        13.9290  -10.3750   19.2350 N.pl3 110  ARG110     -0.0865
    151  CZ        13.9630   -9.5760   20.2970 C.cat 110  ARG110      0.5346
    152  NH1       15.1220   -9.3380   20.9390 N.pl3 110  ARG110      0.1354
    153  NH2       12.8040   -9.0650   20.7350 N.pl3 110  ARG110      0.1354
@<TRIPOS>BOND
     1   135   134    2
     2   134   133    1
     3   132   133    1
     4   143   144    1
     5   128   127    2
     6   145   146    2
     7   145   144    1
     8   133   136    1
     9   127   126    1
    10   144   147    1
    11   136   137    1
    12   147   148    1
    13   131   129    1
    14   126   129    1
    15   126   125    1
    16   129   130    1
    17    94    93    2
    18   137   138    1
    19   148   149    1
    20    97    99   ar
    21    97    96   ar
    22    95    96    1
    23    95    92    1
    24    99   100   ar
    25    93    92    1
    26    96    98   ar
    27   149   150    1
    28    92    91    1
    29   138   139    1
    30   150   151    2
    31   100    98   ar
    32   139   140    2
    33   151   153    1
    34   151   152    1
    35   122   121    2
    36   121   120    1
    37   108   110   ar
    38   108   106   ar
    39   110   109   ar
    40   140   142    1
    41   140   141    1
    42   106   105    1
    43   106   107   ar
    44   124   123    1
    45   109   107   ar
    46   105   102    1
    47   120   123    1
    48   120   119    1
    49    90    89    2
    50   104   103    2
    51   101   102    1
    52   102   103    1
    53   119   113   am
    54   114   113    2
    55   103   111   am
    56    89    88    1
    57   113   112    1
    58    86    85    2
    59    88    87    1
    60   111   112    1
    61    74    73    1
    62   112   115    1
    63    85    87   am
    64    85    84    1
    65    72    73   ar
    66    72    70   ar
    67    73    71   ar
    68    70    68   ar
    69    84    83    1
    70   115   117    1
    71   115   116    1
    72    81    80    2
    73    71    69   ar
    74    63    64    1
    75    61    60   ar
    76    80    82   am
    77    80    79    1
    78    76    77    1
    79    76    79    1
    80    76    75    1
    81    68    69   ar
    82    68    67    1
    83    77    78    2
    84   116   118    1
    85    64    67    1
    86    64    65    1
    87    60    62   ar
    88    60    59    1
    89    65    66    2
    90    57    56    2
    91    58    59    1
    92    58    55    1
    93    15    13   am
    94    56    55    1
    95     7     6    1
    96     7     1    1
    97    22    21    1
    98    55    54    1
    99     6     5    1
   100    23    21    1
   101     4     3    2
   102     5     2    1
   103    21    20    1
   104     1     2    1
   105    13    12    1
   106    13    14    2
   107    42    40    1
   108     3     2    1
   109     3     8   am
   110    54    45   am
   111    12     9    1
   112    20    17    1
   113    46    45    2
   114    45    44    1
   115     8     9    1
   116    40    41    1
   117    40    39    1
   118     9    10    1
   119    16    17    1
   120    16    10   am
   121    17    18    1
   122    10    11    2
   123    44    47    1
   124    44    43    1
   125    39    36    1
   126    36    35    1
   127    36    37    1
   128    47    48    1
   129    18    19    2
   130    35    26   am
   131    37    38    2
   132    27    26    2
   133    26    25    1
   134    28    25    1
   135    28    29    1
   136    31    30    1
   137    31    32    2
   138    30    29    1
   139    48    49    1
   140    24    25    1
   141    49    50    1
   142    34    32    1
   143    32    33    1
   144    52    51    1
   145    50    51    2
   146    51    53    1
