@<TRIPOS>MOLECULE
tmp/3n87N00.pdb
 153 146 0 0 0
SMALL
GASTEIGER

@<TRIPOS>ATOM
      1  N        -50.2680  -49.0940  -25.1650 N.3     9  PRO9       -0.2102
      2  CA       -50.9570  -48.4520  -24.0690 C.3     9  PRO9        0.1504
      3  C        -51.9910  -47.4010  -24.5090 C.2     9  PRO9        0.2576
      4  O        -51.8090  -46.7230  -25.5480 O.2     9  PRO9       -0.2718
      5  CB       -49.8150  -47.7950  -23.2790 C.3     9  PRO9        0.0282
      6  CG       -48.7030  -48.6350  -23.5380 C.3     9  PRO9        0.0208
      7  CD       -48.8070  -48.9780  -24.9790 C.3     9  PRO9        0.0893
      8  N        -53.0570  -47.3270  -23.6940 N.am   10  ASN10      -0.1961
      9  CA       -54.1050  -46.2950  -23.7190 C.3    10  ASN10       0.1819
     10  C        -55.1540  -46.4490  -24.8490 C.2    10  ASN10       0.2621
     11  O        -56.2250  -45.8220  -24.8150 O.2    10  ASN10      -0.2715
     12  CB       -53.4820  -44.8840  -23.6790 C.3    10  ASN10       0.1195
     13  CG       -52.8150  -44.5480  -22.3360 C.2    10  ASN10       0.2630
     14  OD1      -53.1980  -45.0620  -21.2910 O.2    10  ASN10      -0.2716
     15  ND2      -51.8260  -43.6290  -22.3670 N.am   10  ASN10      -0.0877
     16  N        -54.8510  -47.3050  -25.8260 N.am   11  LEU11      -0.1977
     17  CA       -55.7430  -47.5240  -26.9770 C.3    11  LEU11       0.1596
     18  C        -56.9870  -48.3520  -26.5760 C.2    11  LEU11       0.2287
     19  O        -57.9470  -48.5090  -27.3460 O.2    11  LEU11      -0.2864
     20  CB       -54.9760  -48.2080  -28.1130 C.3    11  LEU11       0.0297
     21  CG       -53.9570  -47.3610  -28.8740 C.3    11  LEU11       0.0022
     22  CD1      -52.8660  -48.2360  -29.4390 C.3    11  LEU11       0.0001
     23  CD2      -54.6130  -46.5110  -29.9870 C.3    11  LEU11       0.0001
     24  N        -58.8890  -47.3080  -24.5740 N.3    13  ARG13      -0.1231
     25  CA       -59.8450  -46.2880  -24.1950 C.3    13  ARG13       0.1694
     26  C        -60.2430  -45.3800  -25.3450 C.2    13  ARG13       0.2591
     27  O        -60.7140  -44.2520  -25.1360 O.2    13  ARG13      -0.2718
     28  CB       -59.3080  -45.5480  -22.9880 C.3    13  ARG13       0.0321
     29  CG       -59.2270  -46.5190  -21.8390 C.3    13  ARG13       0.0489
     30  CD       -58.4890  -46.0130  -20.7220 C.3    13  ARG13       0.2205
     31  NE       -59.1510  -44.8460  -20.1870 N.pl3  13  ARG13      -0.0865
     32  CZ       -60.2400  -44.8390  -19.4210 C.cat  13  ARG13       0.5346
     33  NH1      -60.8690  -45.9600  -19.0750 N.pl3  13  ARG13       0.1354
     34  NH2      -60.6920  -43.6780  -18.9870 N.pl3  13  ARG13       0.1354
     35  N        -60.0860  -45.9120  -26.5620 N.am   14  LEU14      -0.1980
     36  CA       -60.5290  -45.2340  -27.7900 C.3    14  LEU14       0.1596
     37  C        -61.9760  -44.7970  -27.7910 C.2    14  LEU14       0.2287
     38  O        -62.8420  -45.5270  -27.3250 O.2    14  LEU14      -0.2864
     39  CB       -60.3360  -46.1390  -28.9880 C.3    14  LEU14       0.0297
     40  CG       -59.0360  -45.9380  -29.7330 C.3    14  LEU14       0.0022
     41  CD1      -59.0890  -46.8160  -30.9450 C.3    14  LEU14       0.0001
     42  CD2      -58.8610  -44.4610  -30.1050 C.3    14  LEU14       0.0001
     43  N        -63.1410  -39.8410  -25.1820 N.3    17  ARG17      -0.1231
     44  CA       -62.3230  -38.6560  -24.8540 C.3    17  ARG17       0.1694
     45  C        -61.7090  -37.9860  -26.0930 C.2    17  ARG17       0.2591
     46  O        -61.2060  -38.6540  -27.0270 O.2    17  ARG17      -0.2718
     47  CB       -61.2020  -38.9790  -23.8480 C.3    17  ARG17       0.0321
     48  CG       -60.9150  -37.8980  -22.7660 C.3    17  ARG17       0.0489
     49  CD       -60.5210  -36.5220  -23.3430 C.3    17  ARG17       0.2205
     50  NE       -60.0170  -35.5810  -22.3390 N.pl3  17  ARG17      -0.0865
     51  CZ       -60.7760  -34.9270  -21.4610 C.cat  17  ARG17       0.5346
     52  NH1      -60.2160  -34.0840  -20.5980 N.pl3  17  ARG17       0.1354
     53  NH2      -62.0900  -35.1160  -21.4410 N.pl3  17  ARG17       0.1354
     54  N        -61.7350  -36.6500  -26.0370 N.am   18  GLU18      -0.1979
     55  CA       -61.3940  -35.7440  -27.1380 C.3    18  GLU18       0.1602
     56  C        -61.1720  -36.4320  -28.5300 C.2    18  GLU18       0.2287
     57  O        -60.0440  -36.5500  -29.0130 O.2    18  GLU18      -0.2864
     58  CB       -60.3600  -34.6670  -26.6570 C.3    18  GLU18       0.0415
     59  CG       -59.1040  -34.3900  -27.4770 C.3    18  GLU18       0.1163
     60  CD       -57.8840  -35.1400  -26.9500 C.2    18  GLU18       0.3649
     61  OE1      -57.2360  -34.6640  -25.9890 O.co2  18  GLU18      -0.2457
     62  OE2      -57.5740  -36.2140  -27.5080 O.co2  18  GLU18      -0.2457
     63  N        -58.0320  -38.9960  -32.8360 N.3    22  TYR22      -0.1241
     64  CA       -58.2720  -40.4280  -32.4770 C.3    22  TYR22       0.1605
     65  C        -59.6420  -41.0000  -32.8280 C.2    22  TYR22       0.2264
     66  O        -59.7680  -42.2090  -32.9990 O.2    22  TYR22      -0.2867
     67  CB       -57.9390  -40.7970  -31.0210 C.3    22  TYR22       0.0534
     68  CG       -56.5940  -40.3400  -30.5320 C.ar   22  TYR22      -0.0201
     69  CD1      -56.5020  -39.5590  -29.3850 C.ar   22  TYR22      -0.0009
     70  CD2      -55.4170  -40.6660  -31.2090 C.ar   22  TYR22      -0.0009
     71  CE1      -55.2910  -39.1000  -28.9220 C.ar   22  TYR22       0.0417
     72  CE2      -54.2000  -40.2150  -30.7490 C.ar   22  TYR22       0.0417
     73  CZ       -54.1490  -39.4290  -29.5940 C.ar   22  TYR22       0.1957
     74  OH       -52.9680  -38.9610  -29.0730 O.3    22  TYR22      -0.2866
     75  N        -49.7470  -50.5860  -33.7740 N.3    73  ASN73      -0.1240
     76  CA       -49.9110  -49.2300  -33.2530 C.3    73  ASN73       0.1653
     77  C        -49.4550  -49.2110  -31.8000 C.2    73  ASN73       0.2266
     78  O        -50.2520  -49.5490  -30.9060 O.2    73  ASN73      -0.2867
     79  CB       -51.3530  -48.7350  -33.3390 C.3    73  ASN73       0.1155
     80  CG       -51.4960  -47.2880  -32.8780 C.2    73  ASN73       0.2627
     81  OD1      -50.5630  -46.7200  -32.3300 O.2    73  ASN73      -0.2716
     82  ND2      -52.6500  -46.6900  -33.1060 N.am   73  ASN73      -0.0877
     83  N        -48.8420  -46.8470  -29.6150 N.3    75  GLY75      -0.1210
     84  CA       -49.1520  -45.6700  -28.7740 C.3    75  GLY75       0.1956
     85  C        -47.9020  -44.8880  -28.3620 C.2    75  GLY75       0.2612
     86  O        -47.0740  -44.5230  -29.2140 O.2    75  GLY75      -0.2717
     87  N        -47.7470  -44.6530  -27.0580 N.am   76  GLY76      -0.1956
     88  CA       -46.5990  -43.9260  -26.5100 C.3    76  GLY76       0.1869
     89  C        -45.2680  -44.6370  -26.7140 C.2    76  GLY76       0.2309
     90  O        -44.2500  -44.0180  -27.0610 O.2    76  GLY76      -0.2863
     91  N        -42.3740  -43.7610  -29.3530 N.3    79  HIS79      -0.1241
     92  CA       -41.2890  -42.8110  -29.1900 C.3    79  HIS79       0.1621
     93  C        -40.2530  -43.2060  -28.1350 C.2    79  HIS79       0.2264
     94  O        -39.1870  -42.5880  -28.0400 O.2    79  HIS79      -0.2867
     95  CB       -41.8700  -41.4120  -28.8730 C.3    79  HIS79       0.0745
     96  CG       -43.2200  -41.1800  -29.4760 C.ar   79  HIS79       0.0817
     97  ND1      -43.4240  -41.1020  -30.8390 N.ar   79  HIS79      -0.2268
     98  CD2      -44.4410  -41.0590  -28.9060 C.ar   79  HIS79       0.1154
     99  CE1      -44.7130  -40.9420  -31.0800 C.ar   79  HIS79       0.1986
    100  NE2      -45.3490  -40.9060  -29.9250 N.ar   79  HIS79      -0.2212
    101  N        -50.6040  -44.9580  -37.0650 N.3    99  HIS99      -0.1226
    102  CA       -51.0000  -43.9370  -36.0920 C.3    99  HIS99       0.1752
    103  C        -52.3230  -43.3390  -36.5440 C.2    99  HIS99       0.2596
    104  O        -52.5020  -42.9880  -37.7280 O.2    99  HIS99      -0.2718
    105  CB       -49.9030  -42.9040  -35.9090 C.3    99  HIS99       0.0759
    106  CG       -48.6210  -43.4980  -35.3850 C.ar   99  HIS99       0.0818
    107  ND1      -48.4730  -43.9350  -34.0800 N.ar   99  HIS99      -0.2268
    108  CD2      -47.4430  -43.7570  -35.9970 C.ar   99  HIS99       0.1154
    109  CE1      -47.2600  -44.4250  -33.9110 C.ar   99  HIS99       0.1986
    110  NE2      -46.6150  -44.3330  -35.0600 N.ar   99  HIS99      -0.2212
    111  N        -53.2840  -43.3120  -35.6210 N.am  100  ILE100     -0.1966
    112  CA       -54.6110  -42.8300  -35.9100 C.3   100  ILE100      0.1727
    113  C        -54.4950  -41.3730  -36.2760 C.2   100  ILE100      0.2616
    114  O        -54.9690  -40.9590  -37.3600 O.2   100  ILE100     -0.2715
    115  CB       -55.5890  -42.9800  -34.6820 C.3   100  ILE100      0.0290
    116  CG1      -55.8390  -44.4670  -34.3640 C.3   100  ILE100      0.0022
    117  CG2      -56.9130  -42.2560  -34.9430 C.3   100  ILE100      0.0023
    118  CD1      -56.5200  -44.6740  -33.0320 C.3   100  ILE100      0.0001
    119  N        -53.8750  -40.6130  -35.3610 N.am  101  SER101     -0.1950
    120  CA       -53.6480  -39.1970  -35.5420 C.3   101  SER101      0.1924
    121  C        -52.4130  -39.0120  -36.4120 C.2   101  SER101      0.2314
    122  O        -51.6470  -39.9690  -36.6390 O.2   101  SER101     -0.2863
    123  CB       -53.5380  -38.4370  -34.1870 C.3   101  SER101      0.2116
    124  OG       -52.2720  -38.5950  -33.5010 O.3   101  SER101     -0.2180
    125  N        -49.1500  -37.5930  -36.1890 N.3   103  VAL103     -0.1245
    126  CA       -48.1390  -37.2260  -35.2330 C.3   103  VAL103      0.1561
    127  C        -47.2560  -36.0770  -35.6530 C.2   103  VAL103      0.2260
    128  O        -46.6510  -35.4250  -34.7950 O.2   103  VAL103     -0.2867
    129  CB       -47.2750  -38.4110  -34.8160 C.3   103  VAL103      0.0252
    130  CG1      -47.9780  -39.1480  -33.6740 C.3   103  VAL103      0.0019
    131  CG2      -46.9260  -39.3650  -36.0350 C.3   103  VAL103      0.0019
    132  N        -48.3430  -32.5670  -34.3800 N.3   106  ARG106     -0.1245
    133  CA       -48.4930  -32.4340  -32.9250 C.3   106  ARG106      0.1563
    134  C        -47.2210  -31.9780  -32.1840 C.2   106  ARG106      0.2260
    135  O        -46.5480  -31.0800  -32.6440 O.2   106  ARG106     -0.2867
    136  CB       -49.1440  -33.7010  -32.3540 C.3   106  ARG106      0.0307
    137  CG       -50.4810  -34.0250  -33.0560 C.3   106  ARG106      0.0489
    138  CD       -51.0820  -35.2980  -32.5800 C.3   106  ARG106      0.2205
    139  NE       -51.4920  -35.1930  -31.1820 N.pl3 106  ARG106     -0.0865
    140  CZ       -51.8000  -36.2420  -30.4160 C.cat 106  ARG106      0.5346
    141  NH1      -51.7280  -37.4790  -30.9210 N.pl3 106  ARG106      0.1354
    142  NH2      -52.1800  -36.0640  -29.1470 N.pl3 106  ARG106      0.1354
    143  N        -43.5910  -36.3660  -30.5920 N.3   110  ARG110     -0.1245
    144  CA       -44.3020  -37.4150  -31.3630 C.3   110  ARG110      0.1563
    145  C        -43.7350  -37.6720  -32.7730 C.2   110  ARG110      0.2260
    146  O        -44.0900  -38.6730  -33.4140 O.2   110  ARG110     -0.2867
    147  CB       -45.8090  -37.1390  -31.4350 C.3   110  ARG110      0.0307
    148  CG       -46.5040  -37.0510  -30.0470 C.3   110  ARG110      0.0489
    149  CD       -48.0110  -36.7850  -30.1160 C.3   110  ARG110      0.2205
    150  NE       -48.5280  -36.4260  -28.8030 N.pl3 110  ARG110     -0.0865
    151  CZ       -48.8130  -37.2960  -27.8200 C.cat 110  ARG110      0.5346
    152  NH1      -48.6700  -38.6460  -27.9710 N.pl3 110  ARG110      0.1354
    153  NH2      -49.2560  -36.8100  -26.6640 N.pl3 110  ARG110      0.1354
@<TRIPOS>BOND
     1   104   103    2
     2   114   113    2
     3   101   102    1
     4   122   121    2
     5   103   102    1
     6   103   111   am
     7   121   120    1
     8   113   112    1
     9   113   119   am
    10   125   126    1
    11   102   105    1
    12   131   129    1
    13   108   106   ar
    14   108   110   ar
    15   112   111    1
    16   112   115    1
    17   105   106    1
    18   127   126    1
    19   127   128    2
    20   120   119    1
    21   120   123    1
    22   106   107   ar
    23   126   129    1
    24   110   109   ar
    25   117   115    1
    26   129   130    1
    27   115   116    1
    28   132   133    1
    29   116   118    1
    30   123   124    1
    31   107   109   ar
    32    75    76    1
    33   146   145    2
    34    79    76    1
    35    79    80    1
    36    76    77    1
    37    82    80   am
    38   137   138    1
    39   137   136    1
    40    66    65    2
    41   133   136    1
    42   133   134    1
    43    80    81    2
    44    63    64    1
    45    65    64    1
    46   145   144    1
    47   135   134    2
    48   138   139    1
    49    64    67    1
    50    77    78    2
    51   147   144    1
    52   147   148    1
    53   144   143    1
    54    70    72   ar
    55    70    68   ar
    56   139   140    2
    57    99    97   ar
    58    99   100   ar
    59    67    68    1
    60    41    40    1
    61   141   140    1
    62    97    96   ar
    63    72    73   ar
    64    68    69   ar
    65   140   142    1
    66   149   148    1
    67   149   150    1
    68    42    40    1
    69    23    21    1
    70   100    98   ar
    71    40    39    1
    72    83    84    1
    73    73    74    1
    74    73    71   ar
    75    96    98   ar
    76    96    95    1
    77    22    21    1
    78    69    71   ar
    79    91    92    1
    80    86    85    2
    81    92    95    1
    82    92    93    1
    83    57    56    2
    84    39    36    1
    85    21    20    1
    86   150   151    2
    87    84    85    1
    88    56    55    1
    89    85    87   am
    90    93    94    2
    91    20    17    1
    92   152   151    1
    93   151   153    1
    94    37    36    1
    95    37    38    2
    96    36    35    1
    97    62    60   ar
    98    59    60    1
    99    59    58    1
   100    19    18    2
   101    55    58    1
   102    55    54    1
   103    90    89    2
   104    87    88    1
   105    46    45    2
   106    17    18    1
   107    17    16    1
   108    60    61   ar
   109    89    88    1
   110    35    26   am
   111    45    54   am
   112    45    44    1
   113    16    10   am
   114     4     3    2
   115    26    27    2
   116    26    25    1
   117    43    44    1
   118     1     7    1
   119     1     2    1
   120     7     6    1
   121    44    47    1
   122    10    11    2
   123    10     9    1
   124    24    25    1
   125     3     2    1
   126     3     8   am
   127    25    28    1
   128     2     5    1
   129    47    48    1
   130     9     8    1
   131     9    12    1
   132    12    13    1
   133     6     5    1
   134    49    48    1
   135    49    50    1
   136    28    29    1
   137    15    13   am
   138    50    51    2
   139    13    14    2
   140    29    30    1
   141    51    53    1
   142    51    52    1
   143    30    31    1
   144    31    32    2
   145    32    33    1
   146    32    34    1
