@<TRIPOS>MOLECULE
tmp/3n8dA00.pdb
 155 143 0 0 0
SMALL
GASTEIGER

@<TRIPOS>ATOM
      1  N          8.0360    1.6100   14.8750 N.3   122  LYS122     -0.1245
      2  CA         6.7020    2.1030   14.6610 C.3   122  LYS122      0.1561
      3  C          6.6990    3.5960   14.3850 C.2   122  LYS122      0.2260
      4  O          5.9030    4.0360   13.5460 O.2   122  LYS122     -0.2867
      5  CB         5.7800    1.7230   15.8180 C.3   122  LYS122      0.0271
      6  CG         5.5650    0.2060   15.8900 C.3   122  LYS122      0.0035
      7  CD         4.4140   -0.2170   16.7980 C.3   122  LYS122      0.0206
      8  CE         4.2480   -1.7640   16.7700 C.3   122  LYS122      0.1093
      9  NZ         5.3990   -2.4590   17.4230 N.3   122  LYS122     -0.1314
     10  N         -4.4520    6.3910   12.9040 N.3   137  LEU137     -0.1245
     11  CA        -4.9750    6.8180   14.1880 C.3   137  LEU137      0.1561
     12  C         -4.0760    7.8710   14.8410 C.2   137  LEU137      0.2260
     13  O         -2.8510    7.8840   14.5950 O.2   137  LEU137     -0.2867
     14  CB        -5.0840    5.6070   15.1110 C.3   137  LEU137      0.0270
     15  CG        -6.2670    4.6970   14.7830 C.3   137  LEU137      0.0019
     16  CD1       -6.1790    3.4250   15.5680 C.3   137  LEU137      0.0001
     17  CD2       -7.5820    5.4160   15.0910 C.3   137  LEU137      0.0001
     18  N         -3.7100    2.4100   23.2490 N.3   167  PHE167     -0.1241
     19  CA        -2.7840    1.2580   23.2490 C.3   167  PHE167      0.1605
     20  C         -1.3710    1.7500   23.3700 C.2   167  PHE167      0.2264
     21  O         -0.9190    2.5000   22.5200 O.2   167  PHE167     -0.2867
     22  CB        -2.8760    0.4320   21.9710 C.3   167  PHE167      0.0534
     23  CG        -4.1080   -0.3850   21.8750 C.ar  167  PHE167     -0.0203
     24  CD1       -5.3330    0.2260   21.6470 C.ar  167  PHE167     -0.0042
     25  CD2       -4.0540   -1.7670   22.0140 C.ar  167  PHE167     -0.0042
     26  CE1       -6.4870   -0.5240   21.5840 C.ar  167  PHE167     -0.0003
     27  CE2       -5.1900   -2.5230   21.9470 C.ar  167  PHE167     -0.0003
     28  CZ        -6.4190   -1.9050   21.7370 C.ar  167  PHE167     -0.0000
     29  N          2.5270    0.7810   23.1270 N.3   169  LYS169     -0.1245
     30  CA         3.3070   -0.1980   22.3910 C.3   169  LYS169      0.1561
     31  C          4.7760    0.2210   22.3750 C.2   169  LYS169      0.2260
     32  O          5.0990    1.3680   22.0250 O.2   169  LYS169     -0.2867
     33  CB         2.8410   -0.2800   20.9230 C.3   169  LYS169      0.0271
     34  CG         1.3570   -0.2880   20.6820 C.3   169  LYS169      0.0035
     35  CD         1.0350   -0.6290   19.2150 C.3   169  LYS169      0.0206
     36  CE        -0.4330   -0.3760   18.9070 C.3   169  LYS169      0.1093
     37  NZ        -0.7940   -0.5850   17.4540 N.3   169  LYS169     -0.1314
     38  N          9.6810   -3.4260   18.8180 N.3   173  LEU173     -0.1231
     39  CA         9.4560   -4.8730   18.8740 C.3   173  LEU173      0.1693
     40  C          8.2960   -5.3140   17.9740 C.2   173  LEU173      0.2593
     41  O          7.3380   -4.5590   17.7330 O.2   173  LEU173     -0.2718
     42  CB         9.1480   -5.3210   20.3080 C.3   173  LEU173      0.0284
     43  CG         9.9290   -4.6930   21.4610 C.3   173  LEU173      0.0019
     44  CD1        9.4790   -5.3440   22.7470 C.3   173  LEU173      0.0001
     45  CD2       11.4500   -4.8090   21.2750 C.3   173  LEU173      0.0001
     46  N          8.3920   -6.5530   17.5040 N.am  174  GLY174     -0.1942
     47  CA         7.4110   -7.1400   16.5810 C.3   174  GLY174      0.2014
     48  C          6.9040   -8.4510   17.1430 C.2   174  GLY174      0.2640
     49  O          7.4040   -9.5280   16.8050 O.2   174  GLY174     -0.2714
     50  N          5.9100   -8.3260   18.0080 N.am  175  SER175     -0.1935
     51  CA         5.3250   -9.3990   18.8060 C.3   175  SER175      0.2055
     52  C          4.5480   -8.5890   19.8240 C.2   175  SER175      0.2643
     53  O          4.8440   -7.4060   20.0040 O.2   175  SER175     -0.2714
     54  CB         6.3820  -10.2560   19.5270 C.3   175  SER175      0.2130
     55  OG         6.8280   -9.6320   20.7280 O.3   175  SER175     -0.2179
     56  N          3.6000   -9.1960   20.5210 N.am  176  SER176     -0.1949
     57  CA         2.7330   -8.4120   21.3980 C.3   176  SER176      0.1924
     58  C          3.2960   -8.1410   22.7970 C.2   176  SER176      0.2314
     59  O          2.5600   -7.6580   23.6660 O.2   176  SER176     -0.2863
     60  CB         1.3330   -9.0390   21.4770 C.3   176  SER176      0.2116
     61  OG         0.6140   -8.7580   20.2750 O.3   176  SER176     -0.2180
     62  N          2.6160   -4.6350   24.8830 N.3   179  ILE179     -0.1245
     63  CA         1.4280   -3.9120   24.4150 C.3   179  ILE179      0.1561
     64  C          0.3450   -4.0540   25.4630 C.2   179  ILE179      0.2260
     65  O          0.1080   -5.1290   25.9670 O.2   179  ILE179     -0.2867
     66  CB         0.8500   -4.4600   23.0940 C.3   179  ILE179      0.0252
     67  CG1        1.8640   -4.3630   21.9700 C.3   179  ILE179      0.0019
     68  CG2       -0.4230   -3.6990   22.7030 C.3   179  ILE179      0.0019
     69  CD1        1.3840   -5.0360   20.7090 C.3   179  ILE179      0.0001
     70  N         -1.2450    5.0130   21.0050 N.3   205  GLU205     -0.1231
     71  CA        -2.2320    5.2280   19.9520 C.3   205  GLU205      0.1699
     72  C         -3.6210    5.2760   20.5390 C.2   205  GLU205      0.2592
     73  O         -3.9520    4.4850   21.4240 O.2   205  GLU205     -0.2718
     74  CB        -2.2440    4.0810   18.9320 C.3   205  GLU205      0.0402
     75  CG        -0.9230    3.6710   18.3690 C.3   205  GLU205      0.1161
     76  CD        -1.0550    2.5740   17.3040 C.2   205  GLU205      0.3649
     77  OE1       -0.0520    2.3340   16.5690 O.co2 205  GLU205     -0.2457
     78  OE2       -2.1440    1.9480   17.2200 O.co2 205  GLU205     -0.2457
     79  N         -4.4450    6.1660   19.9960 N.am  206  GLN206     -0.1979
     80  CA        -5.8680    6.1320   20.2580 C.3   206  GLN206      0.1601
     81  C         -6.4160    4.7630   19.8510 C.2   206  GLN206      0.2287
     82  O         -6.0730    4.2530   18.7940 O.2   206  GLN206     -0.2864
     83  CB        -6.5360    7.2290   19.4500 C.3   206  GLN206      0.0394
     84  CG        -8.0130    7.3630   19.6610 C.3   206  GLN206      0.0908
     85  CD        -8.5330    8.6950   19.1610 C.2   206  GLN206      0.2608
     86  OE1       -8.1560    9.7500   19.6790 O.2   206  GLN206     -0.2717
     87  NE2       -9.4120    8.6560   18.1630 N.am  206  GLN206     -0.0878
     88  N         -9.3210    2.0620   18.6150 N.3   208  VAL208     -0.1245
     89  CA       -10.5500    2.0100   17.8190 C.3   208  VAL208      0.1561
     90  C        -11.2520    0.6930   17.9940 C.2   208  VAL208      0.2260
     91  O        -10.6490   -0.2910   18.4030 O.2   208  VAL208     -0.2867
     92  CB       -10.3220    2.1380   16.2870 C.3   208  VAL208      0.0252
     93  CG1      -10.6160    3.5630   15.8170 C.3   208  VAL208      0.0019
     94  CG2       -8.9440    1.6090   15.8830 C.3   208  VAL208      0.0019
     95  N        -12.6950   -1.9280   15.6560 N.3   210  ALA210     -0.1245
     96  CA       -12.4750   -2.1080   14.2300 C.3   210  ALA210      0.1562
     97  C        -12.2010   -3.5410   13.8600 C.2   210  ALA210      0.2260
     98  O        -11.8280   -4.3410   14.6990 O.2   210  ALA210     -0.2867
     99  CB       -11.3050   -1.2010   13.7530 C.3   210  ALA210      0.0290
    100  N         -9.6460   -6.0050   11.8410 N.3   212  GLU212     -0.1245
    101  CA        -8.2610   -6.0420   11.3950 C.3   212  GLU212      0.1567
    102  C         -8.1790   -6.7190   10.0540 C.2   212  GLU212      0.2260
    103  O         -8.4740   -7.8910    9.9270 O.2   212  GLU212     -0.2867
    104  CB        -7.3820   -6.7680   12.3950 C.3   212  GLU212      0.0388
    105  CG        -7.4460   -6.1170   13.7510 C.3   212  GLU212      0.1160
    106  CD        -6.3260   -6.5450   14.6540 C.2   212  GLU212      0.3649
    107  OE1       -6.6260   -6.9630   15.7950 O.co2 212  GLU212     -0.2457
    108  OE2       -5.1430   -6.4620   14.2270 O.co2 212  GLU212     -0.2457
    109  N          3.2590   -7.1110    3.9220 N.3   267  ARG267     -0.1245
    110  CA         1.8820   -7.2200    4.3410 C.3   267  ARG267      0.1563
    111  C          1.4560   -5.9220    4.9950 C.2   267  ARG267      0.2260
    112  O          2.1240   -5.4390    5.9010 O.2   267  ARG267     -0.2867
    113  CB         1.6790   -8.3800    5.3200 C.3   267  ARG267      0.0307
    114  CG         0.2440   -8.8720    5.2990 C.3   267  ARG267      0.0489
    115  CD        -0.0760   -9.7870    6.4310 C.3   267  ARG267      0.2205
    116  NE         0.1100   -9.1520    7.7330 N.pl3 267  ARG267     -0.0865
    117  CZ         0.6790   -9.7410    8.7890 C.cat 267  ARG267      0.5346
    118  NH1        1.1730  -10.9640    8.6890 N.pl3 267  ARG267      0.1354
    119  NH2        0.7910   -9.0920    9.9460 N.pl3 267  ARG267      0.1354
    120  N         -7.0640   -1.0610    9.9490 N.3   271  PHE271     -0.1241
    121  CA        -8.2460   -1.0870   10.8050 C.3   271  PHE271      0.1605
    122  C         -9.3680   -0.5320    9.9610 C.2   271  PHE271      0.2264
    123  O         -9.1740    0.4710    9.2730 O.2   271  PHE271     -0.2867
    124  CB        -8.0820   -0.1980   12.0340 C.3   271  PHE271      0.0534
    125  CG        -7.1240   -0.7290   13.0610 C.ar  271  PHE271     -0.0203
    126  CD1       -6.0960    0.0600   13.5360 C.ar  271  PHE271     -0.0042
    127  CD2       -7.2640   -2.0010   13.5740 C.ar  271  PHE271     -0.0042
    128  CE1       -5.2190   -0.4120   14.5250 C.ar  271  PHE271     -0.0003
    129  CE2       -6.3710   -2.4850   14.5210 C.ar  271  PHE271     -0.0003
    130  CZ        -5.3490   -1.6690   14.9940 C.ar  271  PHE271     -0.0000
    131  N         -2.4640    0.3290    9.9870 N.3   281  ASN281     -0.1225
    132  CA        -1.8300    0.0270   11.2790 C.3   281  ASN281      0.1785
    133  C         -0.3390   -0.1420   11.1050 C.2   281  ASN281      0.2597
    134  O          0.4450    0.5650   11.7320 O.2   281  ASN281     -0.2718
    135  CB        -2.3960   -1.2520   11.9210 C.3   281  ASN281      0.1169
    136  CG        -1.8050   -1.5190   13.3180 C.2   281  ASN281      0.2627
    137  OD1       -1.5330   -0.5840   14.0680 O.2   281  ASN281     -0.2716
    138  ND2       -1.6120   -2.7920   13.6660 N.am  281  ASN281     -0.0877
    139  N          0.0650   -1.0780   10.2560 N.am  282  GLU282     -0.1979
    140  CA         1.4820   -1.3140   10.0440 C.3   282  GLU282      0.1602
    141  C          1.7630   -1.9260    8.6990 C.2   282  GLU282      0.2287
    142  O          0.8730   -2.4170    8.0280 O.2   282  GLU282     -0.2864
    143  CB         2.0430   -2.2360   11.1410 C.3   282  GLU282      0.0415
    144  CG         1.4580   -3.6650   11.1210 C.3   282  GLU282      0.1163
    145  CD         1.5760   -4.3860   12.4580 C.2   282  GLU282      0.3649
    146  OE1        2.5270   -4.0660   13.2110 O.co2 282  GLU282     -0.2457
    147  OE2        0.7190   -5.2610   12.7660 O.co2 282  GLU282     -0.2457
    148  N          4.3190   -5.0910    7.5830 N.3   284  ASN284     -0.1240
    149  CA         5.2230   -6.1390    8.0160 C.3   284  ASN284      0.1653
    150  C          6.1710   -6.5100    6.8670 C.2   284  ASN284      0.2266
    151  O          5.7420   -7.0020    5.8180 O.2   284  ASN284     -0.2867
    152  CB         4.4160   -7.3460    8.4780 C.3   284  ASN284      0.1155
    153  CG         5.2430   -8.3520    9.2800 C.2   284  ASN284      0.2627
    154  OD1        6.4770   -8.3950    9.1850 O.2   284  ASN284     -0.2716
    155  ND2        4.5500   -9.1750   10.0860 N.am  284  ASN284     -0.0877
@<TRIPOS>BOND
     1   109   110    1
     2   110   111    1
     3   110   113    1
     4   111   112    2
     5   114   113    1
     6   114   115    1
     7   151   150    2
     8   115   116    1
     9   150   149    1
    10   148   149    1
    11   116   117    2
    12   149   152    1
    13   142   141    2
    14   152   153    1
    15   118   117    1
    16   141   140    1
    17   117   119    1
    18   154   153    2
    19   123   122    2
    20   153   155   am
    21   103   102    2
    22   120   121    1
    23   122   121    1
    24   131   132    1
    25   140   139    1
    26   140   143    1
    27   102   101    1
    28   139   133   am
    29   121   124    1
    30   133   132    1
    31   133   134    2
    32   144   143    1
    33   144   145    1
    34   132   135    1
    35   101   100    1
    36   101   104    1
    37   135   136    1
    38   124   125    1
    39   104   105    1
    40   145   147   ar
    41   145   146   ar
    42    10    11    1
    43   125   126   ar
    44   125   127   ar
    45   136   138   am
    46   136   137    2
    47   126   128   ar
    48     4     3    2
    49   127   129   ar
    50   105   106    1
    51    99    96    1
    52    97    96    1
    53    97    98    2
    54    11    12    1
    55    11    14    1
    56   108   106   ar
    57    96    95    1
    58     3     2    1
    59   129   130   ar
    60   128   130   ar
    61    13    12    2
    62   106   107   ar
    63     2     1    1
    64     2     5    1
    65    15    17    1
    66    15    14    1
    67    15    16    1
    68    93    92    1
    69     5     6    1
    70    94    92    1
    71     6     7    1
    72    92    89    1
    73    77    76   ar
    74    47    48    1
    75    47    46    1
    76     8     7    1
    77     8     9    1
    78    49    48    2
    79    48    50   am
    80    78    76   ar
    81    76    75    1
    82    37    36    1
    83    46    40   am
    84    41    40    2
    85    89    90    1
    86    89    88    1
    87    40    39    1
    88    90    91    2
    89    50    51    1
    90    87    85   am
    91    75    74    1
    92    82    81    2
    93    51    54    1
    94    51    52    1
    95    38    39    1
    96    39    42    1
    97    36    35    1
    98    74    71    1
    99    85    84    1
   100    85    86    2
   101    35    34    1
   102    83    84    1
   103    83    80    1
   104    54    55    1
   105    52    53    2
   106    52    56   am
   107    81    80    1
   108    71    72    1
   109    71    70    1
   110    79    80    1
   111    79    72   am
   112    61    60    1
   113    42    43    1
   114    56    57    1
   115    72    73    2
   116    34    33    1
   117    69    67    1
   118    33    30    1
   119    45    43    1
   120    57    60    1
   121    57    58    1
   122    43    44    1
   123    26    24   ar
   124    26    28   ar
   125    24    23   ar
   126    28    27   ar
   127    23    22    1
   128    23    25   ar
   129    27    25   ar
   130    67    66    1
   131    22    19    1
   132    32    31    2
   133    31    30    1
   134    30    29    1
   135    21    20    2
   136    68    66    1
   137    58    59    2
   138    66    63    1
   139    18    19    1
   140    19    20    1
   141    63    62    1
   142    63    64    1
   143    64    65    2
