@<TRIPOS>MOLECULE
tmp/3n8hA01.pdb
 182 176 0 0 0
SMALL
GASTEIGER

@<TRIPOS>ATOM
      1  N          9.0470   -8.2460   38.4340 N.3    26  VAL26      -0.1231
      2  CA        10.2110   -8.6140   39.2380 C.3    26  VAL26       0.1678
      3  C         11.1310   -9.5630   38.4500 C.2    26  VAL26       0.2434
      4  O         10.8660  -10.7400   38.3790 O.2    26  VAL26      -0.2733
      5  CB         9.8080   -9.2890   40.5770 C.3    26  VAL26       0.0265
      6  CG1       11.0660   -9.6080   41.4170 C.3    26  VAL26       0.0020
      7  CG2        8.8600   -8.4020   41.4230 C.3    26  VAL26       0.0020
      8  N         12.2110   -9.0420   37.8410 N.am   27  PRO27      -0.2718
      9  CA        13.1070   -9.9520   37.1000 C.3    27  PRO27       0.1535
     10  C         13.9980  -10.7230   38.0710 C.2    27  PRO27       0.2599
     11  O         14.4330  -10.1670   39.0840 O.2    27  PRO27      -0.2715
     12  CB        13.9600   -8.9940   36.2350 C.3    27  PRO27       0.0310
     13  CG        13.9910   -7.6910   37.0460 C.3    27  PRO27       0.0237
     14  CD        12.6260   -7.6310   37.7530 C.3    27  PRO27       0.0939
     15  N         14.2730  -11.9840   37.7530 N.am   28  THR28      -0.1951
     16  CA        15.0690  -12.8470   38.6160 C.3    28  THR28       0.1897
     17  C         15.7970  -13.8920   37.7760 C.2    28  THR28       0.2313
     18  O         15.4280  -14.1280   36.6260 O.2    28  THR28      -0.2863
     19  CB        14.1740  -13.5710   39.6400 C.3    28  THR28       0.1794
     20  OG1       13.3900  -12.6100   40.3580 O.3    28  THR28      -0.2208
     21  CG2       15.0140  -14.3690   40.6190 C.3    28  THR28       0.0378
     22  N         15.9680  -16.9890   38.9880 N.3    29  GLY29      -0.1225
     23  CA        15.4660  -18.2440   39.5340 C.3    29  GLY29       0.1811
     24  C         16.1030  -18.5920   40.8730 C.2    29  GLY29       0.2280
     25  O         16.7920  -17.7540   41.4620 O.2    29  GLY29      -0.2866
     26  N         14.7000  -17.0360   46.7850 N.3    32  HIS32      -0.1241
     27  CA        14.8170  -16.9900   48.2150 C.3    32  HIS32       0.1621
     28  C         14.0030  -15.8150   48.7870 C.2    32  HIS32       0.2264
     29  O         13.3160  -15.0710   48.0610 O.2    32  HIS32      -0.2867
     30  CB        16.2840  -16.8730   48.5920 C.3    32  HIS32       0.0745
     31  CG        16.9870  -15.7570   47.8870 C.ar   32  HIS32       0.0817
     32  ND1       16.6900  -14.4280   48.1170 N.ar   32  HIS32      -0.2268
     33  CD2       17.9690  -15.7690   46.9520 C.ar   32  HIS32       0.1154
     34  CE1       17.4650  -13.6730   47.3600 C.ar   32  HIS32       0.1986
     35  NE2       18.2550  -14.4610   46.6450 N.ar   32  HIS32      -0.2212
     36  N         14.8510  -13.0580   49.7790 N.3    34  GLY34      -0.1210
     37  CA        15.2030  -11.8150   49.1170 C.3    34  GLY34       0.1956
     38  C         14.2200  -11.5740   47.9840 C.2    34  GLY34       0.2611
     39  O         13.5090  -10.5640   47.9480 O.2    34  GLY34      -0.2717
     40  N         14.1560  -12.5150   47.0530 N.am   35  HIS35      -0.1975
     41  CA        13.2180  -12.3810   45.9430 C.3    35  HIS35       0.1656
     42  C         11.7910  -12.2490   46.4460 C.2    35  HIS35       0.2291
     43  O         10.9730  -11.5040   45.8860 O.2    35  HIS35      -0.2864
     44  CB        13.2790  -13.5890   45.0180 C.3    35  HIS35       0.0771
     45  CG        14.6280  -13.8340   44.4160 C.ar   35  HIS35       0.0820
     46  ND1       15.3720  -14.9610   44.7000 N.ar   35  HIS35      -0.2267
     47  CD2       15.3610  -13.1070   43.5340 C.ar   35  HIS35       0.1154
     48  CE1       16.5020  -14.9200   44.0100 C.ar   35  HIS35       0.1986
     49  NE2       16.5160  -13.8100   43.2930 N.ar   35  HIS35      -0.2212
     50  N         10.6180   -8.7960   47.3570 N.3    38  LEU38      -0.1245
     51  CA        10.3180   -7.9690   46.1870 C.3    38  LEU38       0.1561
     52  C          8.9340   -8.3160   45.6290 C.2    38  LEU38       0.2260
     53  O          8.1290   -7.4330   45.2870 O.2    38  LEU38      -0.2867
     54  CB        11.3800   -8.1140   45.1030 C.3    38  LEU38       0.0270
     55  CG        12.6260   -7.2070   45.1620 C.3    38  LEU38       0.0019
     56  CD1       13.3180   -7.2610   46.5140 C.3    38  LEU38       0.0001
     57  CD2       13.6050   -7.5850   44.0700 C.3    38  LEU38       0.0001
     58  N         25.8050  -12.2900   30.9910 N.3    59  GLN59      -0.1245
     59  CA        26.2900  -11.5490   32.1410 C.3    59  GLN59       0.1566
     60  C         27.1870  -12.3630   33.0720 C.2    59  GLN59       0.2260
     61  O         27.6900  -11.8410   34.0760 O.2    59  GLN59      -0.2867
     62  CB        25.1260  -10.9180   32.8990 C.3    59  GLN59       0.0367
     63  CG        24.2570  -11.8610   33.7130 C.3    59  GLN59       0.0905
     64  CD        23.1000  -11.1100   34.3360 C.2    59  GLN59       0.2608
     65  OE1       22.9790  -11.0070   35.5670 O.2    59  GLN59      -0.2717
     66  NE2       22.2500  -10.5530   33.4870 N.am   59  GLN59      -0.0878
     67  N         25.4810  -22.3780   38.4580 N.3    69  TYR69      -0.1241
     68  CA        24.4720  -21.4690   38.9970 C.3    69  TYR69       0.1605
     69  C         23.2210  -22.2510   39.4180 C.2    69  TYR69       0.2264
     70  O         22.7800  -23.1510   38.7040 O.2    69  TYR69      -0.2867
     71  CB        24.0950  -20.3760   37.9920 C.3    69  TYR69       0.0534
     72  CG        23.3410  -19.2690   38.6970 C.ar   69  TYR69      -0.0201
     73  CD1       24.0220  -18.3190   39.4460 C.ar   69  TYR69      -0.0009
     74  CD2       21.9460  -19.2210   38.6730 C.ar   69  TYR69      -0.0009
     75  CE1       23.3430  -17.3120   40.1190 C.ar   69  TYR69       0.0417
     76  CE2       21.2540  -18.2170   39.3420 C.ar   69  TYR69       0.0417
     77  CZ        21.9550  -17.2650   40.0680 C.ar   69  TYR69       0.1957
     78  OH        21.2730  -16.2630   40.7330 O.3    69  TYR69      -0.2866
     79  N         10.7740   -3.7050   40.3090 N.3   143  TYR143     -0.1227
     80  CA        11.2660   -3.9150   41.6850 C.3   143  TYR143      0.1736
     81  C         12.6730   -4.5230   41.6710 C.2   143  TYR143      0.2595
     82  O         12.9020   -5.5560   41.0380 O.2   143  TYR143     -0.2718
     83  CB        10.2530   -4.7720   42.5020 C.3   143  TYR143      0.0548
     84  CG         8.9270   -4.0420   42.5790 C.ar  143  TYR143     -0.0200
     85  CD1        8.6200   -3.2350   43.6560 C.ar  143  TYR143     -0.0009
     86  CD2        8.0520   -4.0700   41.5190 C.ar  143  TYR143     -0.0009
     87  CE1        7.4410   -2.4940   43.6960 C.ar  143  TYR143      0.0417
     88  CE2        6.8770   -3.3480   41.5480 C.ar  143  TYR143      0.0417
     89  CZ         6.5750   -2.5580   42.6270 C.ar  143  TYR143      0.1957
     90  OH         5.3790   -1.8510   42.6240 O.3   143  TYR143     -0.2866
     91  N         13.6040   -3.8320   42.3410 N.am  144  LEU144     -0.1966
     92  CA        15.0160   -4.1840   42.3650 C.3   144  LEU144      0.1728
     93  C         15.5130   -4.1720   43.8080 C.2   144  LEU144      0.2616
     94  O         15.0450   -3.3680   44.6230 O.2   144  LEU144     -0.2715
     95  CB        15.8480   -3.1780   41.5420 C.3   144  LEU144      0.0311
     96  CG        15.5910   -2.9850   40.0390 C.3   144  LEU144      0.0022
     97  CD1       16.5090   -1.9060   39.4840 C.3   144  LEU144      0.0001
     98  CD2       15.7920   -4.3030   39.2800 C.3   144  LEU144      0.0001
     99  N         16.4660   -5.0540   44.1220 N.am  145  GLY145     -0.1955
    100  CA        17.0400   -5.1010   45.4510 C.3   145  GLY145      0.1869
    101  C         18.2230   -4.1350   45.5740 C.2   145  GLY145      0.2309
    102  O         19.0630   -4.0140   44.6760 O.2   145  GLY145     -0.2863
    103  N         20.7310   -4.5670   47.3330 N.3   147  LYS147     -0.1231
    104  CA        21.9810   -5.3230   47.4520 C.3   147  LYS147      0.1693
    105  C         22.8660   -5.1980   46.2180 C.2   147  LYS147      0.2592
    106  O         24.0910   -5.1590   46.3210 O.2   147  LYS147     -0.2718
    107  CB        21.6950   -6.7990   47.7010 C.3   147  LYS147      0.0285
    108  CG        22.9350   -7.5580   48.1610 C.3   147  LYS147      0.0035
    109  CD        22.6760   -9.0370   48.2490 C.3   147  LYS147      0.0206
    110  CE        22.9590   -9.6890   46.9370 C.3   147  LYS147      0.1093
    111  NZ        22.2200  -10.9710   46.8510 N.3   147  LYS147     -0.1314
    112  N         22.2410   -5.1900   45.0440 N.am  148  ASP148     -0.1974
    113  CA        22.9740   -5.0090   43.8050 C.3   148  ASP148      0.1709
    114  C         22.9220   -3.5180   43.4560 C.2   148  ASP148      0.2293
    115  O         22.1890   -3.0700   42.5540 O.2   148  ASP148     -0.2864
    116  CB        22.3580   -5.8880   42.7340 C.3   148  ASP148      0.1436
    117  CG        22.3970   -7.3600   43.1150 C.2   148  ASP148      0.3671
    118  OD1       23.4910   -7.9560   42.9940 O.co2 148  ASP148     -0.2456
    119  OD2       21.3470   -7.9070   43.5370 O.co2 148  ASP148     -0.2456
    120  N         23.9730   -2.1410   39.9220 N.3   151  GLN151     -0.1245
    121  CA        22.8700   -2.6030   39.0760 C.3   151  GLN151      0.1566
    122  C         21.6760   -1.6320   39.1240 C.2   151  GLN151      0.2260
    123  O         21.1450   -1.2440   38.0840 O.2   151  GLN151     -0.2867
    124  CB        22.4020   -3.9910   39.5380 C.3   151  GLN151      0.0367
    125  CG        21.2030   -4.4920   38.7500 C.3   151  GLN151      0.0905
    126  CD        21.0370   -5.9720   38.8380 C.2   151  GLN151      0.2608
    127  OE1       21.6930   -6.7270   38.1150 O.2   151  GLN151     -0.2717
    128  NE2       20.1690   -6.4090   39.7380 N.am  151  GLN151     -0.0878
    129  N         14.8700   -3.1360   50.3760 N.3   171  PRO171     -0.2102
    130  CA        15.9160   -3.3650   51.3710 C.3   171  PRO171      0.1504
    131  C         16.4560   -4.7700   51.2580 C.2   171  PRO171      0.2576
    132  O         15.7190   -5.7090   50.9520 O.2   171  PRO171     -0.2718
    133  CB        15.1790   -3.2350   52.7210 C.3   171  PRO171      0.0282
    134  CG        13.8780   -2.6630   52.4300 C.3   171  PRO171      0.0208
    135  CD        13.5450   -2.9710   51.0010 C.3   171  PRO171      0.0893
    136  N         17.7360   -4.9160   51.5320 N.am  172  THR172     -0.1939
    137  CA        18.4100   -6.2150   51.4640 C.3   172  THR172      0.2028
    138  C         17.9550   -7.1340   52.6130 C.2   172  THR172      0.2642
    139  O         18.0600   -6.7840   53.7980 O.2   172  THR172     -0.2714
    140  CB        19.9330   -6.0340   51.5000 C.3   172  THR172      0.1808
    141  OG1       20.3430   -5.3510   50.3110 O.3   172  THR172     -0.2208
    142  CG2       20.6540   -7.4040   51.5630 C.3   172  THR172      0.0379
    143  N         17.4130   -8.2910   52.2560 N.am  173  GLN173     -0.1976
    144  CA        17.0100   -9.2580   53.2550 C.3   173  GLN173      0.1601
    145  C         18.2320  -10.0520   53.7070 C.2   173  GLN173      0.2287
    146  O         19.0500  -10.4560   52.8790 O.2   173  GLN173     -0.2864
    147  CB        15.9390  -10.2080   52.7050 C.3   173  GLN173      0.0394
    148  CG        14.6790   -9.5000   52.2350 C.3   173  GLN173      0.0908
    149  CD        14.1010   -8.6070   53.3220 C.2   173  GLN173      0.2608
    150  OE1       13.5950   -9.0880   54.3210 O.2   173  GLN173     -0.2717
    151  NE2       14.2220   -7.3010   53.1460 N.am  173  GLN173     -0.0878
    152  N         20.7780  -12.6830   51.9460 N.3   181  LEU181     -0.1231
    153  CA        20.2530  -13.8100   51.1750 C.3   181  LEU181      0.1693
    154  C         20.6890  -13.6900   49.7070 C.2   181  LEU181      0.2593
    155  O         20.6720  -12.5960   49.1240 O.2   181  LEU181     -0.2718
    156  CB        18.7350  -13.8730   51.3080 C.3   181  LEU181      0.0284
    157  CG        18.3370  -14.1170   52.7630 C.3   181  LEU181      0.0019
    158  CD1       16.8460  -13.9380   52.9210 C.3   181  LEU181      0.0001
    159  CD2       18.8000  -15.5170   53.1770 C.3   181  LEU181      0.0001
    160  N         21.1220  -14.8090   49.1240 N.am  182  SER182     -0.1938
    161  CA        21.5780  -14.8470   47.7290 C.3   182  SER182      0.2055
    162  C         21.4380  -16.2680   47.1720 C.2   182  SER182      0.2644
    163  O         21.6480  -17.2310   47.9080 O.2   182  SER182     -0.2714
    164  CB        23.0420  -14.4200   47.6620 C.3   182  SER182      0.2130
    165  OG        23.3590  -13.8980   46.3870 O.3   182  SER182     -0.2179
    166  N         21.1090  -16.3970   45.8860 N.am  183  SER183     -0.1935
    167  CA        20.9270  -17.7160   45.2690 C.3   183  SER183      0.2055
    168  C         22.1960  -18.5650   45.3290 C.2   183  SER183      0.2642
    169  O         22.1330  -19.7670   45.5760 O.2   183  SER183     -0.2714
    170  CB        20.4320  -17.5990   43.8150 C.3   183  SER183      0.2130
    171  OG        19.1570  -16.9690   43.7730 O.3   183  SER183     -0.2179
    172  N         23.3460  -17.9350   45.0980 N.am  184  ARG184     -0.1977
    173  CA        24.6200  -18.6450   45.1430 C.3   184  ARG184      0.1597
    174  C         24.9050  -19.2350   46.5340 C.2   184  ARG184      0.2287
    175  O         25.7170  -20.1640   46.6660 O.2   184  ARG184     -0.2864
    176  CB        25.7710  -17.7340   44.6780 C.3   184  ARG184      0.0334
    177  CG        25.8720  -17.5750   43.1520 C.3   184  ARG184      0.0492
    178  CD        27.0720  -16.6690   42.7720 C.3   184  ARG184      0.2205
    179  NE        27.1010  -16.3260   41.3500 N.pl3 184  ARG184     -0.0865
    180  CZ        26.4470  -15.2920   40.8210 C.cat 184  ARG184      0.5346
    181  NH1       25.7230  -14.4980   41.5980 N.pl3 184  ARG184      0.1354
    182  NH2       26.5160  -15.0430   39.5190 N.pl3 184  ARG184      0.1354
@<TRIPOS>BOND
     1    58    59    1
     2    59    62    1
     3    59    60    1
     4    62    63    1
     5    60    61    2
     6    66    64   am
     7    63    64    1
     8    64    65    2
     9    12    13    1
    10    12     9    1
    11    18    17    2
    12    13    14    1
    13     9     8    1
    14     9    10    1
    15    14     8    1
    16    15    10   am
    17    15    16    1
    18    17    16    1
    19     8     3   am
    20    71    72    1
    21    71    68    1
    22    10    11    2
    23   123   122    2
    24   127   126    2
    25     4     3    2
    26     1     2    1
    27     3     2    1
    28    67    68    1
    29    16    19    1
    30    74    72   ar
    31    74    76   ar
    32    72    73   ar
    33    70    69    2
    34   125   126    1
    35   125   124    1
    36   126   128   am
    37    22    23    1
    38    68    69    1
    39   121   122    1
    40   121   124    1
    41   121   120    1
    42     2     5    1
    43    98    96    1
    44    76    77   ar
    45    73    75   ar
    46    97    96    1
    47   182   180    1
    48    23    24    1
    49    19    20    1
    50    19    21    1
    51    96    95    1
    52    77    75   ar
    53    77    78    1
    54    79    80    1
    55     5     6    1
    56     5     7    1
    57   180   179    2
    58   180   181    1
    59    24    25    2
    60    82    81    2
    61   179   178    1
    62    86    88   ar
    63    86    84   ar
    64    95    92    1
    65    88    89   ar
    66    81    80    1
    67    81    91   am
    68    80    83    1
    69    91    92    1
    70    92    93    1
    71    83    84    1
    72   115   114    2
    73    84    85   ar
    74    90    89    1
    75    89    87   ar
    76   116   117    1
    77   116   113    1
    78   178   177    1
    79   118   117   ar
    80   117   119   ar
    81   177   176    1
    82    49    47   ar
    83    49    48   ar
    84   114   113    1
    85    47    45   ar
    86    85    87   ar
    87   171   170    1
    88   113   112    1
    89    93    99   am
    90    93    94    2
    91   170   167    1
    92    48    46   ar
    93    57    55    1
    94    99   100    1
    95    45    46   ar
    96    45    44    1
    97   102   101    2
    98   176   173    1
    99    44    41    1
   100   112   105   am
   101   172   173    1
   102   172   168   am
   103    54    55    1
   104    54    51    1
   105   173   174    1
   106    55    56    1
   107   167   168    1
   108   167   166    1
   109    53    52    2
   110   168   169    2
   111   100   101    1
   112    52    51    1
   113   166   162   am
   114    43    42    2
   115    41    42    1
   116    41    40    1
   117    51    50    1
   118   105   106    2
   119   105   104    1
   120   165   164    1
   121   174   175    2
   122    35    33   ar
   123    35    34   ar
   124    26    27    1
   125   111   110    1
   126   110   109    1
   127    33    31   ar
   128    40    38   am
   129   162   161    1
   130   162   163    2
   131   103   104    1
   132    34    32   ar
   133   104   107    1
   134   164   161    1
   135   107   108    1
   136   161   160    1
   137    31    32   ar
   138    31    30    1
   139    39    38    2
   140    38    37    1
   141    29    28    2
   142   108   109    1
   143    27    30    1
   144    27    28    1
   145    37    36    1
   146   160   154   am
   147   155   154    2
   148   154   153    1
   149   141   140    1
   150   129   135    1
   151   129   130    1
   152   132   131    2
   153   135   134    1
   154   153   156    1
   155   153   152    1
   156   131   130    1
   157   131   136   am
   158   156   157    1
   159   130   133    1
   160   137   140    1
   161   137   136    1
   162   137   138    1
   163   140   142    1
   164   148   147    1
   165   148   149    1
   166   143   138   am
   167   143   144    1
   168   134   133    1
   169   138   139    2
   170   147   144    1
   171   157   158    1
   172   157   159    1
   173   146   145    2
   174   151   149   am
   175   144   145    1
   176   149   150    2
