@<TRIPOS>MOLECULE
tmp/3n8kM00.pdb
 125 119 0 0 0
SMALL
GASTEIGER

@<TRIPOS>ATOM
      1  N         -7.9330  137.6010  -45.7560 N.3    18  PRO18      -0.2102
      2  CA        -6.6180  138.1100  -46.1600 C.3    18  PRO18       0.1504
      3  C         -6.5370  138.5990  -47.6060 C.2    18  PRO18       0.2576
      4  O         -7.1260  137.9910  -48.5060 O.2    18  PRO18      -0.2718
      5  CB        -5.7040  136.8960  -45.9720 C.3    18  PRO18       0.0282
      6  CG        -6.3430  136.1260  -44.8900 C.3    18  PRO18       0.0208
      7  CD        -7.8200  136.2780  -45.1130 C.3    18  PRO18       0.0893
      8  N         -5.8070  139.6990  -47.7970 N.am   19  ASN19      -0.1961
      9  CA        -5.5130  140.2840  -49.1160 C.3    19  ASN19       0.1819
     10  C         -6.6830  141.0010  -49.8080 C.2    19  ASN19       0.2621
     11  O         -6.4930  141.6520  -50.8380 O.2    19  ASN19      -0.2715
     12  CB        -4.8700  139.2510  -50.0560 C.3    19  ASN19       0.1195
     13  CG        -3.6750  138.5560  -49.4300 C.2    19  ASN19       0.2630
     14  OD1       -2.7430  139.2020  -48.9540 O.2    19  ASN19      -0.2716
     15  ND2       -3.7000  137.2310  -49.4230 N.am   19  ASN19      -0.0877
     16  N         -7.8810  140.8860  -49.2400 N.am   20  LEU20      -0.1977
     17  CA        -9.0800  141.4640  -49.8510 C.3    20  LEU20       0.1596
     18  C         -9.2550  142.9600  -49.5820 C.2    20  LEU20       0.2287
     19  O        -10.0250  143.6330  -50.2710 O.2    20  LEU20      -0.2864
     20  CB       -10.3280  140.6750  -49.4520 C.3    20  LEU20       0.0297
     21  CG       -10.4670  139.3290  -50.1710 C.3    20  LEU20       0.0022
     22  CD1      -11.3700  138.4030  -49.3930 C.3    20  LEU20       0.0001
     23  CD2      -10.9690  139.5040  -51.6030 C.3    20  LEU20       0.0001
     24  N         -5.0420  144.8190  -56.4240 N.3    26  ARG26      -0.1245
     25  CA        -4.7950  143.3790  -56.4450 C.3    26  ARG26       0.1563
     26  C         -5.1950  142.7720  -57.7810 C.2    26  ARG26       0.2260
     27  O         -6.3750  142.7790  -58.1370 O.2    26  ARG26      -0.2867
     28  CB        -5.5700  142.6950  -55.3160 C.3    26  ARG26       0.0307
     29  CG        -4.7110  142.2170  -54.1640 C.3    26  ARG26       0.0489
     30  CD        -4.6840  140.7010  -54.0880 C.3    26  ARG26       0.2205
     31  NE        -5.9300  140.1860  -53.5240 N.pl3  26  ARG26      -0.0865
     32  CZ        -6.2240  138.8980  -53.3690 C.cat  26  ARG26       0.5346
     33  NH1       -5.3630  137.9560  -53.7360 N.pl3  26  ARG26       0.1354
     34  NH2       -7.3900  138.5520  -52.8420 N.pl3  26  ARG26       0.1354
     35  N         -9.2550  139.9690  -60.0870 N.3    31  TYR31      -0.1241
     36  CA       -10.2510  140.3820  -59.0880 C.3    31  TYR31       0.1605
     37  C        -11.0570  141.6370  -59.4430 C.2    31  TYR31       0.2264
     38  O        -12.0800  141.9160  -58.8130 O.2    31  TYR31      -0.2867
     39  CB        -9.5980  140.5400  -57.7070 C.3    31  TYR31       0.0534
     40  CG        -8.8870  139.2960  -57.2140 C.ar   31  TYR31      -0.0201
     41  CD1       -7.4960  139.2190  -57.2170 C.ar   31  TYR31      -0.0009
     42  CD2       -9.6070  138.1940  -56.7480 C.ar   31  TYR31      -0.0009
     43  CE1       -6.8360  138.0800  -56.7670 C.ar   31  TYR31       0.0417
     44  CE2       -8.9570  137.0490  -56.2980 C.ar   31  TYR31       0.0417
     45  CZ        -7.5730  137.0000  -56.3080 C.ar   31  TYR31       0.1957
     46  OH        -6.9240  135.8700  -55.8640 O.3    31  TYR31      -0.2866
     47  N        -15.9630  135.6350  -47.6280 N.3    82  ASN82      -0.1240
     48  CA       -14.8590  135.4270  -48.5500 C.3    82  ASN82       0.1653
     49  C        -13.5720  135.3800  -47.7390 C.2    82  ASN82       0.2266
     50  O        -13.0120  136.4170  -47.3880 O.2    82  ASN82      -0.2867
     51  CB       -14.8020  136.5450  -49.5950 C.3    82  ASN82       0.1155
     52  CG       -13.8250  136.2480  -50.7290 C.2    82  ASN82       0.2627
     53  OD1      -13.0770  135.2700  -50.6890 O.2    82  ASN82      -0.2716
     54  ND2      -13.8330  137.0980  -51.7490 N.am   82  ASN82      -0.0877
     55  N        -10.6230  134.5180  -48.4770 N.3    84  GLY84      -0.1210
     56  CA        -9.3930  134.7060  -49.2380 C.3    84  GLY84       0.1956
     57  C         -8.6200  133.4110  -49.3830 C.2    84  GLY84       0.2612
     58  O         -9.1770  132.3950  -49.8030 O.2    84  GLY84      -0.2717
     59  N         -7.3400  133.4510  -49.0200 N.am   85  GLY85      -0.1956
     60  CA        -6.4700  132.2760  -49.0880 C.3    85  GLY85       0.1869
     61  C         -6.7800  131.2220  -48.0380 C.2    85  GLY85       0.2309
     62  O         -6.5340  130.0310  -48.2560 O.2    85  GLY85      -0.2863
     63  N         -8.8290  127.7580  -48.3980 N.3    88  HIS88      -0.1241
     64  CA        -8.2160  126.5200  -48.8770 C.3    88  HIS88       0.1621
     65  C         -7.2890  125.8570  -47.8560 C.2    88  HIS88       0.2264
     66  O         -6.7840  124.7560  -48.0970 O.2    88  HIS88      -0.2867
     67  CB        -7.4470  126.7960  -50.1750 C.3    88  HIS88       0.0745
     68  CG        -8.1360  127.7590  -51.0910 C.ar   88  HIS88       0.0817
     69  ND1       -9.2410  127.4140  -51.8390 N.ar   88  HIS88      -0.2268
     70  CD2       -7.8870  129.0610  -51.3660 C.ar   88  HIS88       0.1154
     71  CE1       -9.6390  128.4610  -52.5400 C.ar   88  HIS88       0.1986
     72  NE2       -8.8330  129.4730  -52.2720 N.ar   88  HIS88      -0.2212
     73  N        -16.7290  134.0480  -53.7460 N.3   108  HIS108     -0.1226
     74  CA       -15.4290  134.3510  -54.3380 C.3   108  HIS108      0.1752
     75  C        -15.6060  135.2080  -55.5830 C.2   108  HIS108      0.2596
     76  O        -16.4470  134.9150  -56.4360 O.2   108  HIS108     -0.2718
     77  CB       -14.6540  133.0740  -54.6690 C.3   108  HIS108      0.0759
     78  CG       -14.3500  132.2250  -53.4740 C.ar  108  HIS108      0.0818
     79  ND1      -13.6990  132.7130  -52.3610 N.ar  108  HIS108     -0.2268
     80  CD2      -14.6060  130.9210  -53.2190 C.ar  108  HIS108      0.1154
     81  CE1      -13.5720  131.7460  -51.4700 C.ar  108  HIS108      0.1986
     82  NE2      -14.1110  130.6470  -51.9680 N.ar  108  HIS108     -0.2212
     83  N        -14.8140  136.2740  -55.6670 N.am  109  ILE109     -0.1966
     84  CA       -14.8570  137.2000  -56.7960 C.3   109  ILE109      0.1727
     85  C        -14.4780  136.4870  -58.0990 C.2   109  ILE109      0.2616
     86  O        -15.2200  136.5420  -59.0810 O.2   109  ILE109     -0.2715
     87  CB       -13.9440  138.4320  -56.5480 C.3   109  ILE109      0.0290
     88  CG1      -14.4460  139.2310  -55.3360 C.3   109  ILE109      0.0022
     89  CG2      -13.8740  139.3190  -57.7910 C.3   109  ILE109      0.0023
     90  CD1      -13.4180  140.1790  -54.7310 C.3   109  ILE109      0.0001
     91  N        -13.3340  135.8050  -58.0860 N.am  110  SER110     -0.1950
     92  CA       -12.8200  135.1060  -59.2620 C.3   110  SER110      0.1924
     93  C        -13.3600  133.6810  -59.3440 C.2   110  SER110      0.2314
     94  O        -13.8520  133.1380  -58.3490 O.2   110  SER110     -0.2863
     95  CB       -11.2880  135.0760  -59.2330 C.3   110  SER110      0.2116
     96  OG       -10.8100  134.1970  -58.2270 O.3   110  SER110     -0.2180
     97  N        -12.6750  130.3360  -58.9410 N.3   112  VAL112     -0.1245
     98  CA       -11.6810  129.5560  -58.2100 C.3   112  VAL112      0.1561
     99  C        -11.3880  128.1940  -58.8680 C.2   112  VAL112      0.2260
    100  O        -10.3640  127.5640  -58.5840 O.2   112  VAL112     -0.2867
    101  CB       -12.1110  129.4110  -56.7190 C.3   112  VAL112      0.0252
    102  CG1      -12.9190  128.1340  -56.4810 C.3   112  VAL112      0.0019
    103  CG2      -10.9090  129.4840  -55.7990 C.3   112  VAL112      0.0019
    104  N         -8.5710  128.3200  -62.0360 N.3   115  ARG115     -0.1245
    105  CA        -7.2370  128.7380  -61.6110 C.3   115  ARG115      0.1563
    106  C         -6.3810  127.5290  -61.2240 C.2   115  ARG115      0.2260
    107  O         -6.5420  126.4470  -61.7950 O.2   115  ARG115     -0.2867
    108  CB        -7.3460  129.7360  -60.4530 C.3   115  ARG115      0.0307
    109  CG        -8.1180  131.0060  -60.7990 C.3   115  ARG115      0.0489
    110  CD        -8.2320  131.9400  -59.6050 C.3   115  ARG115      0.2205
    111  NE        -6.9530  132.5660  -59.2790 N.pl3 115  ARG115     -0.0865
    112  CZ        -6.7520  133.3830  -58.2500 C.cat 115  ARG115      0.5346
    113  NH1       -7.7480  133.6870  -57.4260 N.pl3 115  ARG115      0.1354
    114  NH2       -5.5480  133.8980  -58.0440 N.pl3 115  ARG115      0.1354
    115  N         -6.8670  125.5270  -55.3830 N.3   119  ARG119     -0.1245
    116  CA        -7.9500  126.4550  -55.0600 C.3   119  ARG119      0.1563
    117  C         -9.3320  125.8250  -55.2490 C.2   119  ARG119      0.2260
    118  O        -10.3500  126.4430  -54.9320 O.2   119  ARG119     -0.2867
    119  CB        -7.8350  127.7290  -55.9040 C.3   119  ARG119      0.0307
    120  CG        -6.6660  128.6310  -55.5420 C.3   119  ARG119      0.0489
    121  CD        -6.7610  129.9700  -56.2610 C.3   119  ARG119      0.2205
    122  NE        -5.4460  130.5820  -56.4470 N.pl3 119  ARG119     -0.0865
    123  CZ        -4.8670  131.4220  -55.5930 C.cat 119  ARG119      0.5346
    124  NH1       -5.4800  131.7740  -54.4700 N.pl3 119  ARG119      0.1354
    125  NH2       -3.6650  131.9120  -55.8680 N.pl3 119  ARG119      0.1354
@<TRIPOS>BOND
     1   104   105    1
     2   107   106    2
     3   105   106    1
     4   105   108    1
     5   109   108    1
     6   109   110    1
     7    35    36    1
     8   110   111    1
     9    37    36    1
    10    37    38    2
    11    93    92    1
    12    93    94    2
    13   111   112    2
    14    92    95    1
    15    92    91    1
    16    95    96    1
    17    36    39    1
    18    86    85    2
    19    97    98    1
    20    99   100    2
    21    99    98    1
    22   112   114    1
    23   112   113    1
    24    98   101    1
    25    27    26    2
    26    85    91   am
    27    85    84    1
    28    89    87    1
    29    26    25    1
    30    39    40    1
    31    41    40   ar
    32    41    43   ar
    33    40    42   ar
    34    84    87    1
    35    84    83    1
    36    43    45   ar
    37    42    44   ar
    38   101   102    1
    39   101   103    1
    40    87    88    1
    41   122   121    1
    42   122   123    2
    43    25    24    1
    44    25    28    1
    45    76    75    2
    46    45    44   ar
    47    45    46    1
    48   121   120    1
    49   119   120    1
    50   119   116    1
    51   125   123    1
    52    83    75   am
    53   123   124    1
    54    75    74    1
    55   115   116    1
    56    88    90    1
    57    28    29    1
    58   117   116    1
    59   117   118    2
    60    77    74    1
    61    77    78    1
    62    74    73    1
    63    29    30    1
    64    30    31    1
    65    33    32    1
    66    31    32    2
    67    78    80   ar
    68    78    79   ar
    69    32    34    1
    70    80    82   ar
    71    71    72   ar
    72    71    69   ar
    73    79    81   ar
    74    72    70   ar
    75    82    81   ar
    76    69    68   ar
    77    54    52   am
    78    23    21    1
    79    70    68   ar
    80    68    67    1
    81    11    10    2
    82    52    53    2
    83    52    51    1
    84    19    18    2
    85    67    64    1
    86    21    20    1
    87    21    22    1
    88    12    13    1
    89    12     9    1
    90    17    18    1
    91    17    20    1
    92    17    16    1
    93    10    16   am
    94    10     9    1
    95    58    57    2
    96    51    48    1
    97    13    15   am
    98    13    14    2
    99    57    56    1
   100    57    59   am
   101    56    55    1
   102     9     8    1
   103    60    59    1
   104    60    61    1
   105    64    63    1
   106    64    65    1
   107    48    49    1
   108    48    47    1
   109     4     3    2
   110    62    61    2
   111    66    65    2
   112     8     3   am
   113    49    50    2
   114     3     2    1
   115     2     5    1
   116     2     1    1
   117     5     6    1
   118     1     7    1
   119     7     6    1
