@<TRIPOS>MOLECULE
tmp/3n8lA00.pdb
 135 127 0 0 0
SMALL
GASTEIGER

@<TRIPOS>ATOM
      1  N        -17.8760  -12.4590    3.9640 N.3    41  CYS41      -0.1221
      2  CA       -16.4120  -12.3780    4.0410 C.3    41  CYS41       0.1808
      3  C        -16.0280  -11.9350    5.4550 C.2    41  CYS41       0.2601
      4  O        -16.6920  -12.3200    6.4130 O.2    41  CYS41      -0.2717
      5  CB       -15.8320  -11.4700    2.9560 C.3    41  CYS41       0.0970
      6  SG       -16.3070  -12.0030    1.2980 S.3    41  CYS41      -0.0800
      7  N        -14.9930  -11.1210    5.6050 N.am   42  SER42      -0.1952
      8  CA       -14.4870  -10.8300    6.9440 C.3    42  SER42       0.1924
      9  C        -15.3370   -9.8950    7.7660 C.2    42  SER42       0.2314
     10  O        -14.9960   -9.6390    8.9130 O.2    42  SER42      -0.2863
     11  CB       -13.0800  -10.2540    6.8910 C.3    42  SER42       0.2116
     12  OG       -12.1430  -11.2310    6.4610 O.3    42  SER42      -0.2180
     13  N        -16.3840  -10.6250   11.4270 N.3    45  LYS45      -0.1245
     14  CA       -15.4910  -10.5320   12.5700 C.3    45  LYS45       0.1561
     15  C        -15.9310   -9.4790   13.5820 C.2    45  LYS45       0.2260
     16  O        -15.6120   -9.6010   14.7590 O.2    45  LYS45      -0.2867
     17  CB       -14.0440  -10.3190   12.1050 C.3    45  LYS45       0.0271
     18  CG       -13.5220  -11.5150   11.3120 C.3    45  LYS45       0.0035
     19  CD       -12.1920  -11.2230   10.6340 C.3    45  LYS45       0.0206
     20  CE       -11.8660  -12.3320    9.6140 C.3    45  LYS45       0.1093
     21  NZ       -10.6060  -12.0370    8.8950 N.3    45  LYS45      -0.1314
     22  N         -4.8930  -19.0000    6.3800 N.3    74  SER74      -0.1202
     23  CA        -5.5660  -17.8610    5.7650 C.3    74  SER74       0.2020
     24  C         -4.7370  -16.6180    6.0630 C.2    74  SER74       0.2618
     25  O         -3.8390  -16.6550    6.9020 O.2    74  SER74      -0.2717
     26  CB        -6.9760  -17.7010    6.3550 C.3    74  SER74       0.2103
     27  OG        -6.9250  -17.3610    7.7440 O.3    74  SER74      -0.2182
     28  N         -5.0280  -15.5090    5.3990 N.am   75  ILE75      -0.1979
     29  CA        -4.2990  -14.2680    5.6320 C.3    75  ILE75       0.1595
     30  C         -4.3970  -13.8920    7.1050 C.2    75  ILE75       0.2287
     31  O         -5.4950  -13.7240    7.6300 O.2    75  ILE75      -0.2864
     32  CB        -4.8550  -13.1190    4.7520 C.3    75  ILE75       0.0276
     33  CG1       -4.7940  -13.4840    3.2730 C.3    75  ILE75       0.0022
     34  CG2       -4.0690  -11.8470    4.9940 C.3    75  ILE75       0.0022
     35  CD1       -5.4400  -12.4960    2.4130 C.3    75  ILE75       0.0001
     36  N         -6.7680   -5.8750   11.5120 N.3    99  TYR99      -0.1227
     37  CA        -5.9580   -6.4160   10.4250 C.3    99  TYR99       0.1736
     38  C         -6.6780   -7.5120    9.6840 C.2    99  TYR99       0.2596
     39  O         -6.1030   -8.1270    8.8000 O.2    99  TYR99      -0.2718
     40  CB        -4.5970   -6.9170   10.9430 C.3    99  TYR99       0.0548
     41  CG        -3.7090   -5.7750   11.3500 C.ar   99  TYR99      -0.0200
     42  CD1       -3.6520   -5.3460   12.6680 C.ar   99  TYR99      -0.0009
     43  CD2       -2.9430   -5.1010   10.4010 C.ar   99  TYR99      -0.0009
     44  CE1       -2.8530   -4.2770   13.0380 C.ar   99  TYR99       0.0417
     45  CE2       -2.1440   -4.0380   10.7590 C.ar   99  TYR99       0.0417
     46  CZ        -2.1030   -3.6340   12.0770 C.ar   99  TYR99       0.1957
     47  OH        -1.3140   -2.5670   12.4330 O.3    99  TYR99      -0.2866
     48  N         -7.9320   -7.7600   10.0590 N.am  100  SER100     -0.1952
     49  CA        -8.7490   -8.8350    9.4840 C.3   100  SER100      0.1924
     50  C         -8.0050  -10.1680    9.4770 C.2   100  SER100      0.2314
     51  O         -7.9620  -10.8900    8.4680 O.2   100  SER100     -0.2863
     52  CB        -9.2600   -8.4760    8.1050 C.3   100  SER100      0.2116
     53  OG       -10.4920   -9.1410    7.9180 O.3   100  SER100     -0.2180
     54  N         -7.3070  -13.8230    9.8110 N.3   102  GLY102     -0.1225
     55  CA        -8.1770  -14.9810    9.6580 C.3   102  GLY102      0.1811
     56  C         -7.9460  -16.0360   10.7260 C.2   102  GLY102      0.2280
     57  O         -8.8910  -16.6480   11.2200 O.2   102  GLY102     -0.2866
     58  N        -10.2170  -20.5260    5.5140 N.3   141  PRO141     -0.2116
     59  CA       -10.4550  -19.6420    4.3710 C.3   141  PRO141      0.1372
     60  C        -11.7510  -19.9140    3.6050 C.2   141  PRO141      0.2244
     61  O        -12.1110  -19.1360    2.7130 O.2   141  PRO141     -0.2868
     62  CB        -9.2660  -19.9690    3.4610 C.3   141  PRO141      0.0268
     63  CG        -9.0450  -21.4090    3.6780 C.3   141  PRO141      0.0207
     64  CD        -9.2560  -21.5970    5.1690 C.3   141  PRO141      0.0892
     65  N        -14.9370  -19.6100    4.0650 N.3   143  LEU143     -0.1227
     66  CA       -16.1270  -18.7900    4.0790 C.3   143  LEU143      0.1733
     67  C        -16.1650  -17.7650    2.9910 C.2   143  LEU143      0.2595
     68  O        -17.1620  -17.2980    2.6980 O.2   143  LEU143     -0.2718
     69  CB       -16.3200  -18.1430    5.4550 C.3   143  LEU143      0.0504
     70  CG       -15.4220  -16.9710    5.8210 C.2   143  LEU143     -0.0420
     71  CD1      -14.0220  -17.0960    5.8330 C.3   143  LEU143      0.0264
     72  CD2      -15.7310  -15.7200    5.4330 C.2   143  LEU143     -0.0091
     73  N        -15.0620  -17.4770    2.3450 N.am  144  ASN144     -0.1974
     74  CA       -15.0210  -16.4800    1.2810 C.3   144  ASN144      0.1688
     75  C        -15.2000  -17.0640   -0.1350 C.2   144  ASN144      0.2292
     76  O        -15.1790  -16.3670   -1.0490 O.2   144  ASN144     -0.2864
     77  CB       -13.6660  -15.7190    1.2850 C.3   144  ASN144      0.1181
     78  CG       -13.3270  -15.0840    2.5850 C.2   144  ASN144      0.2629
     79  OD1      -12.2510  -15.2330    3.0950 O.2   144  ASN144     -0.2716
     80  ND2      -14.2250  -14.3700    3.1020 N.am  144  ASN144     -0.0877
     81  N         -7.7050   -1.3790    7.5610 N.3   190  THR190     -0.1218
     82  CA        -7.9360   -1.9500    6.2350 C.3   190  THR190      0.1862
     83  C         -8.9990   -1.2170    5.4190 C.2   190  THR190      0.2287
     84  O         -9.3370   -1.6670    4.3190 O.2   190  THR190     -0.2866
     85  CB        -8.3880   -3.4090    6.3270 C.3   190  THR190      0.1770
     86  OG1       -9.6820   -3.4400    6.9290 O.3   190  THR190     -0.2211
     87  CG2       -7.4110   -4.2720    7.1430 C.3   190  THR190      0.0375
     88  N        -12.4520    2.5210    1.3050 N.3   194  ARG194     -0.1245
     89  CA       -13.8420    2.0670    1.1850 C.3   194  ARG194      0.1563
     90  C        -14.7810    3.1380    1.7490 C.2   194  ARG194      0.2260
     91  O        -14.7360    4.2630    1.2470 O.2   194  ARG194     -0.2867
     92  CB       -14.0020    0.6530    1.7520 C.3   194  ARG194      0.0307
     93  CG       -13.1770   -0.3380    0.9390 C.3   194  ARG194      0.0489
     94  CD       -13.2460   -1.7550    1.4500 C.3   194  ARG194      0.2205
     95  NE       -12.2920   -2.5810    0.7280 N.pl3 194  ARG194     -0.0865
     96  CZ       -12.3330   -3.9120    0.6450 C.cat 194  ARG194      0.5346
     97  NH1      -11.3890   -4.5570   -0.0250 N.pl3 194  ARG194      0.1354
     98  NH2      -13.3190   -4.6150    1.1990 N.pl3 194  ARG194      0.1354
     99  N        -14.0430   -4.2380    7.1560 N.3   209  THR209     -0.1203
    100  CA       -14.0860   -4.6280    5.7480 C.3   209  THR209      0.1994
    101  C        -14.2250   -6.1440    5.5590 C.2   209  THR209      0.2618
    102  O        -14.0930   -6.9200    6.5010 O.2   209  THR209     -0.2717
    103  CB       -12.7970   -4.1630    5.0550 C.3   209  THR209      0.1784
    104  OG1      -11.6850   -4.6760    5.7920 O.3   209  THR209     -0.2211
    105  CG2      -12.7310   -2.6500    5.0100 C.3   209  THR209      0.0376
    106  N        -14.4960   -6.5540    4.3280 N.am  210  GLY210     -0.1942
    107  CA       -14.3230   -7.9540    3.9530 C.3   210  GLY210      0.2014
    108  C        -14.0170   -8.0240    2.4840 C.2   210  GLY210      0.2640
    109  O        -14.4920   -7.1870    1.7090 O.2   210  GLY210     -0.2714
    110  N        -13.2300   -9.0100    2.0930 N.am  211  THR211     -0.1936
    111  CA       -12.8500   -9.1890    0.6980 C.3   211  THR211      0.2028
    112  C        -12.8280  -10.6850    0.4400 C.2   211  THR211      0.2643
    113  O        -12.4020  -11.4460    1.2920 O.2   211  THR211     -0.2714
    114  CB       -11.4640   -8.5650    0.4210 C.3   211  THR211      0.1808
    115  OG1      -11.4730   -7.2110    0.8770 O.3   211  THR211     -0.2208
    116  CG2      -11.1380   -8.5760   -1.0540 C.3   211  THR211      0.0379
    117  N        -13.2900  -11.1130   -0.7250 N.am  212  GLY212     -0.1939
    118  CA       -13.3780  -12.5420   -0.9930 C.3   212  GLY212      0.2014
    119  C        -13.2320  -12.8360   -2.4620 C.2   212  GLY212      0.2638
    120  O        -12.9220  -11.9540   -3.2700 O.2   212  GLY212     -0.2714
    121  N        -13.4620  -14.0970   -2.8090 N.am  213  ASP213     -0.1971
    122  CA       -13.3810  -14.5220   -4.1920 C.3   213  ASP213      0.1709
    123  C        -14.5710  -13.9960   -4.9750 C.2   213  ASP213      0.2293
    124  O        -15.4690  -13.3990   -4.4030 O.2   213  ASP213     -0.2864
    125  CB       -13.2610  -16.0420   -4.2200 C.3   213  ASP213      0.1436
    126  CG       -12.0480  -16.4950   -3.4760 C.2   213  ASP213      0.3671
    127  OD1      -10.9380  -16.1470   -3.9230 O.co2 213  ASP213     -0.2456
    128  OD2      -12.2040  -17.0950   -2.3960 O.co2 213  ASP213     -0.2456
    129  N        -11.5400   -7.8790   -6.6220 N.3   248  PRO248     -0.2116
    130  CA       -12.4030   -6.9980   -5.8460 C.3   248  PRO248      0.1372
    131  C        -12.0860   -5.5630   -6.2210 C.2   248  PRO248      0.2244
    132  O        -10.9300   -5.2640   -6.5370 O.2   248  PRO248     -0.2868
    133  CB       -11.9840   -7.2920   -4.4020 C.3   248  PRO248      0.0268
    134  CG       -11.4230   -8.7090   -4.4730 C.3   248  PRO248      0.0207
    135  CD       -10.6480   -8.6690   -5.7600 C.3   248  PRO248      0.0892
@<TRIPOS>BOND
     1   129   130    1
     2   129   135    1
     3   132   131    2
     4   131   130    1
     5   130   133    1
     6   135   134    1
     7   123   124    2
     8   123   122    1
     9   134   133    1
    10   125   122    1
    11   125   126    1
    12   122   121    1
    13   127   126   ar
    14   126   128   ar
    15   120   119    2
    16   121   119   am
    17   119   118    1
    18   116   114    1
    19    76    75    2
    20   118   117    1
    21   117   112   am
    22    75    74    1
    23    97    96    1
    24   114   111    1
    25   114   115    1
    26   112   111    1
    27   112   113    2
    28    96    95    2
    29    96    98    1
    30   111   110    1
    31    95    94    1
    32    93    94    1
    33    93    92    1
    34    89    88    1
    35    89    90    1
    36    89    92    1
    37    91    90    2
    38    74    77    1
    39    74    73    1
    40    77    78    1
    41     6     5    1
    42   109   108    2
    43   110   108   am
    44    73    67   am
    45    35    33    1
    46   108   107    1
    47    78    79    2
    48    78    80   am
    49    68    67    2
    50    61    60    2
    51     5     2    1
    52    67    66    1
    53    33    32    1
    54    62    63    1
    55    62    59    1
    56    60    59    1
    57    63    64    1
    58   107   106    1
    59     1     2    1
    60     2     3    1
    61    65    66    1
    62    66    69    1
    63    84    83    2
    64   106   101   am
    65    59    58    1
    66    32    34    1
    67    32    29    1
    68   105   103    1
    69   103   100    1
    70   103   104    1
    71    64    58    1
    72    28    29    1
    73    28    24   am
    74    83    82    1
    75    72    70    2
    76    69    70    1
    77     3     7   am
    78     3     4    2
    79   101   100    1
    80   101   102    2
    81     7     8    1
    82    29    30    1
    83   100    99    1
    84    23    24    1
    85    23    26    1
    86    23    22    1
    87    70    71    1
    88    24    25    2
    89    82    85    1
    90    82    81    1
    91    85    86    1
    92    85    87    1
    93    26    27    1
    94    12    11    1
    95    11     8    1
    96     8     9    1
    97    30    31    2
    98     9    10    2
    99    53    52    1
   100    52    49    1
   101    51    50    2
   102    39    38    2
   103    21    20    1
   104    50    49    1
   105    49    48    1
   106    20    19    1
   107    55    54    1
   108    55    56    1
   109    38    48   am
   110    38    37    1
   111    43    45   ar
   112    43    41   ar
   113    37    40    1
   114    37    36    1
   115    19    18    1
   116    56    57    2
   117    45    46   ar
   118    40    41    1
   119    18    17    1
   120    41    42   ar
   121    13    14    1
   122    46    47    1
   123    46    44   ar
   124    17    14    1
   125    14    15    1
   126    42    44   ar
   127    15    16    2
