@<TRIPOS>MOLECULE
tmp/3n8nV00.pdb
 144 137 0 0 0
SMALL
GASTEIGER

@<TRIPOS>ATOM
      1  N          9.3860  -24.3580    5.9610 N.3     9  PRO9       -0.2102
      2  CA         8.6670  -25.5920    6.2420 C.3     9  PRO9        0.1504
      3  C          8.0650  -25.6080    7.6340 C.2     9  PRO9        0.2576
      4  O          8.7250  -25.2080    8.5900 O.2     9  PRO9       -0.2718
      5  CB         9.7670  -26.6570    6.1490 C.3     9  PRO9        0.0282
      6  CG        10.8070  -26.0650    5.2700 C.3     9  PRO9        0.0208
      7  CD        10.7900  -24.6110    5.5830 C.3     9  PRO9        0.0893
      8  N          6.8220  -26.0670    7.7490 N.am   10  ASN10      -0.1961
      9  CA         6.1900  -26.2410    9.0610 C.3    10  ASN10       0.1819
     10  C          5.5870  -24.9810    9.6830 C.2    10  ASN10       0.2621
     11  O          4.7150  -25.0820   10.5420 O.2    10  ASN10      -0.2715
     12  CB         7.1740  -26.8710   10.0470 C.3    10  ASN10       0.1195
     13  CG         7.5410  -28.2600    9.6600 C.2    10  ASN10       0.2630
     14  OD1        6.6710  -29.0500    9.3610 O.2    10  ASN10      -0.2716
     15  ND2        8.8350  -28.5630    9.6280 N.am   10  ASN10      -0.0877
     16  N          6.0370  -23.8010    9.2550 N.am   11  LEU11      -0.1977
     17  CA         5.4340  -22.5580    9.7320 C.3    11  LEU11       0.1596
     18  C          4.0060  -22.4060    9.2780 C.2    11  LEU11       0.2287
     19  O          3.2800  -21.6340    9.8470 O.2    11  LEU11      -0.2864
     20  CB         6.2390  -21.3470    9.3160 C.3    11  LEU11       0.0297
     21  CG         7.7520  -21.4440    9.4740 C.3    11  LEU11       0.0022
     22  CD1        8.2760  -20.3080    8.7120 C.3    11  LEU11       0.0001
     23  CD2        8.2000  -21.3370   10.9070 C.3    11  LEU11       0.0001
     24  N          1.9860  -24.1580   10.1150 N.3    13  ARG13      -0.1231
     25  CA         1.3520  -24.9030   11.2060 C.3    13  ARG13       0.1694
     26  C          1.3730  -24.2450   12.5830 C.2    13  ARG13       0.2591
     27  O          1.1650  -24.9190   13.6040 O.2    13  ARG13      -0.2718
     28  CB         2.0090  -26.2700   11.3130 C.3    13  ARG13       0.0321
     29  CG         1.4020  -27.2030   10.3650 C.3    13  ARG13       0.0489
     30  CD         1.7630  -28.5570   10.7270 C.3    13  ARG13       0.2205
     31  NE         0.7510  -29.3160   11.4570 N.pl3  13  ARG13      -0.0865
     32  CZ        -0.4650  -29.6160   11.0090 C.cat  13  ARG13       0.5346
     33  NH1       -0.9000  -29.1220    9.8600 N.pl3  13  ARG13       0.1354
     34  NH2       -1.2710  -30.3670   11.7500 N.pl3  13  ARG13       0.1354
     35  N          1.6140  -22.9350   12.6050 N.am   14  LEU14      -0.1980
     36  CA         1.6250  -22.1760   13.8540 C.3    14  LEU14       0.1596
     37  C          0.2600  -22.2180   14.5470 C.2    14  LEU14       0.2287
     38  O         -0.7720  -22.1870   13.8840 O.2    14  LEU14      -0.2864
     39  CB         2.0530  -20.7290   13.6000 C.3    14  LEU14       0.0297
     40  CG         3.4260  -20.4190   12.9960 C.3    14  LEU14       0.0022
     41  CD1        3.5530  -18.9410   12.8020 C.3    14  LEU14       0.0001
     42  CD2        4.5650  -20.9180   13.8590 C.3    14  LEU14       0.0001
     43  N          1.0080  -26.1610   18.2270 N.3    17  ARG17      -0.1245
     44  CA         2.2220  -26.4700   19.0200 C.3    17  ARG17       0.1563
     45  C          3.4190  -25.5920   18.5570 C.2    17  ARG17       0.2260
     46  O          3.4580  -25.1630   17.3880 O.2    17  ARG17      -0.2867
     47  CB         2.5800  -27.9580   18.9800 C.3    17  ARG17       0.0307
     48  CG         2.2700  -28.6910   20.2810 C.3    17  ARG17       0.0489
     49  CD         2.9860  -30.0410   20.3480 C.3    17  ARG17       0.2205
     50  NE         2.3090  -31.0810   19.5690 N.pl3  17  ARG17      -0.0865
     51  CZ         1.2330  -31.7630   19.9760 C.cat  17  ARG17       0.5346
     52  NH1        0.6760  -31.5200   21.1640 N.pl3  17  ARG17       0.1354
     53  NH2        0.6990  -32.6910   19.1860 N.pl3  17  ARG17       0.1354
     54  N          5.2010  -20.1710   20.9430 N.3    22  TYR22      -0.1241
     55  CA         4.8460  -20.4190   19.5250 C.3    22  TYR22       0.1605
     56  C          3.4590  -19.8300   19.1860 C.2    22  TYR22       0.2264
     57  O          3.1280  -19.6120   18.0070 O.2    22  TYR22      -0.2867
     58  CB         4.9230  -21.9170   19.1530 C.3    22  TYR22       0.0534
     59  CG         6.2800  -22.3340   18.6440 C.ar   22  TYR22      -0.0201
     60  CD1        7.0030  -23.3490   19.2650 C.ar   22  TYR22      -0.0009
     61  CD2        6.8540  -21.6860   17.5580 C.ar   22  TYR22      -0.0009
     62  CE1        8.2600  -23.7200   18.7980 C.ar   22  TYR22       0.0417
     63  CE2        8.1050  -22.0380   17.0890 C.ar   22  TYR22       0.0417
     64  CZ         8.8030  -23.0540   17.7070 C.ar   22  TYR22       0.1957
     65  OH        10.0390  -23.3920   17.2140 O.3    22  TYR22      -0.2866
     66  N         11.9090  -16.5290    7.4890 N.3    73  ASN73      -0.1240
     67  CA        11.9120  -17.5970    8.5110 C.3    73  ASN73       0.1653
     68  C         11.9630  -18.9450    7.7990 C.2    73  ASN73       0.2266
     69  O         10.9680  -19.4030    7.2030 O.2    73  ASN73      -0.2867
     70  CB        10.6850  -17.5410    9.4060 C.3    73  ASN73       0.1155
     71  CG        10.8680  -18.3370   10.6840 C.2    73  ASN73       0.2627
     72  OD1       11.8850  -18.9930   10.8630 O.2    73  ASN73      -0.2716
     73  ND2        9.8910  -18.2570   11.6000 N.am   73  ASN73      -0.0877
     74  N         12.5730  -21.9280    8.9360 N.3    75  GLY75      -0.1210
     75  CA        12.4320  -23.0870    9.7890 C.3    75  GLY75       0.1956
     76  C         13.6680  -23.9760    9.8790 C.2    75  GLY75       0.2612
     77  O         14.7930  -23.5080   10.1190 O.2    75  GLY75      -0.2717
     78  N         13.4660  -25.2660    9.6630 N.am   76  GLY76      -0.1956
     79  CA        14.5460  -26.2090    9.7740 C.3    76  GLY76       0.1869
     80  C         15.6660  -25.9380    8.8010 C.2    76  GLY76       0.2309
     81  O         16.8420  -26.1270    9.1250 O.2    76  GLY76      -0.2863
     82  N         19.1810  -24.2860    9.4970 N.3    79  HIS79      -0.1241
     83  CA        20.2490  -25.0700   10.0800 C.3    79  HIS79       0.1621
     84  C         20.9400  -25.9810    9.0730 C.2    79  HIS79       0.2264
     85  O         22.0530  -26.4650    9.3420 O.2    79  HIS79      -0.2867
     86  CB        19.6590  -25.8750   11.2430 C.3    79  HIS79       0.0745
     87  CG        18.8360  -25.0310   12.1800 C.ar   79  HIS79       0.0817
     88  ND1       19.3400  -23.9020   12.7960 N.ar   79  HIS79      -0.2268
     89  CD2       17.5390  -25.1200   12.5670 C.ar   79  HIS79       0.1154
     90  CE1       18.3940  -23.3510   13.5380 C.ar   79  HIS79       0.1986
     91  NE2       17.2910  -24.0610   13.4120 N.ar   79  HIS79      -0.2212
     92  N         13.5470  -15.7810   13.6350 N.3    99  HIS99      -0.1226
     93  CA        13.0600  -16.9320   14.3830 C.3    99  HIS99       0.1752
     94  C         12.1450  -16.5100   15.5160 C.2    99  HIS99       0.2596
     95  O         12.5670  -15.8580   16.4540 O.2    99  HIS99      -0.2718
     96  CB        14.2160  -17.7520   14.9660 C.3    99  HIS99       0.0759
     97  CG        15.2510  -18.1270   13.9670 C.ar   99  HIS99       0.0818
     98  ND1       15.1430  -19.2420   13.1650 N.ar   99  HIS99      -0.2268
     99  CD2       16.4170  -17.5330   13.6320 C.ar   99  HIS99       0.1154
    100  CE1       16.2020  -19.3190   12.3800 C.ar   99  HIS99       0.1986
    101  NE2       16.9910  -18.2930   12.6460 N.ar   99  HIS99      -0.2212
    102  N         10.8940  -16.9170   15.4050 N.am  100  ILE100     -0.1966
    103  CA         9.8960  -16.8300   16.4400 C.3   100  ILE100      0.1727
    104  C         10.4050  -17.2990   17.8110 C.2   100  ILE100      0.2616
    105  O         10.0840  -16.6810   18.8450 O.2   100  ILE100     -0.2715
    106  CB         8.6780  -17.6820   16.0420 C.3   100  ILE100      0.0290
    107  CG1        8.1210  -17.1600   14.7270 C.3   100  ILE100      0.0022
    108  CG2        7.6030  -17.6880   17.1550 C.3   100  ILE100      0.0023
    109  CD1        6.8510  -17.8310   14.2850 C.3   100  ILE100      0.0001
    110  N         11.1710  -18.3850   17.8380 N.am  101  SER101     -0.1950
    111  CA        11.5880  -18.9570   19.1140 C.3   101  SER101      0.1924
    112  C         13.0180  -18.5400   19.3840 C.2   101  SER101      0.2314
    113  O         13.7380  -18.1470   18.4700 O.2   101  SER101     -0.2863
    114  CB        11.4600  -20.4850   19.0930 C.3   101  SER101      0.2116
    115  OG        12.4670  -21.1090   18.2750 O.3   101  SER101     -0.2180
    116  N         16.1630  -19.6840   19.5020 N.3   103  VAL103     -0.1245
    117  CA        16.7990  -20.9250   19.0500 C.3   103  VAL103      0.1561
    118  C         17.9750  -21.3410   19.9470 C.2   103  VAL103      0.2260
    119  O         18.3730  -22.5350   19.9790 O.2   103  VAL103     -0.2867
    120  CB        17.2120  -20.8400   17.5780 C.3   103  VAL103      0.0252
    121  CG1       15.9610  -20.8590   16.6910 C.3   103  VAL103      0.0019
    122  CG2       18.0560  -19.5740   17.3190 C.3   103  VAL103      0.0019
    123  N         17.4800  -24.1210   23.0560 N.3   106  ARG106     -0.1245
    124  CA        16.9170  -25.3860   22.6440 C.3   106  ARG106      0.1563
    125  C         18.0710  -26.3210   22.3260 C.2   106  ARG106      0.2260
    126  O         19.1430  -26.2200   22.9610 O.2   106  ARG106     -0.2867
    127  CB        15.9950  -25.1600   21.4520 C.3   106  ARG106      0.0307
    128  CG        14.8380  -24.2410   21.7940 C.3   106  ARG106      0.0489
    129  CD        14.0550  -23.8690   20.5740 C.3   106  ARG106      0.2205
    130  NE        13.1720  -24.9500   20.1660 N.pl3 106  ARG106     -0.0865
    131  CZ        12.5340  -25.0040   19.0080 C.cat 106  ARG106      0.5346
    132  NH1       12.6850  -24.0320   18.1250 N.pl3 106  ARG106      0.1354
    133  NH2       11.7610  -26.0470   18.7260 N.pl3 106  ARG106      0.1354
    134  N         20.5300  -26.0990   16.9780 N.3   110  ARG110     -0.1245
    135  CA        19.8350  -24.9210   16.4450 C.3   110  ARG110      0.1563
    136  C         20.6140  -23.6180   16.6300 C.2   110  ARG110      0.2260
    137  O         20.3410  -22.6270   15.9720 O.2   110  ARG110     -0.2867
    138  CB        18.4290  -24.7990   16.9690 C.3   110  ARG110      0.0307
    139  CG        17.5350  -25.9250   16.5130 C.3   110  ARG110      0.0489
    140  CD        16.1840  -25.8090   17.1270 C.3   110  ARG110      0.2205
    141  NE        15.5210  -27.0810   17.3130 N.pl3 110  ARG110     -0.0865
    142  CZ        14.5110  -27.5400   16.5780 C.cat 110  ARG110      0.5346
    143  NH1       14.0440  -26.8350   15.5500 N.pl3 110  ARG110      0.1354
    144  NH2       13.9840  -28.7390   16.8580 N.pl3 110  ARG110      0.1354
@<TRIPOS>BOND
     1     6     7    1
     2     6     5    1
     3     7     1    1
     4     1     2    1
     5     5     2    1
     6     2     3    1
     7    69    68    2
     8    66    67    1
     9     3     8   am
    10     3     4    2
    11     8     9    1
    12    68    67    1
    13    67    70    1
    14    22    21    1
    15    80    81    2
    16    80    79    1
    17    74    75    1
    18     9    10    1
    19     9    12    1
    20    84    85    2
    21    84    83    1
    22    16    10   am
    23    16    17    1
    24    18    17    1
    25    18    19    2
    26    20    21    1
    27    20    17    1
    28    14    13    2
    29    70    71    1
    30    21    23    1
    31    82    83    1
    32    15    13   am
    33    13    12    1
    34    78    79    1
    35    78    76   am
    36    10    11    2
    37    75    76    1
    38    33    32    1
    39    76    77    2
    40    83    86    1
    41    24    25    1
    42    29    30    1
    43    29    28    1
    44    71    72    2
    45    71    73   am
    46    30    31    1
    47    32    31    2
    48    32    34    1
    49    25    28    1
    50    25    26    1
    51    86    87    1
    52    87    89   ar
    53    87    88   ar
    54   100   101   ar
    55   100    98   ar
    56    89    91   ar
    57    26    35   am
    58    26    27    2
    59    35    36    1
    60   101    99   ar
    61    88    90   ar
    62    41    40    1
    63    40    39    1
    64    40    42    1
    65    98    97   ar
    66    91    90   ar
    67    39    36    1
    68    99    97   ar
    69    92    93    1
    70    36    37    1
    71    38    37    2
    72    97    96    1
    73   109   107    1
    74    93    96    1
    75    93    94    1
    76   107   106    1
    77   102    94   am
    78   102   103    1
    79    94    95    2
    80   143   142    1
    81   137   136    2
    82   106   103    1
    83   106   108    1
    84   103   104    1
    85   135   136    1
    86   135   138    1
    87   135   134    1
    88   139   138    1
    89   139   140    1
    90   142   144    1
    91   142   141    2
    92   121   120    1
    93    63    61   ar
    94    63    64   ar
    95   140   141    1
    96    65    64    1
    97   122   120    1
    98    46    45    2
    99    61    59   ar
   100   120   117    1
   101    64    62   ar
   102   104   110   am
   103   104   105    2
   104   110   111    1
   105    57    56    2
   106   132   131    1
   107    43    44    1
   108   115   114    1
   109   113   112    2
   110    45    44    1
   111    59    58    1
   112    59    60   ar
   113   133   131    1
   114    62    60   ar
   115    47    44    1
   116    47    48    1
   117   131   130    2
   118   117   116    1
   119   117   118    1
   120   114   111    1
   121   111   112    1
   122    58    55    1
   123    53    51    1
   124    56    55    1
   125    55    54    1
   126    50    51    2
   127    50    49    1
   128   118   119    2
   129    51    52    1
   130   130   129    1
   131    48    49    1
   132   129   128    1
   133   127   128    1
   134   127   124    1
   135   125   124    1
   136   125   126    2
   137   124   123    1
