@<TRIPOS>MOLECULE
tmp/3n8sA00.pdb
 152 142 0 0 0
SMALL
GASTEIGER

@<TRIPOS>ATOM
      1  N        -17.7610  -12.4330    4.1140 N.3    41  CYS41      -0.1221
      2  CA       -16.3050  -12.3380    4.1590 C.3    41  CYS41       0.1808
      3  C        -15.8980  -11.9120    5.5820 C.2    41  CYS41       0.2601
      4  O        -16.5430  -12.3380    6.5480 O.2    41  CYS41      -0.2717
      5  CB       -15.7730  -11.4370    3.0330 C.3    41  CYS41       0.0970
      6  SG       -16.3090  -12.0120    1.3670 S.3    41  CYS41      -0.0800
      7  N        -14.8590  -11.0880    5.7350 N.am   42  SER42      -0.1952
      8  CA       -14.3960  -10.6990    7.0820 C.3    42  SER42       0.1924
      9  C        -15.3340   -9.8150    7.8920 C.2    42  SER42       0.2314
     10  O        -15.0320   -9.5290    9.0420 O.2    42  SER42      -0.2863
     11  CB       -13.0770   -9.9490    6.9990 C.3    42  SER42       0.2116
     12  OG       -12.0140  -10.8520    6.7410 O.3    42  SER42      -0.2180
     13  N        -16.3770  -10.6150   11.5700 N.3    45  LYS45      -0.1245
     14  CA       -15.4430  -10.4770   12.6850 C.3    45  LYS45       0.1561
     15  C        -15.8580   -9.3900   13.6810 C.2    45  LYS45       0.2260
     16  O        -15.4610   -9.4360   14.8420 O.2    45  LYS45      -0.2867
     17  CB       -14.0180  -10.2430   12.1650 C.3    45  LYS45       0.0271
     18  CG       -13.4620  -11.4680   11.4430 C.3    45  LYS45       0.0035
     19  CD       -12.1490  -11.1980   10.7440 C.3    45  LYS45       0.0206
     20  CE       -11.8930  -12.2750    9.6820 C.3    45  LYS45       0.1093
     21  NZ       -10.5910  -12.0460    8.9850 N.3    45  LYS45      -0.1314
     22  N         -4.7820  -18.7670    6.2510 N.3    74  SER74      -0.1202
     23  CA        -5.3960  -17.5970    5.6370 C.3    74  SER74       0.2020
     24  C         -4.5600  -16.3640    5.9630 C.2    74  SER74       0.2618
     25  O         -3.6220  -16.4470    6.7600 O.2    74  SER74      -0.2717
     26  CB        -6.8380  -17.4280    6.1460 C.3    74  SER74       0.2103
     27  OG        -6.8600  -17.1520    7.5390 O.3    74  SER74      -0.2182
     28  N         -4.8880  -15.2300    5.3440 N.am   75  ILE75      -0.1979
     29  CA        -4.1940  -13.9690    5.6150 C.3    75  ILE75       0.1595
     30  C         -4.3360  -13.6400    7.0950 C.2    75  ILE75       0.2287
     31  O         -5.4530  -13.5420    7.6130 O.2    75  ILE75      -0.2864
     32  CB        -4.7170  -12.8110    4.7240 C.3    75  ILE75       0.0276
     33  CG1       -4.3310  -13.0590    3.2610 C.3    75  ILE75       0.0022
     34  CG2       -4.1690  -11.4630    5.2020 C.3    75  ILE75       0.0022
     35  CD1       -4.9770  -12.1300    2.2880 C.3    75  ILE75       0.0001
     36  N         -6.8090   -5.7330   11.5780 N.3    99  TYR99      -0.1227
     37  CA        -6.0030   -6.2860   10.4830 C.3    99  TYR99       0.1736
     38  C         -6.7320   -7.3660    9.7020 C.2    99  TYR99       0.2596
     39  O         -6.1570   -7.9840    8.8010 O.2    99  TYR99      -0.2718
     40  CB        -4.6680   -6.8170   11.0140 C.3    99  TYR99       0.0548
     41  CG        -3.7500   -5.6900   11.4090 C.ar   99  TYR99      -0.0200
     42  CD1       -3.7220   -5.2100   12.7230 C.ar   99  TYR99      -0.0009
     43  CD2       -2.9440   -5.0650   10.4580 C.ar   99  TYR99      -0.0009
     44  CE1       -2.8900   -4.1490   13.0790 C.ar   99  TYR99       0.0417
     45  CE2       -2.1120   -4.0070   10.8070 C.ar   99  TYR99       0.0417
     46  CZ        -2.0900   -3.5550   12.1100 C.ar   99  TYR99       0.1957
     47  OH        -1.2600   -2.5050   12.4380 O.3    99  TYR99      -0.2866
     48  N         -8.0000   -7.5780   10.0490 N.am  100  SER100     -0.1952
     49  CA        -8.8250   -8.6110    9.4320 C.3   100  SER100      0.1924
     50  C         -8.1190   -9.9690    9.4380 C.2   100  SER100      0.2314
     51  O         -8.1360  -10.7070    8.4500 O.2   100  SER100     -0.2863
     52  CB        -9.2290   -8.1950    8.0220 C.3   100  SER100      0.2116
     53  OG       -10.4340   -8.8310    7.6580 O.3   100  SER100     -0.2180
     54  N         -7.2430  -13.6160    9.7850 N.3   102  GLY102     -0.1225
     55  CA        -8.0350  -14.8330    9.5980 C.3   102  GLY102      0.1811
     56  C         -7.8240  -15.8890   10.6680 C.2   102  GLY102      0.2280
     57  O         -8.7810  -16.5220   11.1290 O.2   102  GLY102     -0.2866
     58  N        -12.3110  -19.3600    8.1130 N.3   140  ALA140     -0.1231
     59  CA       -11.3150  -19.0360    7.0950 C.3   140  ALA140      0.1679
     60  C        -10.4430  -20.2700    6.8000 C.2   140  ALA140      0.2434
     61  O        -10.1160  -21.0310    7.7240 O.2   140  ALA140     -0.2733
     62  CB       -10.4740  -17.8350    7.5280 C.3   140  ALA140      0.0304
     63  N        -10.0770  -20.4960    5.5130 N.am  141  PRO141     -0.2729
     64  CA       -10.3560  -19.7050    4.3020 C.3   141  PRO141      0.1401
     65  C        -11.7050  -19.9540    3.6050 C.2   141  PRO141      0.2269
     66  O        -12.1120  -19.1440    2.7730 O.2   141  PRO141     -0.2865
     67  CB        -9.2230  -20.1230    3.3590 C.3   141  PRO141      0.0296
     68  CG        -8.9580  -21.5570    3.7240 C.3   141  PRO141      0.0237
     69  CD        -9.2360  -21.6750    5.2110 C.3   141  PRO141      0.0939
     70  N        -14.8790  -19.6540    4.0610 N.3   143  LEU143     -0.1231
     71  CA       -16.0470  -18.7730    4.1270 C.3   143  LEU143      0.1693
     72  C        -16.1170  -17.7160    3.0210 C.2   143  LEU143      0.2592
     73  O        -17.1920  -17.2040    2.7430 O.2   143  LEU143     -0.2718
     74  CB       -16.1890  -18.1420    5.5270 C.3   143  LEU143      0.0284
     75  CG       -15.3350  -16.9960    6.0940 C.3   143  LEU143      0.0019
     76  CD1      -13.8600  -17.1310    5.7750 C.3   143  LEU143      0.0001
     77  CD2      -15.8460  -15.6460    5.6560 C.3   143  LEU143      0.0001
     78  N        -14.9770  -17.4170    2.3900 N.am  144  ASN144     -0.1974
     79  CA       -14.8830  -16.4430    1.2910 C.3   144  ASN144      0.1688
     80  C        -15.1300  -17.0310   -0.1100 C.2   144  ASN144      0.2292
     81  O        -15.1840  -16.2840   -1.1080 O.2   144  ASN144     -0.2864
     82  CB       -13.5010  -15.7790    1.3090 C.3   144  ASN144      0.1181
     83  CG       -13.1680  -15.1450    2.6580 C.2   144  ASN144      0.2629
     84  OD1      -13.9940  -14.4620    3.2530 O.2   144  ASN144     -0.2716
     85  ND2      -11.9500  -15.3710    3.1370 N.am  144  ASN144     -0.0877
     86  N         -7.3080   -0.6600   10.3040 N.3   189  THR189     -0.1203
     87  CA        -6.2600   -0.2650    9.3430 C.3   189  THR189      0.1994
     88  C         -6.5880   -0.5890    7.8780 C.2   189  THR189      0.2618
     89  O         -5.8360   -0.2140    6.9770 O.2   189  THR189     -0.2717
     90  CB        -4.8790   -0.8940    9.6850 C.3   189  THR189      0.1784
     91  OG1       -4.8940   -2.2920    9.3790 O.3   189  THR189     -0.2211
     92  CG2       -4.5170   -0.6880   11.1520 C.3   189  THR189      0.0376
     93  N         -7.7140   -1.2600    7.6390 N.am  190  THR190     -0.1952
     94  CA        -7.9960   -1.8210    6.3150 C.3   190  THR190      0.1897
     95  C         -9.0240   -1.0520    5.4780 C.2   190  THR190      0.2313
     96  O         -9.2500   -1.4030    4.3220 O.2   190  THR190     -0.2863
     97  CB        -8.4730   -3.2820    6.4260 C.3   190  THR190      0.1794
     98  OG1       -9.7430   -3.3130    7.0880 O.3   190  THR190     -0.2208
     99  CG2       -7.4650   -4.1390    7.2080 C.3   190  THR190      0.0378
    100  N        -12.5260    2.6320    1.3790 N.3   194  ARG194     -0.1245
    101  CA       -13.9020    2.1950    1.2120 C.3   194  ARG194      0.1563
    102  C        -14.8630    3.2570    1.7380 C.2   194  ARG194      0.2260
    103  O        -14.8450    4.3780    1.2260 O.2   194  ARG194     -0.2867
    104  CB       -14.1100    0.7780    1.7750 C.3   194  ARG194      0.0307
    105  CG       -13.2840   -0.2600    0.9940 C.3   194  ARG194      0.0489
    106  CD       -13.3020   -1.6690    1.5940 C.3   194  ARG194      0.2205
    107  NE       -12.3020   -2.5250    0.9460 N.pl3 194  ARG194     -0.0865
    108  CZ       -12.3540   -3.8560    0.8720 C.cat 194  ARG194      0.5346
    109  NH1      -11.3800   -4.5180    0.2580 N.pl3 194  ARG194      0.1354
    110  NH2      -13.3780   -4.5310    1.3840 N.pl3 194  ARG194      0.1354
    111  N        -14.1040   -4.2560    7.2610 N.3   209  THR209     -0.1218
    112  CA       -14.1260   -4.5920    5.8460 C.3   209  THR209      0.1862
    113  C        -14.2710   -6.0940    5.6440 C.2   209  THR209      0.2287
    114  O        -14.0670   -6.8810    6.5690 O.2   209  THR209     -0.2866
    115  CB       -12.8120   -4.1520    5.1650 C.3   209  THR209      0.1770
    116  OG1      -11.6990   -4.7000    5.8900 O.3   209  THR209     -0.2211
    117  CG2      -12.7000   -2.6330    5.1450 C.3   209  THR209      0.0375
    118  N        -13.3480   -8.9050    2.2010 N.3   211  THR211     -0.1203
    119  CA       -12.9130   -9.1260    0.8230 C.3   211  THR211      0.1994
    120  C        -12.8660  -10.6400    0.5790 C.2   211  THR211      0.2618
    121  O        -12.4620  -11.4000    1.4580 O.2   211  THR211     -0.2717
    122  CB       -11.5230   -8.4870    0.5550 C.3   211  THR211      0.1784
    123  OG1      -11.4980   -7.1480    1.0620 O.3   211  THR211     -0.2211
    124  CG2      -11.2210   -8.4390   -0.9200 C.3   211  THR211      0.0376
    125  N        -13.2960  -11.0750   -0.6020 N.am  212  GLY212     -0.1942
    126  CA       -13.3620  -12.4950   -0.9130 C.3   212  GLY212      0.2014
    127  C        -13.1770  -12.8040   -2.3830 C.2   212  GLY212      0.2638
    128  O        -12.7500  -11.9550   -3.1680 O.2   212  GLY212     -0.2714
    129  N        -13.5220  -14.0290   -2.7600 N.am  213  ASP213     -0.1971
    130  CA       -13.3880  -14.4520   -4.1470 C.3   213  ASP213      0.1709
    131  C        -14.5820  -13.9340   -4.9300 C.2   213  ASP213      0.2293
    132  O        -15.4810  -13.3430   -4.3330 O.2   213  ASP213     -0.2864
    133  CB       -13.2290  -15.9650   -4.2080 C.3   213  ASP213      0.1436
    134  CG       -11.9750  -16.4210   -3.4950 C.2   213  ASP213      0.3671
    135  OD1      -10.8670  -16.0960   -3.9810 O.co2 213  ASP213     -0.2456
    136  OD2      -12.0890  -17.0600   -2.4340 O.co2 213  ASP213     -0.2456
    137  N        -11.5400   -7.8040   -6.5600 N.3   248  PRO248     -0.2116
    138  CA       -12.4050   -6.9490   -5.7470 C.3   248  PRO248      0.1372
    139  C        -12.1220   -5.4930   -6.0870 C.2   248  PRO248      0.2244
    140  O        -10.9750   -5.1460   -6.3950 O.2   248  PRO248     -0.2868
    141  CB       -11.9480   -7.2540   -4.3130 C.3   248  PRO248      0.0268
    142  CG       -11.2710   -8.5940   -4.4090 C.3   248  PRO248      0.0207
    143  CD       -10.5830   -8.5550   -5.7270 C.3   248  PRO248      0.0892
    144  N        -12.3810   -1.8440   -4.5570 N.3   250  GLU250     -0.1245
    145  CA       -12.6050   -0.9240   -3.4310 C.3   250  GLU250      0.1567
    146  C        -13.2330    0.3910   -3.8680 C.2   250  GLU250      0.2260
    147  O        -14.0170    0.9900   -3.1310 O.2   250  GLU250     -0.2867
    148  CB       -11.2930   -0.6100   -2.7190 C.3   250  GLU250      0.0388
    149  CG       -10.6600   -1.7950   -2.0330 C.3   250  GLU250      0.1160
    150  CD        -9.5660   -1.3640   -1.0850 C.2   250  GLU250      0.3649
    151  OE1       -8.5020   -0.9060   -1.5680 O.co2 250  GLU250     -0.2457
    152  OE2       -9.7800   -1.4860    0.1410 O.co2 250  GLU250     -0.2457
@<TRIPOS>BOND
     1   137   138    1
     2   137   143    1
     3   140   139    2
     4   139   138    1
     5   138   141    1
     6   143   142    1
     7   131   132    2
     8   131   130    1
     9   144   145    1
    10   142   141    1
    11   133   130    1
    12   133   134    1
    13   130   129    1
    14   135   134   ar
    15   146   145    1
    16   146   147    2
    17   134   136   ar
    18   145   148    1
    19   128   127    2
    20   129   127   am
    21   148   149    1
    22   127   126    1
    23   149   150    1
    24   151   150   ar
    25    81    80    2
    26   150   152   ar
    27   124   122    1
    28   126   125    1
    29   125   120   am
    30    80    79    1
    31   109   108    1
    32   122   119    1
    33   122   123    1
    34   120   119    1
    35   120   121    2
    36   119   118    1
    37   108   107    2
    38   108   110    1
    39   107   106    1
    40   105   106    1
    41   105   104    1
    42   101   100    1
    43   101   102    1
    44   101   104    1
    45   103   102    2
    46    79    82    1
    47    79    78    1
    48    82    83    1
    49     6     5    1
    50    35    33    1
    51    78    72   am
    52    83    85   am
    53    83    84    2
    54    73    72    2
    55    66    65    2
    56    72    71    1
    57     5     2    1
    58    33    32    1
    59    67    68    1
    60    67    64    1
    61    65    64    1
    62    68    69    1
    63    70    71    1
    64     1     2    1
    65    71    74    1
    66     2     3    1
    67    64    63    1
    68    96    95    2
    69    32    34    1
    70    32    29    1
    71   117   115    1
    72   115   112    1
    73   115   116    1
    74    69    63    1
    75    28    29    1
    76    28    24   am
    77    95    94    1
    78    63    60   am
    79    74    75    1
    80     3     7   am
    81     3     4    2
    82    29    30    1
    83    23    24    1
    84    23    26    1
    85    23    22    1
    86   113   112    1
    87   113   114    2
    88    77    75    1
    89     7     8    1
    90    76    75    1
    91   112   111    1
    92    24    25    2
    93    26    27    1
    94    94    97    1
    95    94    93    1
    96    97    98    1
    97    97    99    1
    98    12    11    1
    99    60    59    1
   100    60    61    2
   101    89    88    2
   102    11     8    1
   103     8     9    1
   104    59    62    1
   105    59    58    1
   106    30    31    2
   107    93    88   am
   108    53    52    1
   109    88    87    1
   110     9    10    2
   111    52    49    1
   112    51    50    2
   113    39    38    2
   114    21    20    1
   115    87    90    1
   116    87    86    1
   117    91    90    1
   118    49    50    1
   119    49    48    1
   120    55    54    1
   121    55    56    1
   122    20    19    1
   123    90    92    1
   124    38    48   am
   125    38    37    1
   126    43    45   ar
   127    43    41   ar
   128    37    40    1
   129    37    36    1
   130    56    57    2
   131    19    18    1
   132    45    46   ar
   133    40    41    1
   134    41    42   ar
   135    18    17    1
   136    13    14    1
   137    46    47    1
   138    46    44   ar
   139    17    14    1
   140    14    15    1
   141    42    44   ar
   142    15    16    2
