@<TRIPOS>MOLECULE
tmp/3n8vB04.pdb
 90 85 0 0 0
SMALL
GASTEIGER

@<TRIPOS>ATOM
      1  N         12.8460  -51.5010  -10.7180 N.3    13  GLN13      -0.1245
      2  CA        13.5510  -52.3630   -9.7700 C.3    13  GLN13       0.1566
      3  C         12.6150  -53.2580   -8.9370 C.2    13  GLN13       0.2260
      4  O         12.9600  -53.6720   -7.8270 O.2    13  GLN13      -0.2867
      5  CB        14.4850  -51.5290   -8.8850 C.3    13  GLN13       0.0367
      6  CG        15.6170  -50.8480   -9.6540 C.3    13  GLN13       0.0905
      7  CD        16.5050  -49.9880   -8.7690 C.2    13  GLN13       0.2608
      8  OE1       16.9570  -50.4200   -7.7040 O.2    13  GLN13      -0.2717
      9  NE2       16.7660  -48.7630   -9.2130 N.am   13  GLN13      -0.0878
     10  N         10.3840  -48.2710   -5.0750 N.3    31  THR31      -0.1218
     11  CA        10.7730  -48.1470   -6.4780 C.3    31  THR31       0.1862
     12  C         10.1530  -46.8970   -7.1130 C.2    31  THR31       0.2287
     13  O         10.4930  -46.5250   -8.2390 O.2    31  THR31      -0.2866
     14  CB        10.4190  -49.4200   -7.2910 C.3    31  THR31       0.1770
     15  OG1       11.0060  -49.3380   -8.5960 O.3    31  THR31      -0.2211
     16  CG2        8.9110  -49.5910   -7.4220 C.3    31  THR31       0.0375
     17  N          5.7500  -37.6950   -7.2160 N.3    44  TRP44      -0.1241
     18  CA         7.1300  -37.2770   -7.4490 C.3    44  TRP44       0.1605
     19  C          7.7830  -37.9560   -8.6470 C.2    44  TRP44       0.2264
     20  O          8.4520  -37.2960   -9.4420 O.2    44  TRP44      -0.2867
     21  CB         7.9800  -37.4590   -6.1900 C.3    44  TRP44       0.0550
     22  CG         7.9680  -36.2480   -5.3220 C.ar   44  TRP44       0.0003
     23  CD1        7.2700  -36.0770   -4.1630 C.ar   44  TRP44       0.0946
     24  CD2        8.6690  -35.0200   -5.5550 C.ar   44  TRP44       0.0152
     25  NE1        7.5000  -34.8220   -3.6510 N.ar   44  TRP44      -0.2442
     26  CE2        8.3550  -34.1510   -4.4860 C.ar   44  TRP44       0.0810
     27  CE3        9.5370  -34.5700   -6.5620 C.ar   44  TRP44       0.0012
     28  CZ2        8.8800  -32.8540   -4.3910 C.ar   44  TRP44       0.0191
     29  CZ3       10.0590  -33.2780   -6.4680 C.ar   44  TRP44       0.0001
     30  CH2        9.7260  -32.4370   -5.3890 C.ar   44  TRP44       0.0015
     31  N          9.3220  -36.2900  -11.8270 N.3    48  ARG48      -0.1245
     32  CA        10.7370  -36.5290  -12.1090 C.3    48  ARG48       0.1563
     33  C         10.9670  -37.0910  -13.5130 C.2    48  ARG48       0.2260
     34  O         11.9240  -36.7040  -14.1820 O.2    48  ARG48      -0.2867
     35  CB        11.3470  -37.4490  -11.0400 C.3    48  ARG48       0.0307
     36  CG        12.8490  -37.6940  -11.1780 C.3    48  ARG48       0.0489
     37  CD        13.4550  -38.3040   -9.9150 C.3    48  ARG48       0.2205
     38  NE        13.7400  -37.2950   -8.8920 N.pl3  48  ARG48      -0.0865
     39  CZ        13.1650  -37.2380   -7.6910 C.cat  48  ARG48       0.5346
     40  NH1       13.5030  -36.2740   -6.8430 N.pl3  48  ARG48       0.1354
     41  NH2       12.2610  -38.1400   -7.3280 N.pl3  48  ARG48       0.1354
     42  N         29.2310  -34.0090   -7.1720 N.3    83  ARG83      -0.1231
     43  CA        28.4440  -34.6440   -6.1150 C.3    83  ARG83       0.1694
     44  C         27.2260  -35.3540   -6.7100 C.2    83  ARG83       0.2591
     45  O         26.9140  -36.4860   -6.3350 O.2    83  ARG83      -0.2718
     46  CB        28.0180  -33.6180   -5.0580 C.3    83  ARG83       0.0321
     47  CG        27.1640  -34.1910   -3.9270 C.3    83  ARG83       0.0489
     48  CD        27.0650  -33.2500   -2.7330 C.3    83  ARG83       0.2205
     49  NE        26.3840  -31.9950   -3.0470 N.pl3  83  ARG83      -0.0865
     50  CZ        26.9910  -30.8180   -3.1840 C.cat  83  ARG83       0.5346
     51  NH1       28.3080  -30.7170   -3.0360 N.pl3  83  ARG83       0.1354
     52  NH2       26.2770  -29.7370   -3.4700 N.pl3  83  ARG83       0.1354
     53  N         26.5580  -34.6840   -7.6490 N.am   84  LEU84      -0.1980
     54  CA        25.4010  -35.2460   -8.3390 C.3    84  LEU84       0.1596
     55  C         25.7990  -36.4510   -9.1920 C.2    84  LEU84       0.2287
     56  O         25.0660  -37.4400   -9.2480 O.2    84  LEU84      -0.2864
     57  CB        24.7210  -34.1770   -9.2000 C.3    84  LEU84       0.0297
     58  CG        23.2680  -34.4010   -9.6260 C.3    84  LEU84       0.0022
     59  CD1       22.3140  -34.1980   -8.4530 C.3    84  LEU84       0.0001
     60  CD2       22.9080  -33.4630  -10.7680 C.3    84  LEU84       0.0001
     61  N         26.2640  -39.3110   -6.6080 N.3    87  THR87      -0.1203
     62  CA        25.0390  -39.7280   -5.9280 C.3    87  THR87       0.1994
     63  C         24.0880  -40.5340   -6.8170 C.2    87  THR87       0.2617
     64  O         23.7110  -41.6540   -6.4640 O.2    87  THR87      -0.2717
     65  CB        24.3010  -38.5060   -5.3160 C.3    87  THR87       0.1784
     66  OG1       25.1580  -37.8600   -4.3670 O.3    87  THR87      -0.2211
     67  CG2       23.0080  -38.9260   -4.6180 C.3    87  THR87       0.0376
     68  N         23.7140  -39.9700   -7.9640 N.am   88  VAL88      -0.1979
     69  CA        22.6910  -40.5760   -8.8240 C.3    88  VAL88       0.1595
     70  C         23.1800  -41.8260   -9.5800 C.2    88  VAL88       0.2287
     71  O         22.3770  -42.6830   -9.9510 O.2    88  VAL88      -0.2864
     72  CB        22.0460  -39.5300   -9.7840 C.3    88  VAL88       0.0276
     73  CG1       22.9510  -39.2300  -10.9600 C.3    88  VAL88       0.0022
     74  CG2       20.6770  -40.0030  -10.2640 C.3    88  VAL88       0.0022
     75  N         23.3700  -44.7660   -6.7500 N.3    91  ASN91      -0.1225
     76  CA        22.0210  -45.1210   -6.3010 C.3    91  ASN91       0.1785
     77  C         21.4080  -46.2950   -7.0780 C.2    91  ASN91       0.2597
     78  O         20.5250  -46.9940   -6.5710 O.2    91  ASN91      -0.2718
     79  CB        21.1080  -43.8890   -6.3800 C.3    91  ASN91       0.1169
     80  CG        19.7620  -44.1000   -5.6990 C.2    91  ASN91       0.2627
     81  OD1       19.6620  -44.7820   -4.6750 O.2    91  ASN91      -0.2716
     82  ND2       18.7180  -43.5040   -6.2650 N.am   91  ASN91      -0.0877
     83  N         21.8930  -46.5070   -8.3000 N.am   92  LEU92      -0.1980
     84  CA        21.4170  -47.5850   -9.1660 C.3    92  LEU92       0.1596
     85  C         21.9590  -48.9630   -8.7700 C.2    92  LEU92       0.2287
     86  O         21.6580  -49.9660   -9.4250 O.2    92  LEU92      -0.2864
     87  CB        21.7590  -47.2790  -10.6310 C.3    92  LEU92       0.0297
     88  CG        20.7150  -46.5760  -11.5100 C.3    92  LEU92       0.0022
     89  CD1       20.4050  -45.1550  -11.0460 C.3    92  LEU92       0.0001
     90  CD2       21.1780  -46.5680  -12.9550 C.3    92  LEU92       0.0001
@<TRIPOS>BOND
     1    34    33    2
     2    33    32    1
     3    90    88    1
     4    32    31    1
     5    32    35    1
     6    88    89    1
     7    88    87    1
     8    36    35    1
     9    36    37    1
    10    73    72    1
    11    60    58    1
    12     1     2    1
    13    87    84    1
    14    74    72    1
    15    71    70    2
    16    37    38    1
    17    72    69    1
    18     2     3    1
    19     2     5    1
    20     6     5    1
    21     6     7    1
    22    58    57    1
    23    58    59    1
    24    70    69    1
    25    20    19    2
    26    86    85    2
    27    56    55    2
    28     9     7   am
    29    57    54    1
    30    55    54    1
    31    84    85    1
    32    84    83    1
    33     3     4    2
    34    38    39    2
    35    69    68    1
    36     7     8    2
    37    19    18    1
    38    15    14    1
    39    54    53    1
    40    83    77   am
    41    13    12    2
    42    68    63   am
    43    39    41    1
    44    39    40    1
    45    53    44   am
    46    18    17    1
    47    18    21    1
    48    16    14    1
    49    14    11    1
    50    42    43    1
    51    12    11    1
    52    77    78    2
    53    77    76    1
    54    63    64    2
    55    63    62    1
    56    75    76    1
    57    44    45    2
    58    44    43    1
    59    61    62    1
    60    27    29   ar
    61    27    24   ar
    62    11    10    1
    63    29    30   ar
    64    79    76    1
    65    79    80    1
    66    82    80   am
    67    21    22    1
    68    43    46    1
    69    62    65    1
    70    80    81    2
    71    24    22   ar
    72    24    26   ar
    73    30    28   ar
    74    22    23   ar
    75    65    67    1
    76    65    66    1
    77    46    47    1
    78    26    28   ar
    79    26    25   ar
    80    23    25   ar
    81    47    48    1
    82    52    50    1
    83    50    49    2
    84    50    51    1
    85    49    48    1
