@<TRIPOS>MOLECULE
tmp/3n8wB06.pdb
 96 89 0 0 0
SMALL
GASTEIGER

@<TRIPOS>ATOM
      1  N         23.7180  -29.5720   44.2110 N.3    52  ARG52      -0.1245
      2  CA        23.6680  -31.0180   44.4390 C.3    52  ARG52       0.1563
      3  C         23.4700  -31.3310   45.9200 C.2    52  ARG52       0.2260
      4  O         24.3350  -31.0100   46.7410 O.2    52  ARG52      -0.2867
      5  CB        24.9490  -31.6980   43.9370 C.3    52  ARG52       0.0307
      6  CG        24.9060  -33.2230   43.9460 C.3    52  ARG52       0.0489
      7  CD        26.2930  -33.8190   44.1640 C.3    52  ARG52       0.2205
      8  NE        26.2470  -35.2770   44.3030 N.pl3  52  ARG52      -0.0865
      9  CZ        27.2870  -36.0460   44.6260 C.cat  52  ARG52       0.5346
     10  NH1       28.4820  -35.5140   44.8550 N.pl3  52  ARG52       0.1354
     11  NH2       27.1300  -37.3580   44.7260 N.pl3  52  ARG52       0.1354
     12  N         24.0240  -37.5570   48.9860 N.3    55  PRO55      -0.2116
     13  CA        23.3840  -38.8650   48.7900 C.3    55  PRO55       0.1372
     14  C         22.5200  -39.2990   49.9770 C.2    55  PRO55       0.2244
     15  O         21.5400  -40.0180   49.7880 O.2    55  PRO55      -0.2868
     16  CB        24.5740  -39.8170   48.6280 C.3    55  PRO55       0.0268
     17  CG        25.6700  -38.9610   48.1030 C.3    55  PRO55       0.0207
     18  CD        25.4840  -37.6290   48.7710 C.3    55  PRO55       0.0892
     19  N         19.0800  -37.5040   49.6700 N.3    58  ILE58      -0.1245
     20  CA        18.2920  -38.1310   48.6170 C.3    58  ILE58       0.1561
     21  C         17.7800  -39.5030   49.0700 C.2    58  ILE58       0.2260
     22  O         16.6340  -39.8680   48.7820 O.2    58  ILE58      -0.2867
     23  CB        19.0770  -38.1960   47.2810 C.3    58  ILE58       0.0252
     24  CG1       19.2160  -36.7850   46.6960 C.3    58  ILE58       0.0019
     25  CG2       18.3880  -39.1200   46.2770 C.3    58  ILE58       0.0019
     26  CD1       20.4160  -36.5970   45.7880 C.3    58  ILE58       0.0001
     27  N         13.8350  -40.7980   49.1650 N.3    62  LEU62      -0.1245
     28  CA        13.3850  -42.0430   48.5580 C.3    62  LEU62       0.1561
     29  C         12.7890  -43.0330   49.5620 C.2    62  LEU62       0.2260
     30  O         12.0700  -43.9540   49.1690 O.2    62  LEU62      -0.2867
     31  CB        14.5280  -42.6920   47.7720 C.3    62  LEU62       0.0270
     32  CG        14.9910  -41.9660   46.5050 C.3    62  LEU62       0.0019
     33  CD1       16.3150  -42.5290   46.0040 C.3    62  LEU62       0.0001
     34  CD2       13.9280  -42.0200   45.4090 C.3    62  LEU62       0.0001
     35  N         17.4590  -41.8950   37.3780 N.3    85  VAL85      -0.1245
     36  CA        18.2480  -42.8810   38.1240 C.3    85  VAL85       0.1561
     37  C         19.1190  -43.7470   37.2000 C.2    85  VAL85       0.2260
     38  O         20.2810  -44.0210   37.5070 O.2    85  VAL85      -0.2867
     39  CB        17.3320  -43.7500   39.0290 C.3    85  VAL85       0.0252
     40  CG1       17.9610  -45.1050   39.3500 C.3    85  VAL85       0.0019
     41  CG2       16.9950  -42.9930   40.3080 C.3    85  VAL85       0.0019
     42  N         21.9910  -41.2640   35.3530 N.3    88  VAL88      -0.1231
     43  CA        22.9160  -40.6710   36.3150 C.3    88  VAL88       0.1692
     44  C         23.8830  -41.6820   36.9440 C.2    88  VAL88       0.2591
     45  O         25.0890  -41.4210   37.0160 O.2    88  VAL88      -0.2718
     46  CB        22.1750  -39.8250   37.3920 C.3    88  VAL88       0.0266
     47  CG1       23.1240  -39.3740   38.4880 C.3    88  VAL88       0.0020
     48  CG2       21.5190  -38.6080   36.7430 C.3    88  VAL88       0.0020
     49  N         23.3570  -42.8230   37.3860 N.am   89  GLN89      -0.1979
     50  CA        24.1810  -43.8350   38.0430 C.3    89  GLN89       0.1601
     51  C         25.0130  -44.6700   37.0700 C.2    89  GLN89       0.2287
     52  O         26.1880  -44.9350   37.3220 O.2    89  GLN89      -0.2864
     53  CB        23.3410  -44.7110   38.9820 C.3    89  GLN89       0.0394
     54  CG        23.4220  -44.2620   40.4490 C.3    89  GLN89       0.0908
     55  CD        22.1750  -44.5900   41.2550 C.2    89  GLN89       0.2608
     56  OE1       21.1200  -44.8960   40.6920 O.2    89  GLN89      -0.2717
     57  NE2       22.2890  -44.5160   42.5840 N.am   89  GLN89      -0.0878
     58  N         28.4960  -43.3050   35.7560 N.3    92  LEU92      -0.1245
     59  CA        29.7040  -43.3750   36.5640 C.3    92  LEU92       0.1561
     60  C         30.6140  -44.4750   36.0220 C.2    92  LEU92       0.2260
     61  O         31.8280  -44.4430   36.2170 O.2    92  LEU92      -0.2867
     62  CB        29.3740  -43.6360   38.0350 C.3    92  LEU92       0.0270
     63  CG        29.2300  -42.4450   38.9880 C.3    92  LEU92       0.0019
     64  CD1       30.3670  -41.4500   38.8060 C.3    92  LEU92       0.0001
     65  CD2       27.8930  -41.7600   38.8090 C.3    92  LEU92       0.0001
     66  N         33.0060  -42.5820   43.1260 N.3   439  PHE439     -0.1227
     67  CA        31.5480  -42.7120   43.0260 C.3   439  PHE439      0.1736
     68  C         30.7960  -41.5260   43.6390 C.2   439  PHE439      0.2596
     69  O         29.6640  -41.6690   44.1060 O.2   439  PHE439     -0.2718
     70  CB        31.0670  -44.0450   43.6060 C.3   439  PHE439      0.0547
     71  CG        31.3950  -45.2290   42.7450 C.ar  439  PHE439     -0.0202
     72  CD1       30.5050  -45.6600   41.7630 C.ar  439  PHE439     -0.0042
     73  CD2       32.5980  -45.9130   42.9080 C.ar  439  PHE439     -0.0042
     74  CE1       30.8100  -46.7580   40.9540 C.ar  439  PHE439     -0.0003
     75  CE2       32.9120  -47.0130   42.1080 C.ar  439  PHE439     -0.0003
     76  CZ        32.0160  -47.4350   41.1280 C.ar  439  PHE439     -0.0000
     77  N         31.4370  -40.3600   43.6260 N.am  440  GLY440     -0.1957
     78  CA        30.7900  -39.0940   43.9660 C.3   440  GLY440      0.1869
     79  C         30.3700  -38.9050   45.4100 C.2   440  GLY440      0.2309
     80  O         29.3220  -38.3150   45.6760 O.2   440  GLY440     -0.2863
     81  N         25.7440  -46.4780   46.6240 N.3   493  GLU493     -0.1245
     82  CA        26.3500  -45.4930   45.7250 C.3   493  GLU493      0.1567
     83  C         27.3990  -46.0890   44.7900 C.2   493  GLU493      0.2260
     84  O         27.6770  -45.5240   43.7300 O.2   493  GLU493     -0.2867
     85  CB        26.9680  -44.3440   46.5220 C.3   493  GLU493      0.0388
     86  CG        26.0050  -43.6070   47.4340 C.3   493  GLU493      0.1160
     87  CD        24.9370  -42.8570   46.6790 C.2   493  GLU493      0.3649
     88  OE1       25.2730  -42.1710   45.6910 O.co2 493  GLU493     -0.2457
     89  OE2       23.7590  -42.9500   47.0820 O.co2 493  GLU493     -0.2457
     90  N         25.5870  -48.3110   40.2990 N.3   497  PRO497     -0.2116
     91  CA        26.1560  -47.9890   38.9910 C.3   497  PRO497      0.1372
     92  C         26.5490  -49.2330   38.1940 C.2   497  PRO497      0.2244
     93  O         26.2410  -49.3280   37.0050 O.2   497  PRO497     -0.2868
     94  CB        27.3960  -47.1770   39.3530 C.3   497  PRO497      0.0268
     95  CG        27.0120  -46.4810   40.5900 C.3   497  PRO497      0.0207
     96  CD        26.1870  -47.4760   41.3590 C.3   497  PRO497      0.0892
@<TRIPOS>BOND
     1    42    43    1
     2    58    59    1
     3    60    61    2
     4    60    59    1
     5    43    44    1
     6    43    46    1
     7    59    62    1
     8    48    46    1
     9    44    45    2
    10    44    49   am
    11    93    92    2
    12    51    52    2
    13    51    50    1
    14    37    38    2
    15    37    36    1
    16    35    36    1
    17    49    50    1
    18    46    47    1
    19    62    63    1
    20    50    53    1
    21    36    39    1
    22    92    91    1
    23    64    63    1
    24    65    63    1
    25    53    54    1
    26    91    94    1
    27    91    90    1
    28    39    40    1
    29    39    41    1
    30    94    95    1
    31    90    96    1
    32    54    55    1
    33    95    96    1
    34    56    55    2
    35    74    76   ar
    36    74    72   ar
    37    76    75   ar
    38    55    57   am
    39    72    71   ar
    40    75    73   ar
    41    71    73   ar
    42    71    70    1
    43    67    66    1
    44    67    70    1
    45    67    68    1
    46    77    68   am
    47    77    78    1
    48    68    69    2
    49    84    83    2
    50     5     6    1
    51     5     2    1
    52     6     7    1
    53    78    79    1
    54     7     8    1
    55     1     2    1
    56     8     9    2
    57     2     3    1
    58     9    11    1
    59     9    10    1
    60    83    82    1
    61    34    32    1
    62    79    80    2
    63    88    87   ar
    64    82    85    1
    65    82    81    1
    66    26    24    1
    67     3     4    2
    68    33    32    1
    69    25    23    1
    70    32    31    1
    71    85    86    1
    72    87    89   ar
    73    87    86    1
    74    24    23    1
    75    23    20    1
    76    31    28    1
    77    17    16    1
    78    17    18    1
    79    28    27    1
    80    28    29    1
    81    20    21    1
    82    20    19    1
    83    16    13    1
    84    18    12    1
    85    22    21    2
    86    13    12    1
    87    13    14    1
    88    30    29    2
    89    15    14    2
