@<TRIPOS>MOLECULE
tmp/3n8xB05.pdb
 190 182 0 0 0
SMALL
GASTEIGER

@<TRIPOS>ATOM
      1  N        -24.6970  -36.3130   51.4760 N.3    59  HIS59      -0.1241
      2  CA       -25.9860  -36.5990   52.0860 C.3    59  HIS59       0.1621
      3  C        -26.3600  -35.5210   53.0880 C.2    59  HIS59       0.2264
      4  O        -27.3990  -34.8820   52.9330 O.2    59  HIS59      -0.2867
      5  CB       -25.9950  -37.9810   52.7440 C.3    59  HIS59       0.0745
      6  CG       -27.3740  -38.4790   53.0700 C.ar   59  HIS59       0.0817
      7  ND1      -28.2220  -39.0120   52.1150 N.ar   59  HIS59      -0.2268
      8  CD2      -28.0580  -38.5090   54.2410 C.ar   59  HIS59       0.1154
      9  CE1      -29.3670  -39.3460   52.6870 C.ar   59  HIS59       0.1986
     10  NE2      -29.2910  -39.0560   53.9750 N.ar   59  HIS59      -0.2212
     11  N        -29.6690  -32.8890   39.1980 N.3    82  MET82      -0.1245
     12  CA       -30.3720  -34.0520   38.7070 C.3    82  MET82       0.1570
     13  C        -29.5390  -34.7740   37.6360 C.2    82  MET82       0.2261
     14  O        -29.4110  -36.0050   37.6860 O.2    82  MET82      -0.2867
     15  CB       -31.8120  -33.7450   38.2460 C.3    82  MET82       0.0387
     16  CG       -32.6990  -35.0130   38.1690 C.3    82  MET82       0.0595
     17  SD       -32.7330  -35.8870   39.7690 S.3    82  MET82      -0.1393
     18  CE       -33.0880  -37.6160   39.4090 C.3    82  MET82       0.0692
     19  N        -26.6670  -36.6430   39.4850 N.3    85  VAL85      -0.1245
     20  CA       -27.1520  -37.8150   40.2050 C.3    85  VAL85       0.1561
     21  C        -27.3210  -38.9560   39.2110 C.2    85  VAL85       0.2260
     22  O        -26.7410  -40.0260   39.3620 O.2    85  VAL85      -0.2867
     23  CB       -28.5130  -37.5590   40.8660 C.3    85  VAL85       0.0252
     24  CG1      -28.7990  -38.6190   41.9370 C.3    85  VAL85       0.0019
     25  CG2      -28.5660  -36.1630   41.4740 C.3    85  VAL85       0.0019
     26  N        -24.3150  -41.8220   39.4840 N.3    89  ARG89      -0.1245
     27  CA       -24.9020  -43.0060   40.1010 C.3    89  ARG89       0.1563
     28  C        -24.9570  -44.1630   39.1100 C.2    89  ARG89       0.2260
     29  O        -24.5050  -45.2580   39.4000 O.2    89  ARG89      -0.2867
     30  CB       -26.3280  -42.6950   40.5770 C.3    89  ARG89       0.0307
     31  CG       -26.7090  -43.1180   42.0080 C.3    89  ARG89       0.0489
     32  CD       -26.1450  -42.1120   42.9560 C.3    89  ARG89       0.2205
     33  NE       -26.8630  -41.9220   44.2110 N.pl3  89  ARG89      -0.0865
     34  CZ       -26.3110  -42.0820   45.4140 C.cat  89  ARG89       0.5346
     35  NH1      -25.0550  -42.5040   45.5290 N.pl3  89  ARG89       0.1354
     36  NH2      -27.0130  -41.8360   46.5090 N.pl3  89  ARG89       0.1354
     37  N        -38.7590  -41.3090   59.1460 N.3   161  GLN161     -0.1245
     38  CA       -39.0430  -40.4410   57.9870 C.3   161  GLN161      0.1566
     39  C        -40.5360  -40.4040   57.6450 C.2   161  GLN161      0.2260
     40  O        -40.9300  -39.8220   56.6370 O.2   161  GLN161     -0.2867
     41  CB       -38.2600  -40.9050   56.7350 C.3   161  GLN161      0.0367
     42  CG       -36.7120  -40.9360   56.8540 C.3   161  GLN161      0.0905
     43  CD       -35.9840  -41.1220   55.5170 C.2   161  GLN161      0.2608
     44  OE1      -34.8820  -41.6720   55.4650 O.2   161  GLN161     -0.2717
     45  NE2      -36.5930  -40.6600   54.4360 N.am  161  GLN161     -0.0878
     46  N        -41.6180  -41.4160   45.0650 N.3   317  TYR317     -0.1227
     47  CA       -41.1840  -42.5860   45.8050 C.3   317  TYR317      0.1736
     48  C        -39.7470  -42.4140   46.2300 C.2   317  TYR317      0.2595
     49  O        -39.4370  -42.5570   47.4070 O.2   317  TYR317     -0.2718
     50  CB       -41.3620  -43.7660   44.9050 C.3   317  TYR317      0.0548
     51  CG       -40.9090  -45.1500   45.3130 C.ar  317  TYR317     -0.0200
     52  CD1      -41.8330  -46.1080   45.7310 C.ar  317  TYR317     -0.0009
     53  CD2      -39.5800  -45.5630   45.0940 C.ar  317  TYR317     -0.0009
     54  CE1      -41.4180  -47.4180   46.0120 C.ar  317  TYR317      0.0417
     55  CE2      -39.1520  -46.8730   45.3720 C.ar  317  TYR317      0.0417
     56  CZ       -40.0710  -47.7940   45.8300 C.ar  317  TYR317      0.1957
     57  OH       -39.6500  -49.0780   46.0990 O.3   317  TYR317     -0.2866
     58  N        -38.8640  -42.0740   45.2980 N.am  318  VAL318     -0.1980
     59  CA       -37.4750  -41.8860   45.6590 C.3   318  VAL318      0.1595
     60  C        -37.3380  -40.6280   46.5060 C.2   318  VAL318      0.2287
     61  O        -36.5230  -40.5880   47.4260 O.2   318  VAL318     -0.2864
     62  CB       -36.5100  -41.9510   44.4340 C.3   318  VAL318      0.0276
     63  CG1      -35.0340  -41.9610   44.8780 C.3   318  VAL318      0.0022
     64  CG2      -36.7670  -43.2360   43.6230 C.3   318  VAL318      0.0022
     65  N        -38.1000  -41.4790   50.1700 N.3   321  LEU321     -0.1231
     66  CA       -37.0160  -42.2980   50.6470 C.3   321  LEU321      0.1693
     67  C        -35.7650  -41.4570   50.9180 C.2   321  LEU321      0.2592
     68  O        -35.1890  -41.5350   52.0190 O.2   321  LEU321     -0.2718
     69  CB       -36.7310  -43.3280   49.5880 C.3   321  LEU321      0.0284
     70  CG       -36.5490  -44.7920   49.9700 C.3   321  LEU321      0.0019
     71  CD1      -37.5020  -45.2430   51.0800 C.3   321  LEU321      0.0001
     72  CD2      -36.7460  -45.5920   48.6970 C.3   321  LEU321      0.0001
     73  N        -35.3880  -40.6180   49.9480 N.am  322  SER322     -0.1952
     74  CA       -34.2050  -39.7460   50.0590 C.3   322  SER322      0.1924
     75  C        -34.3100  -38.6710   51.1330 C.2   322  SER322      0.2314
     76  O        -33.3170  -38.3210   51.7970 O.2   322  SER322     -0.2863
     77  CB       -33.9440  -39.0430   48.7390 C.3   322  SER322      0.2116
     78  OG       -34.6680  -37.8370   48.6790 O.3   322  SER322     -0.2180
     79  N        -34.5330  -35.7590   50.3380 N.3   324  TYR324     -0.1241
     80  CA       -33.7140  -34.6510   49.8050 C.3   324  TYR324      0.1605
     81  C        -34.5190  -33.3720   49.6580 C.2   324  TYR324      0.2264
     82  O        -35.6780  -33.4130   49.2740 O.2   324  TYR324     -0.2867
     83  CB       -33.1480  -34.9570   48.4280 C.3   324  TYR324      0.0534
     84  CG       -32.0450  -35.9760   48.3250 C.ar  324  TYR324     -0.0201
     85  CD1      -31.6670  -36.4540   47.0740 C.ar  324  TYR324     -0.0009
     86  CD2      -31.3870  -36.4740   49.4430 C.ar  324  TYR324     -0.0009
     87  CE1      -30.6710  -37.3900   46.9270 C.ar  324  TYR324      0.0417
     88  CE2      -30.3820  -37.4530   49.3100 C.ar  324  TYR324      0.0417
     89  CZ       -30.0320  -37.8950   48.0410 C.ar  324  TYR324      0.1957
     90  OH       -29.0290  -38.8260   47.8410 O.3   324  TYR324     -0.2866
     91  N        -36.4510  -33.9520   43.1560 N.3   328  LEU328     -0.1245
     92  CA       -35.9720  -34.7700   42.0760 C.3   328  LEU328      0.1561
     93  C        -36.8660  -34.5050   40.8890 C.2   328  LEU328      0.2260
     94  O        -37.9140  -33.8980   41.0510 O.2   328  LEU328     -0.2867
     95  CB       -36.0060  -36.2290   42.5110 C.3   328  LEU328      0.0270
     96  CG       -35.2080  -36.3830   43.8150 C.3   328  LEU328      0.0019
     97  CD1      -35.3740  -37.7620   44.4590 C.3   328  LEU328      0.0001
     98  CD2      -33.7210  -36.0190   43.5870 C.3   328  LEU328      0.0001
     99  N        -31.0550  -56.8130   48.1150 N.3   353  LEU353     -0.1231
    100  CA       -31.1690  -55.5270   48.8080 C.3   353  LEU353      0.1693
    101  C        -32.6090  -54.9840   48.8750 C.2   353  LEU353      0.2592
    102  O        -32.9240  -54.1310   49.7040 O.2   353  LEU353     -0.2718
    103  CB       -30.2100  -54.5410   48.1420 C.3   353  LEU353      0.0284
    104  CG       -30.4150  -53.0630   47.8200 C.3   353  LEU353      0.0019
    105  CD1      -29.1380  -52.6630   47.0940 C.3   353  LEU353      0.0001
    106  CD2      -31.6150  -52.8030   46.9160 C.3   353  LEU353      0.0001
    107  N        -33.4890  -55.4870   48.0210 N.am  354  TYR354     -0.1976
    108  CA       -34.8280  -54.9270   47.9850 C.3   354  TYR354      0.1639
    109  C        -35.8140  -55.6850   48.8640 C.2   354  TYR354      0.2290
    110  O        -36.9870  -55.2900   48.9490 O.2   354  TYR354     -0.2864
    111  CB       -35.3600  -54.8030   46.5520 C.3   354  TYR354      0.0560
    112  CG       -35.8870  -53.4140   46.2120 C.ar  354  TYR354     -0.0198
    113  CD1      -35.3580  -52.7070   45.1430 C.ar  354  TYR354     -0.0009
    114  CD2      -36.9070  -52.8090   46.9560 C.ar  354  TYR354     -0.0009
    115  CE1      -35.8210  -51.4430   44.8040 C.ar  354  TYR354      0.0417
    116  CE2      -37.3770  -51.5360   46.6260 C.ar  354  TYR354      0.0417
    117  CZ       -36.8190  -50.8620   45.5450 C.ar  354  TYR354      0.1957
    118  OH       -37.2440  -49.6020   45.1780 O.3   354  TYR354     -0.2866
    119  N        -37.3600  -55.6370   51.5180 N.3   356  TRP356     -0.1241
    120  CA       -37.6600  -54.5680   52.4900 C.3   356  TRP356      0.1605
    121  C        -38.7470  -54.9160   53.5090 C.2   356  TRP356      0.2264
    122  O        -39.4630  -54.0520   54.0340 O.2   356  TRP356     -0.2867
    123  CB       -38.0480  -53.2960   51.7490 C.3   356  TRP356      0.0550
    124  CG       -36.8830  -52.5840   51.1770 C.ar  356  TRP356      0.0003
    125  CD1      -35.5990  -53.0260   51.1450 C.ar  356  TRP356      0.0946
    126  CD2      -36.8880  -51.3110   50.5140 C.ar  356  TRP356      0.0152
    127  NE1      -34.8030  -52.1070   50.5280 N.ar  356  TRP356     -0.2442
    128  CE2      -35.5650  -51.0440   50.1270 C.ar  356  TRP356      0.0810
    129  CE3      -37.8870  -50.3760   50.2070 C.ar  356  TRP356      0.0012
    130  CZ2      -35.1970  -49.8670   49.4560 C.ar  356  TRP356      0.0191
    131  CZ3      -37.5290  -49.2060   49.5400 C.ar  356  TRP356      0.0001
    132  CH2      -36.1890  -48.9670   49.1700 C.ar  356  TRP356      0.0015
    133  N        -34.4130  -43.7990   57.1970 N.3   486  ILE486     -0.1231
    134  CA       -35.0660  -45.0880   57.0070 C.3   486  ILE486      0.1692
    135  C        -34.0410  -46.2310   56.9220 C.2   486  ILE486      0.2592
    136  O        -34.2630  -47.3240   57.4700 O.2   486  ILE486     -0.2718
    137  CB       -36.0370  -45.0720   55.8020 C.3   486  ILE486      0.0266
    138  CG1      -36.8600  -46.3600   55.7540 C.3   486  ILE486      0.0019
    139  CG2      -35.3020  -44.8860   54.5130 C.3   486  ILE486      0.0020
    140  CD1      -37.9730  -46.3480   54.7290 C.3   486  ILE486      0.0001
    141  N        -32.9100  -45.9860   56.2670 N.am  487  PHE487     -0.1976
    142  CA       -31.8290  -46.9720   56.3070 C.3   487  PHE487      0.1639
    143  C        -30.4200  -46.4070   56.1860 C.2   487  PHE487      0.2290
    144  O        -30.2350  -45.1860   56.1660 O.2   487  PHE487     -0.2864
    145  CB       -32.0380  -48.1070   55.2960 C.3   487  PHE487      0.0560
    146  CG       -32.5640  -47.6680   53.9690 C.ar  487  PHE487     -0.0200
    147  CD1      -33.7230  -48.2240   53.4690 C.ar  487  PHE487     -0.0042
    148  CD2      -31.8990  -46.7300   53.2100 C.ar  487  PHE487     -0.0042
    149  CE1      -34.2130  -47.8570   52.2430 C.ar  487  PHE487     -0.0003
    150  CE2      -32.3850  -46.3600   51.9790 C.ar  487  PHE487     -0.0003
    151  CZ       -33.5460  -46.9220   51.4990 C.ar  487  PHE487     -0.0000
    152  N        -27.2270  -49.0090   51.9240 N.3   491  MET491     -0.1230
    153  CA       -28.4730  -49.2340   51.1930 C.3   491  MET491      0.1702
    154  C        -28.6560  -48.1650   50.1340 C.2   491  MET491      0.2592
    155  O        -29.0100  -48.4970   49.0140 O.2   491  MET491     -0.2718
    156  CB       -29.6950  -49.2750   52.1070 C.3   491  MET491      0.0401
    157  CG       -30.9300  -49.8220   51.4250 C.3   491  MET491      0.0596
    158  SD       -30.9890  -51.6600   51.2990 S.3   491  MET491     -0.1393
    159  CE       -32.2530  -52.0170   52.4950 C.3   491  MET491      0.0692
    160  N        -28.4290  -46.8900   50.4880 N.am  492  ILE492     -0.1980
    161  CA       -28.5200  -45.7670   49.5290 C.3   492  ILE492      0.1595
    162  C        -27.4940  -45.9640   48.4140 C.2   492  ILE492      0.2287
    163  O        -27.8440  -46.0500   47.2410 O.2   492  ILE492     -0.2864
    164  CB       -28.1620  -44.3660   50.1490 C.3   492  ILE492      0.0276
    165  CG1      -28.5470  -44.2030   51.6400 C.3   492  ILE492      0.0022
    166  CG2      -28.6310  -43.2480   49.2470 C.3   492  ILE492      0.0022
    167  CD1      -29.9950  -44.1730   51.9490 C.3   492  ILE492      0.0001
    168  N        -28.1230  -49.3380   46.5230 N.3   495  GLY495     -0.1210
    169  CA       -29.4240  -49.4480   45.9190 C.3   495  GLY495      0.1956
    170  C        -29.6470  -48.4000   44.8570 C.2   495  GLY495      0.2611
    171  O        -30.0580  -48.7400   43.7300 O.2   495  GLY495     -0.2717
    172  N        -29.3580  -47.1340   45.1920 N.am  496  ALA496     -0.1979
    173  CA       -29.6260  -46.0110   44.2870 C.3   496  ALA496      0.1597
    174  C        -29.1730  -46.2480   42.8560 C.2   496  ALA496      0.2287
    175  O        -29.9880  -46.0380   41.9520 O.2   496  ALA496     -0.2864
    176  CB       -29.0800  -44.7360   44.8140 C.3   496  ALA496      0.0319
    177  N        -31.2440  -48.7220   41.3150 N.3   499  SER499     -0.1202
    178  CA       -32.5520  -48.0870   41.2100 C.3   499  SER499      0.2020
    179  C        -32.6560  -47.1420   39.9860 C.2   499  SER499      0.2618
    180  O        -33.5600  -47.2950   39.1800 O.2   499  SER499     -0.2717
    181  CB       -32.8900  -47.3380   42.5080 C.3   499  SER499      0.2103
    182  OG       -34.1770  -46.7480   42.4310 O.3   499  SER499     -0.2182
    183  N        -31.7290  -46.1920   39.8390 N.am  500  LEU500     -0.1979
    184  CA       -31.8380  -45.2140   38.7660 C.3   500  LEU500      0.1596
    185  C        -31.6130  -45.8070   37.4050 C.2   500  LEU500      0.2287
    186  O        -32.3050  -45.4290   36.4450 O.2   500  LEU500     -0.2864
    187  CB       -30.9050  -44.0230   38.9770 C.3   500  LEU500      0.0297
    188  CG       -31.3190  -43.0590   40.0960 C.3   500  LEU500      0.0022
    189  CD1      -30.4390  -41.8450   40.0910 C.3   500  LEU500      0.0001
    190  CD2      -32.8110  -42.6720   39.9470 C.3   500  LEU500      0.0001
@<TRIPOS>BOND
     1   186   185    2
     2   185   184    1
     3    13    14    2
     4    13    12    1
     5    16    15    1
     6    16    17    1
     7    15    12    1
     8    12    11    1
     9   184   187    1
    10   184   183    1
    11   187   188    1
    12    28    29    2
    13    28    27    1
    14   180   179    2
    15    21    22    2
    16    21    20    1
    17    18    17    1
    18    26    27    1
    19    19    20    1
    20   183   179   am
    21   190   188    1
    22   179   178    1
    23   189   188    1
    24    27    30    1
    25    20    23    1
    26    30    31    1
    27    23    25    1
    28    23    24    1
    29    93    94    2
    30    93    92    1
    31   178   177    1
    32   178   181    1
    33   175   174    2
    34    31    32    1
    35    92    95    1
    36    92    91    1
    37   182   181    1
    38    95    96    1
    39   174   173    1
    40    32    33    1
    41    98    96    1
    42    64    62    1
    43   171   170    2
    44    96    97    1
    45    33    34    2
    46   173   176    1
    47   173   172    1
    48    62    63    1
    49    62    59    1
    50   115   113   ar
    51   115   117   ar
    52   170   172   am
    53   170   169    1
    54    50    51    1
    55    50    47    1
    56    46    47    1
    57    53    51   ar
    58    53    55   ar
    59   113   112   ar
    60   118   117    1
    61    58    59    1
    62    58    48   am
    63    51    52   ar
    64    55    56   ar
    65    34    35    1
    66    34    36    1
    67   117   116   ar
    68    59    60    1
    69    52    54   ar
    70    47    48    1
    71    56    54   ar
    72    56    57    1
    73   169   168    1
    74   112   111    1
    75   112   114   ar
    76    48    49    2
    77    60    61    2
    78   111   108    1
    79   116   114   ar
    80   106   104    1
    81    87    85   ar
    82    87    89   ar
    83    85    84   ar
    84   105   104    1
    85   163   162    2
    86   104   103    1
    87    90    89    1
    88   108   107    1
    89   108   109    1
    90   107   101   am
    91    89    88   ar
    92    99   100    1
    93   103   100    1
    94    84    83    1
    95    84    86   ar
    96   162   161    1
    97    83    80    1
    98    78    77    1
    99    72    70    1
   100    77    74    1
   101   100   101    1
   102   109   110    2
   103   101   102    2
   104   155   154    2
   105   132   130   ar
   106   132   131   ar
   107   166   164    1
   108    82    81    2
   109    88    86   ar
   110   130   128   ar
   111   161   164    1
   112   161   160    1
   113   131   129   ar
   114    69    70    1
   115    69    66    1
   116    81    80    1
   117    80    79    1
   118    73    74    1
   119    73    67   am
   120    70    71    1
   121    74    75    1
   122   128   126   ar
   123   128   127   ar
   124   154   160   am
   125   154   153    1
   126   164   165    1
   127    65    66    1
   128   129   126   ar
   129   126   124   ar
   130   127   125   ar
   131    66    67    1
   132    67    68    2
   133    75    76    2
   134   125   124   ar
   135   124   123    1
   136   153   152    1
   137   153   156    1
   138   158   157    1
   139   158   159    1
   140   157   156    1
   141     1     2    1
   142   151   150   ar
   143   151   149   ar
   144   119   120    1
   145   165   167    1
   146   123   120    1
   147   150   148   ar
   148     2     5    1
   149     2     3    1
   150     7     9   ar
   151     7     6   ar
   152   149   147   ar
   153   120   121    1
   154     9    10   ar
   155     5     6    1
   156     4     3    2
   157     6     8   ar
   158   148   146   ar
   159   147   146   ar
   160   121   122    2
   161   146   145    1
   162    10     8   ar
   163    45    43   am
   164   139   137    1
   165   140   138    1
   166   145   142    1
   167    44    43    2
   168    43    42    1
   169   138   137    1
   170   137   134    1
   171   144   143    2
   172   143   142    1
   173   141   142    1
   174   141   135   am
   175    40    39    2
   176    41    42    1
   177    41    38    1
   178   135   134    1
   179   135   136    2
   180   134   133    1
   181    39    38    1
   182    38    37    1
