@<TRIPOS>MOLECULE
tmp/3n8yB03.pdb
 88 85 0 0 0
SMALL
GASTEIGER

@<TRIPOS>ATOM
      1  N          9.1470  -78.0290   55.4110 N.3   368  PRO368     -0.2102
      2  CA         9.4070  -78.3950   56.8070 C.3   368  PRO368      0.1504
      3  C         10.8830  -78.6980   57.0860 C.2   368  PRO368      0.2575
      4  O         11.2920  -78.7460   58.2480 O.2   368  PRO368     -0.2718
      5  CB         8.5620  -79.6590   56.9990 C.3   368  PRO368      0.0282
      6  CG         8.4260  -80.2340   55.6350 C.3   368  PRO368      0.0208
      7  CD         8.3450  -79.0550   54.7160 C.3   368  PRO368      0.0893
      8  N         11.6640  -78.8940   56.0250 N.am  369  GLN369     -0.1980
      9  CA        13.0840  -79.2250   56.1400 C.3   369  GLN369      0.1601
     10  C         13.9870  -77.9940   56.0980 C.2   369  GLN369      0.2287
     11  O         13.6280  -76.9650   55.5200 O.2   369  GLN369     -0.2864
     12  CB        13.4930  -80.2040   55.0340 C.3   369  GLN369      0.0394
     13  CG        13.1350  -81.6610   55.3090 C.3   369  GLN369      0.0908
     14  CD        13.9990  -82.2950   56.3910 C.2   369  GLN369      0.2608
     15  OE1       13.4900  -82.9730   57.2840 O.2   369  GLN369     -0.2717
     16  NE2       15.3100  -82.0770   56.3160 N.am  369  GLN369     -0.0878
     17  N         17.8950  -77.4670   54.9890 N.3   371  TYR371     -0.1241
     18  CA        19.0860  -78.0910   54.4100 C.3   371  TYR371      0.1605
     19  C         20.3500  -77.2540   54.5860 C.2   371  TYR371      0.2264
     20  O         20.3830  -76.0730   54.2370 O.2   371  TYR371     -0.2867
     21  CB        18.8620  -78.4260   52.9300 C.3   371  TYR371      0.0534
     22  CG        17.8840  -79.5580   52.7060 C.ar  371  TYR371     -0.0201
     23  CD1       18.2640  -80.8850   52.9110 C.ar  371  TYR371     -0.0009
     24  CD2       16.5770  -79.3030   52.2910 C.ar  371  TYR371     -0.0009
     25  CE1       17.3680  -81.9300   52.7090 C.ar  371  TYR371      0.0417
     26  CE2       15.6730  -80.3410   52.0840 C.ar  371  TYR371      0.0417
     27  CZ        16.0760  -81.6500   52.2960 C.ar  371  TYR371      0.1957
     28  OH        15.1880  -82.6820   52.0960 O.3   371  TYR371     -0.2866
     29  N         26.3000  -78.4400   53.1550 N.3   374  GLU374     -0.1231
     30  CA        26.7960  -79.7600   52.7720 C.3   374  GLU374      0.1699
     31  C         25.6850  -80.6740   52.2430 C.2   374  GLU374      0.2592
     32  O         25.9600  -81.6450   51.5340 O.2   374  GLU374     -0.2718
     33  CB        27.5490  -80.4210   53.9380 C.3   374  GLU374      0.0402
     34  CG        27.1190  -79.9670   55.3430 C.3   374  GLU374      0.1161
     35  CD        27.6300  -78.5730   55.7110 C.2   374  GLU374      0.3649
     36  OE1       26.8660  -77.8060   56.3360 O.co2 374  GLU374     -0.2457
     37  OE2       28.7870  -78.2400   55.3710 O.co2 374  GLU374     -0.2457
     38  N         24.4390  -80.3550   52.5910 N.am  375  GLN375     -0.1979
     39  CA        23.2680  -81.0610   52.0690 C.3   375  GLN375      0.1601
     40  C         22.7770  -80.4500   50.7540 C.2   375  GLN375      0.2287
     41  O         22.1770  -81.1410   49.9260 O.2   375  GLN375     -0.2864
     42  CB        22.1310  -81.0510   53.0950 C.3   375  GLN375      0.0394
     43  CG        22.3490  -81.9610   54.2970 C.3   375  GLN375      0.0908
     44  CD        21.3010  -81.7680   55.3810 C.2   375  GLN375      0.2608
     45  OE1       21.0070  -80.6430   55.7890 O.2   375  GLN375     -0.2717
     46  NE2       20.7400  -82.8720   55.8620 N.am  375  GLN375     -0.0878
     47  N         24.3590  -81.2520   45.2170 N.3   379  ASN379     -0.1240
     48  CA        23.2520  -82.1990   45.2980 C.3   379  ASN379      0.1653
     49  C         22.6120  -82.3750   43.9250 C.2   379  ASN379      0.2266
     50  O         22.0900  -81.4190   43.3450 O.2   379  ASN379     -0.2867
     51  CB        22.2190  -81.7290   46.3310 C.3   379  ASN379      0.1155
     52  CG        21.2340  -82.8220   46.7340 C.2   379  ASN379      0.2627
     53  OD1       20.7250  -83.5690   45.8920 O.2   379  ASN379     -0.2716
     54  ND2       20.9550  -82.9080   48.0370 N.am  379  ASN379     -0.0877
     55  N         20.1510  -84.5820   43.2350 N.3   381  SER381     -0.1202
     56  CA        18.8410  -85.2180   43.3690 C.3   381  SER381      0.2020
     57  C         17.7190  -84.2560   43.7590 C.2   381  SER381      0.2618
     58  O         16.5740  -84.4400   43.3380 O.2   381  SER381     -0.2717
     59  CB        18.9120  -86.3800   44.3640 C.3   381  SER381      0.2103
     60  OG        19.3240  -85.9320   45.6430 O.3   381  SER381     -0.2182
     61  N         18.0540  -83.2340   44.5480 N.am  382  MET382     -0.1979
     62  CA        17.0660  -82.2960   45.1030 C.3   382  MET382      0.1605
     63  C         16.0970  -81.7110   44.0690 C.2   382  MET382      0.2287
     64  O         14.8920  -81.6380   44.3250 O.2   382  MET382     -0.2864
     65  CB        17.7550  -81.1680   45.8840 C.3   382  MET382      0.0413
     66  CG        16.7920  -80.2830   46.6770 C.3   382  MET382      0.0598
     67  SD        17.5900  -78.9760   47.6330 S.3   382  MET382     -0.1393
     68  CE        18.2450  -79.9120   49.0180 C.3   382  MET382      0.0692
     69  N         13.7460  -84.4260   43.1220 N.3   385  ASP385     -0.1225
     70  CA        13.0090  -84.8240   44.3250 C.3   385  ASP385      0.1805
     71  C         11.8050  -83.9290   44.6390 C.2   385  ASP385      0.2597
     72  O         10.6910  -84.4250   44.8170 O.2   385  ASP385     -0.2718
     73  CB        13.9490  -84.8920   45.5360 C.3   385  ASP385      0.1424
     74  CG        14.9130  -86.0700   45.4740 C.2   385  ASP385      0.3668
     75  OD1       14.5440  -87.1350   44.9300 O.co2 385  ASP385     -0.2456
     76  OD2       16.0440  -85.9310   45.9850 O.co2 385  ASP385     -0.2456
     77  N         12.0350  -82.6180   44.7020 N.am  386  TYR386     -0.1976
     78  CA        10.9760  -81.6570   45.0220 C.3   386  TYR386      0.1639
     79  C         10.2380  -81.1460   43.7850 C.2   386  TYR386      0.2290
     80  O          9.0190  -80.9630   43.8160 O.2   386  TYR386     -0.2864
     81  CB        11.5340  -80.4770   45.8250 C.3   386  TYR386      0.0560
     82  CG        11.8690  -80.8090   47.2630 C.ar  386  TYR386     -0.0198
     83  CD1       13.1920  -80.9580   47.6720 C.ar  386  TYR386     -0.0009
     84  CD2       10.8610  -80.9730   48.2170 C.ar  386  TYR386     -0.0009
     85  CE1       13.5080  -81.2610   48.9940 C.ar  386  TYR386      0.0417
     86  CE2       11.1660  -81.2790   49.5410 C.ar  386  TYR386      0.0417
     87  CZ        12.4910  -81.4210   49.9210 C.ar  386  TYR386      0.1957
     88  OH        12.8030  -81.7210   51.2280 O.3   386  TYR386     -0.2866
@<TRIPOS>BOND
     1    69    70    1
     2    55    56    1
     3    58    57    2
     4    50    49    2
     5    56    57    1
     6    56    59    1
     7    57    61   am
     8    79    80    2
     9    79    78    1
    10    49    48    1
    11    63    64    2
    12    63    62    1
    13    70    71    1
    14    70    73    1
    15    59    60    1
    16    61    62    1
    17    71    77   am
    18    71    72    2
    19    77    78    1
    20    75    74   ar
    21    78    81    1
    22    62    65    1
    23    47    48    1
    24    48    51    1
    25    74    73    1
    26    74    76   ar
    27    81    82    1
    28    65    66    1
    29    53    52    2
    30    51    52    1
    31    66    67    1
    32    52    54   am
    33    82    83   ar
    34    82    84   ar
    35    67    68    1
    36    83    85   ar
    37    84    86   ar
    38    85    87   ar
    39    86    87   ar
    40    87    88    1
    41    41    40    2
    42    40    39    1
    43    32    31    2
    44    39    38    1
    45    39    42    1
    46    26    24   ar
    47    26    27   ar
    48    28    27    1
    49    31    38   am
    50    31    30    1
    51    24    22   ar
    52    27    25   ar
    53    22    23   ar
    54    22    21    1
    55    25    23   ar
    56    30    29    1
    57    30    33    1
    58    21    18    1
    59    42    43    1
    60    33    34    1
    61    20    19    2
    62    43    44    1
    63    18    19    1
    64    18    17    1
    65     7     1    1
    66     7     6    1
    67    12    13    1
    68    12     9    1
    69    13    14    1
    70    34    35    1
    71    37    35   ar
    72    44    45    2
    73    44    46   am
    74     1     2    1
    75    11    10    2
    76     6     5    1
    77    35    36   ar
    78     8     9    1
    79     8     3   am
    80    10     9    1
    81    16    14   am
    82    14    15    2
    83     2     5    1
    84     2     3    1
    85     3     4    2
