@<TRIPOS>MOLECULE
tmp/3n8yB06.pdb
 194 186 0 0 0
SMALL
GASTEIGER

@<TRIPOS>ATOM
      1  N         17.3340  -41.9980   32.6230 N.3    85  VAL85      -0.1245
      2  CA        18.0280  -43.0380   33.3870 C.3    85  VAL85       0.1561
      3  C         18.9310  -43.8750   32.4740 C.2    85  VAL85       0.2260
      4  O         20.0850  -44.1430   32.8170 O.2    85  VAL85      -0.2867
      5  CB        17.0280  -43.9370   34.1740 C.3    85  VAL85       0.0252
      6  CG1       17.6650  -45.2610   34.5940 C.3    85  VAL85       0.0019
      7  CG2       16.4960  -43.1990   35.3920 C.3    85  VAL85       0.0019
      8  N         23.2110  -42.8130   32.6210 N.3    89  ARG89      -0.1245
      9  CA        23.9750  -43.9310   33.1830 C.3    89  ARG89       0.1563
     10  C         24.9440  -44.5650   32.1840 C.2    89  ARG89       0.2260
     11  O         26.1460  -44.6410   32.4460 O.2    89  ARG89      -0.2867
     12  CB        23.0370  -45.0080   33.7390 C.3    89  ARG89       0.0307
     13  CG        22.9550  -45.0880   35.2610 C.3    89  ARG89       0.0489
     14  CD        22.1470  -43.9510   35.8600 C.3    89  ARG89       0.2205
     15  NE        21.7140  -44.2360   37.2280 N.pl3  89  ARG89      -0.0865
     16  CZ        22.4440  -44.0190   38.3200 C.cat  89  ARG89       0.5346
     17  NH1       23.6700  -43.5180   38.2270 N.pl3  89  ARG89       0.1354
     18  NH2       21.9460  -44.3100   39.5140 N.pl3  89  ARG89       0.1354
     19  N         21.7510  -65.4450   35.9170 N.3   174  PHE174     -0.1241
     20  CA        21.7960  -64.3980   34.8970 C.3   174  PHE174      0.1605
     21  C         23.2060  -63.8590   34.6370 C.2   174  PHE174      0.2264
     22  O         23.5510  -63.5600   33.4950 O.2   174  PHE174     -0.2867
     23  CB        20.8270  -63.2600   35.2630 C.3   174  PHE174      0.0534
     24  CG        20.9560  -62.0350   34.4000 C.ar  174  PHE174     -0.0203
     25  CD1       20.6130  -62.0720   33.0520 C.ar  174  PHE174     -0.0042
     26  CD2       21.4080  -60.8360   34.9420 C.ar  174  PHE174     -0.0042
     27  CE1       20.7340  -60.9380   32.2520 C.ar  174  PHE174     -0.0003
     28  CE2       21.5290  -59.6950   34.1530 C.ar  174  PHE174     -0.0003
     29  CZ        21.1910  -59.7470   32.8050 C.ar  174  PHE174     -0.0000
     30  N         14.6000  -58.6810   33.8040 N.3   313  VAL313     -0.1231
     31  CA        15.7480  -58.0700   34.4840 C.3   313  VAL313      0.1692
     32  C         15.4860  -56.6020   34.8370 C.2   313  VAL313      0.2591
     33  O         15.6910  -56.1890   35.9760 O.2   313  VAL313     -0.2718
     34  CB        17.0640  -58.2250   33.6640 C.3   313  VAL313      0.0266
     35  CG1       18.1750  -57.3310   34.2150 C.3   313  VAL313      0.0020
     36  CG2       17.5180  -59.6820   33.6500 C.3   313  VAL313      0.0020
     37  N         15.0140  -55.8270   33.8650 N.am  314  ILE314     -0.1980
     38  CA        14.7750  -54.3960   34.0660 C.3   314  ILE314      0.1595
     39  C         13.5360  -54.1210   34.9230 C.2   314  ILE314      0.2287
     40  O         13.6060  -53.3700   35.8970 O.2   314  ILE314     -0.2864
     41  CB        14.6860  -53.6350   32.7130 C.3   314  ILE314      0.0276
     42  CG1       16.0600  -53.5930   32.0390 C.3   314  ILE314      0.0022
     43  CG2       14.1380  -52.2140   32.9070 C.3   314  ILE314      0.0022
     44  CD1       16.0240  -53.1770   30.5870 C.3   314  ILE314      0.0001
     45  N         13.6460  -57.4590   38.3030 N.3   317  TYR317     -0.1227
     46  CA        14.9300  -57.7090   38.9570 C.3   317  TYR317      0.1736
     47  C         15.5550  -56.4080   39.4640 C.2   317  TYR317      0.2595
     48  O         15.9830  -56.3270   40.6170 O.2   317  TYR317     -0.2718
     49  CB        15.8590  -58.4530   37.9890 C.3   317  TYR317      0.0548
     50  CG        17.2730  -58.6970   38.4680 C.ar  317  TYR317     -0.0200
     51  CD1       17.6050  -59.8620   39.1570 C.ar  317  TYR317     -0.0009
     52  CD2       18.2900  -57.7790   38.1970 C.ar  317  TYR317     -0.0009
     53  CE1       18.9090  -60.0960   39.5850 C.ar  317  TYR317      0.0417
     54  CE2       19.5940  -58.0020   38.6220 C.ar  317  TYR317      0.0417
     55  CZ        19.8970  -59.1610   39.3150 C.ar  317  TYR317      0.1957
     56  OH        21.1870  -59.3830   39.7350 O.3   317  TYR317     -0.2866
     57  N         15.5890  -55.3920   38.6060 N.am  318  VAL318     -0.1980
     58  CA        16.1120  -54.0760   38.9790 C.3   318  VAL318      0.1595
     59  C         15.1140  -53.3250   39.8670 C.2   318  VAL318      0.2287
     60  O         15.5100  -52.5380   40.7320 O.2   318  VAL318     -0.2864
     61  CB        16.4950  -53.2380   37.7290 C.3   318  VAL318      0.0276
     62  CG1       16.8490  -51.8150   38.1090 C.3   318  VAL318      0.0022
     63  CG2       17.6640  -53.8830   36.9920 C.3   318  VAL318      0.0022
     64  N         15.6830  -54.5970   43.3740 N.3   321  LEU321     -0.1231
     65  CA        17.0260  -54.2490   43.8340 C.3   321  LEU321      0.1693
     66  C         17.1750  -52.7650   44.1680 C.2   321  LEU321      0.2592
     67  O         17.6430  -52.4140   45.2520 O.2   321  LEU321     -0.2718
     68  CB        18.0680  -54.6720   42.7910 C.3   321  LEU321      0.0284
     69  CG        19.5570  -54.6010   43.1460 C.3   321  LEU321      0.0019
     70  CD1       19.9490  -55.6640   44.1660 C.3   321  LEU321      0.0001
     71  CD2       20.3800  -54.7540   41.8870 C.3   321  LEU321      0.0001
     72  N         16.7760  -51.9040   43.2360 N.am  322  SER322     -0.1952
     73  CA        16.9020  -50.4590   43.4120 C.3   322  SER322      0.1924
     74  C         15.8920  -49.9090   44.4160 C.2   322  SER322      0.2314
     75  O         16.1650  -48.9240   45.1080 O.2   322  SER322     -0.2863
     76  CB        16.7390  -49.7480   42.0710 C.3   322  SER322      0.2116
     77  OG        15.4520  -49.9850   41.5300 O.3   322  SER322     -0.2180
     78  N         13.1630  -48.5070   43.6340 N.3   324  TYR324     -0.1241
     79  CA        12.6200  -47.2810   43.0590 C.3   324  TYR324      0.1605
     80  C         11.0990  -47.2880   43.0520 C.2   324  TYR324      0.2264
     81  O         10.4680  -48.3170   42.7990 O.2   324  TYR324     -0.2867
     82  CB        13.1300  -47.0650   41.6280 C.3   324  TYR324      0.0534
     83  CG        14.5980  -46.7070   41.4940 C.ar  324  TYR324     -0.0201
     84  CD1       15.2780  -46.9440   40.2990 C.ar  324  TYR324     -0.0009
     85  CD2       15.3080  -46.1330   42.5500 C.ar  324  TYR324     -0.0009
     86  CE1       16.6230  -46.6150   40.1560 C.ar  324  TYR324      0.0417
     87  CE2       16.6560  -45.8030   42.4180 C.ar  324  TYR324      0.0417
     88  CZ        17.3050  -46.0480   41.2180 C.ar  324  TYR324      0.1957
     89  OH        18.6360  -45.7260   41.0800 O.3   324  TYR324     -0.2866
     90  N          9.8890  -49.1010   36.4340 N.3   328  LEU328     -0.1245
     91  CA        10.8420  -49.2770   35.3430 C.3   328  LEU328      0.1561
     92  C         10.1900  -49.9170   34.1230 C.2   328  LEU328      0.2260
     93  O          9.2350  -50.6860   34.2500 O.2   328  LEU328     -0.2867
     94  CB        12.0580  -50.0820   35.8100 C.3   328  LEU328      0.0270
     95  CG        12.8980  -49.4280   36.9140 C.3   328  LEU328      0.0019
     96  CD1       13.6070  -50.4860   37.7280 C.3   328  LEU328      0.0001
     97  CD2       13.8930  -48.4150   36.3590 C.3   328  LEU328      0.0001
     98  N         32.9620  -54.7590   36.8070 N.3   350  PHE350     -0.1241
     99  CA        31.5900  -55.2410   36.8840 C.3   350  PHE350      0.1605
    100  C         31.5590  -56.6760   37.4040 C.2   350  PHE350      0.2264
    101  O         30.6210  -57.0670   38.1020 O.2   350  PHE350     -0.2867
    102  CB        30.9140  -55.1400   35.5150 C.3   350  PHE350      0.0534
    103  CG        29.4130  -55.2530   35.5590 C.ar  350  PHE350     -0.0203
    104  CD1       28.6850  -54.7300   36.6260 C.ar  350  PHE350     -0.0042
    105  CD2       28.7240  -55.8580   34.5120 C.ar  350  PHE350     -0.0042
    106  CE1       27.2940  -54.8240   36.6530 C.ar  350  PHE350     -0.0003
    107  CE2       27.3340  -55.9560   34.5300 C.ar  350  PHE350     -0.0003
    108  CZ        26.6190  -55.4370   35.6000 C.ar  350  PHE350     -0.0000
    109  N         32.3770  -56.2470   41.1360 N.3   353  LEU353     -0.1231
    110  CA        31.2170  -55.6080   41.7540 C.3   353  LEU353      0.1693
    111  C         30.0550  -56.5750   41.9930 C.2   353  LEU353      0.2592
    112  O         29.3230  -56.4400   42.9780 O.2   353  LEU353     -0.2718
    113  CB        30.7740  -54.4310   40.8750 C.3   353  LEU353      0.0284
    114  CG        29.5470  -53.5600   41.1470 C.3   353  LEU353      0.0019
    115  CD1       29.8030  -52.1520   40.6310 C.3   353  LEU353      0.0001
    116  CD2       28.2810  -54.1430   40.5150 C.3   353  LEU353      0.0001
    117  N         29.8970  -57.5480   41.0980 N.am  354  TYR354     -0.1976
    118  CA        28.7310  -58.4360   41.1140 C.3   354  TYR354      0.1639
    119  C         28.9140  -59.6810   41.9900 C.2   354  TYR354      0.2290
    120  O         28.0930  -60.6020   41.9510 O.2   354  TYR354     -0.2864
    121  CB        28.3560  -58.8480   39.6860 C.3   354  TYR354      0.0560
    122  CG        26.8990  -58.6330   39.3370 C.ar  354  TYR354     -0.0198
    123  CD1       26.5400  -57.8660   38.2300 C.ar  354  TYR354     -0.0009
    124  CD2       25.8800  -59.1870   40.1130 C.ar  354  TYR354     -0.0009
    125  CE1       25.2080  -57.6610   37.8980 C.ar  354  TYR354      0.0417
    126  CE2       24.5430  -58.9870   39.7890 C.ar  354  TYR354      0.0417
    127  CZ        24.2160  -58.2230   38.6800 C.ar  354  TYR354      0.1957
    128  OH        22.8970  -58.0210   38.3520 O.3   354  TYR354     -0.2866
    129  N         28.0490  -60.8690   44.8170 N.3   356  TRP356     -0.1241
    130  CA        27.0940  -60.6990   45.9110 C.3   356  TRP356      0.1605
    131  C         26.8540  -62.0110   46.6500 C.2   356  TRP356      0.2264
    132  O         25.7260  -62.5060   46.7280 O.2   356  TRP356     -0.2867
    133  CB        25.7660  -60.1240   45.4080 C.3   356  TRP356      0.0550
    134  CG        25.8630  -58.8360   44.6420 C.ar  356  TRP356      0.0003
    135  CD1       26.9130  -57.9590   44.6200 C.ar  356  TRP356      0.0946
    136  CD2       24.8440  -58.2600   43.8170 C.ar  356  TRP356      0.0152
    137  NE1       26.6170  -56.8870   43.8150 N.ar  356  TRP356     -0.2442
    138  CE2       25.3530  -57.0440   43.3130 C.ar  356  TRP356      0.0810
    139  CE3       23.5520  -58.6590   43.4490 C.ar  356  TRP356      0.0012
    140  CZ2       24.6150  -56.2230   42.4580 C.ar  356  TRP356      0.0191
    141  CZ3       22.8190  -57.8420   42.6010 C.ar  356  TRP356      0.0001
    142  CH2       23.3540  -56.6380   42.1150 C.ar  356  TRP356      0.0015
    143  N         22.4510  -52.3170   49.8320 N.3   487  PHE487     -0.1241
    144  CA        23.8820  -52.0030   49.8810 C.3   487  PHE487      0.1605
    145  C         24.1550  -50.4980   49.9520 C.2   487  PHE487      0.2264
    146  O         23.2310  -49.7000   50.1360 O.2   487  PHE487     -0.2867
    147  CB        24.6600  -52.6570   48.7200 C.3   487  PHE487      0.0534
    148  CG        23.8810  -52.7850   47.4290 C.ar  487  PHE487     -0.0203
    149  CD1       23.7650  -54.0240   46.8020 C.ar  487  PHE487     -0.0042
    150  CD2       23.2830  -51.6780   46.8300 C.ar  487  PHE487     -0.0042
    151  CE1       23.0600  -54.1600   45.6060 C.ar  487  PHE487     -0.0003
    152  CE2       22.5750  -51.8070   45.6370 C.ar  487  PHE487     -0.0003
    153  CZ        22.4650  -53.0480   45.0240 C.ar  487  PHE487     -0.0000
    154  N         27.4050  -48.8220   45.0080 N.3   491  MET491     -0.1230
    155  CA        26.9760  -49.9770   44.2160 C.3   491  MET491      0.1702
    156  C         26.0320  -49.5800   43.0810 C.2   491  MET491      0.2592
    157  O         26.2180  -50.0060   41.9420 O.2   491  MET491     -0.2718
    158  CB        26.3210  -51.0300   45.1140 C.3   491  MET491      0.0401
    159  CG        26.0260  -52.3580   44.4250 C.3   491  MET491      0.0596
    160  SD        27.4900  -53.3660   44.1270 S.3   491  MET491     -0.1393
    161  CE        27.8710  -53.9420   45.7820 C.3   491  MET491      0.0692
    162  N         25.0310  -48.7610   43.4010 N.am  492  ILE492     -0.1980
    163  CA        24.0790  -48.2520   42.4120 C.3   492  ILE492      0.1595
    164  C         24.7910  -47.3950   41.3640 C.2   492  ILE492      0.2287
    165  O         24.6220  -47.6080   40.1640 O.2   492  ILE492     -0.2864
    166  CB        22.9470  -47.4140   43.0790 C.3   492  ILE492      0.0276
    167  CG1       22.1920  -48.2320   44.1410 C.3   492  ILE492      0.0022
    168  CG2       21.9980  -46.8220   42.0250 C.3   492  ILE492      0.0022
    169  CD1       21.1720  -49.2250   43.5980 C.3   492  ILE492      0.0001
    170  N         27.4100  -49.7060   39.4800 N.3   495  GLY495     -0.1210
    171  CA        26.8260  -50.8860   38.8390 C.3   495  GLY495      0.1956
    172  C         25.8240  -50.6170   37.7330 C.2   495  GLY495      0.2611
    173  O         25.8740  -51.2580   36.6810 O.2   495  GLY495     -0.2717
    174  N         24.9090  -49.6770   37.9710 N.am  496  ALA496     -0.1979
    175  CA        23.8560  -49.3380   37.0040 C.3   496  ALA496      0.1597
    176  C         24.3720  -49.0150   35.5920 C.2   496  ALA496      0.2287
    177  O         23.8610  -49.5770   34.6210 O.2   496  ALA496     -0.2864
    178  CB        22.9640  -48.2150   37.5350 C.3   496  ALA496      0.0319
    179  N         22.7960  -51.6170   32.4170 N.3   499  LEU499     -0.1245
    180  CA        21.9360  -50.8710   31.4470 C.3   499  LEU499      0.1561
    181  C         22.5770  -50.8230   30.0620 C.2   499  LEU499      0.2260
    182  O         21.8860  -50.9460   29.0480 O.2   499  LEU499     -0.2867
    183  CB        21.6280  -49.4600   31.9590 C.3   499  LEU499      0.0270
    184  CG        20.7320  -49.3600   33.2000 C.3   499  LEU499      0.0019
    185  CD1       20.8750  -47.9990   33.8530 C.3   499  LEU499      0.0001
    186  CD2       19.2700  -49.6490   32.8720 C.3   499  LEU499      0.0001
    187  N         22.2230  -54.4500   29.0250 N.3   502  LEU502     -0.1245
    188  CA        20.8380  -54.7550   28.6580 C.3   502  LEU502      0.1561
    189  C         20.4120  -54.0900   27.3480 C.2   502  LEU502      0.2260
    190  O         20.0130  -54.7750   26.4050 O.2   502  LEU502     -0.2867
    191  CB        19.8640  -54.3730   29.7840 C.3   502  LEU502      0.0270
    192  CG        19.6090  -55.2820   30.9990 C.3   502  LEU502      0.0019
    193  CD1       19.5940  -56.7660   30.6370 C.3   502  LEU502      0.0001
    194  CD2       20.6020  -55.0330   32.1140 C.3   502  LEU502      0.0001
@<TRIPOS>BOND
     1   190   189    2
     2   189   188    1
     3   188   187    1
     4   188   191    1
     5   182   181    2
     6   191   192    1
     7   181   180    1
     8    44    42    1
     9   193   192    1
    10   192   194    1
    11   180   183    1
    12   180   179    1
    13   183   184    1
    14    42    41    1
    15    10    11    2
    16    10     9    1
    17    27    29   ar
    18    27    25   ar
    19     3     4    2
    20     3     2    1
    21     8     9    1
    22     1     2    1
    23    41    43    1
    24    41    38    1
    25    29    28   ar
    26   186   184    1
    27    25    24   ar
    28     9    12    1
    29   184   185    1
    30     2     5    1
    31    22    21    2
    32    36    34    1
    33    34    35    1
    34    34    31    1
    35    12    13    1
    36    30    31    1
    37    37    38    1
    38    37    32   am
    39    38    39    1
    40    92    93    2
    41    92    91    1
    42    28    26   ar
    43     5     6    1
    44     5     7    1
    45    24    26   ar
    46    24    23    1
    47    31    32    1
    48   105   107   ar
    49   105   103   ar
    50   107   108   ar
    51   177   176    2
    52    21    20    1
    53    32    33    2
    54    20    23    1
    55    20    19    1
    56    39    40    2
    57    13    14    1
    58    91    94    1
    59    91    90    1
    60   102   103    1
    61   102    99    1
    62   103   104   ar
    63   176   175    1
    64   108   106   ar
    65    94    95    1
    66    14    15    1
    67    97    95    1
    68   104   106   ar
    69   173   172    2
    70    98    99    1
    71    99   100    1
    72    95    96    1
    73    63    61    1
    74   175   178    1
    75   175   174    1
    76    15    16    2
    77   100   101    2
    78    61    62    1
    79    61    58    1
    80   172   174   am
    81   172   171    1
    82   125   123   ar
    83   125   127   ar
    84    49    50    1
    85    49    46    1
    86    52    50   ar
    87    52    54   ar
    88    17    16    1
    89   123   122   ar
    90    45    46    1
    91    16    18    1
    92   128   127    1
    93    50    51   ar
    94    57    58    1
    95    57    47   am
    96    54    55   ar
    97   127   126   ar
    98   171   170    1
    99    46    47    1
   100    58    59    1
   101    51    53   ar
   102    55    53   ar
   103    55    56    1
   104   122   121    1
   105   122   124   ar
   106    47    48    2
   107   121   118    1
   108   126   124   ar
   109    59    60    2
   110    86    84   ar
   111    86    88   ar
   112   165   164    2
   113    84    83   ar
   114   116   114    1
   115   115   114    1
   116   113   114    1
   117   113   110    1
   118    89    88    1
   119   117   118    1
   120   117   111   am
   121   118   119    1
   122   109   110    1
   123    88    87   ar
   124   164   163    1
   125    83    82    1
   126    83    85   ar
   127    77    76    1
   128    82    79    1
   129   110   111    1
   130    71    69    1
   131   157   156    2
   132   120   119    2
   133   111   112    2
   134   168   166    1
   135    76    73    1
   136   142   140   ar
   137   142   141   ar
   138   163   166    1
   139   163   162    1
   140    87    85   ar
   141   140   138   ar
   142   141   139   ar
   143    68    69    1
   144    68    65    1
   145    81    80    2
   146    80    79    1
   147    79    78    1
   148   166   167    1
   149   156   162   am
   150   156   155    1
   151    69    70    1
   152    72    73    1
   153    72    66   am
   154   138   137   ar
   155   138   136   ar
   156    64    65    1
   157    73    74    1
   158   139   136   ar
   159   169   167    1
   160   137   135   ar
   161   136   134   ar
   162    65    66    1
   163   160   159    1
   164   160   161    1
   165    66    67    2
   166   155   154    1
   167   155   158    1
   168    74    75    2
   169   159   158    1
   170   135   134   ar
   171   134   133    1
   172   129   130    1
   173   153   151   ar
   174   153   152   ar
   175   133   130    1
   176   151   149   ar
   177   152   150   ar
   178   130   131    1
   179   131   132    2
   180   149   148   ar
   181   150   148   ar
   182   148   147    1
   183   147   144    1
   184   143   144    1
   185   144   145    1
   186   145   146    2
