@<TRIPOS>MOLECULE
tmp/3n8yB05.pdb
 149 142 0 0 0
SMALL
GASTEIGER

@<TRIPOS>ATOM
      1  N         17.3340  -41.9980   32.6230 N.3    85  VAL85      -0.1245
      2  CA        18.0280  -43.0380   33.3870 C.3    85  VAL85       0.1561
      3  C         18.9310  -43.8750   32.4740 C.2    85  VAL85       0.2260
      4  O         20.0850  -44.1430   32.8170 O.2    85  VAL85      -0.2867
      5  CB        17.0280  -43.9370   34.1740 C.3    85  VAL85       0.0252
      6  CG1       17.6650  -45.2610   34.5940 C.3    85  VAL85       0.0019
      7  CG2       16.4960  -43.1990   35.3920 C.3    85  VAL85       0.0019
      8  N         23.2110  -42.8130   32.6210 N.3    89  ARG89      -0.1245
      9  CA        23.9750  -43.9310   33.1830 C.3    89  ARG89       0.1563
     10  C         24.9440  -44.5650   32.1840 C.2    89  ARG89       0.2260
     11  O         26.1460  -44.6410   32.4460 O.2    89  ARG89      -0.2867
     12  CB        23.0370  -45.0080   33.7390 C.3    89  ARG89       0.0307
     13  CG        22.9550  -45.0880   35.2610 C.3    89  ARG89       0.0489
     14  CD        22.1470  -43.9510   35.8600 C.3    89  ARG89       0.2205
     15  NE        21.7140  -44.2360   37.2280 N.pl3  89  ARG89      -0.0865
     16  CZ        22.4440  -44.0190   38.3200 C.cat  89  ARG89       0.5346
     17  NH1       23.6700  -43.5180   38.2270 N.pl3  89  ARG89       0.1354
     18  NH2       21.9460  -44.3100   39.5140 N.pl3  89  ARG89       0.1354
     19  N         13.6460  -57.4590   38.3030 N.3   317  TYR317     -0.1227
     20  CA        14.9300  -57.7090   38.9570 C.3   317  TYR317      0.1736
     21  C         15.5550  -56.4080   39.4640 C.2   317  TYR317      0.2595
     22  O         15.9830  -56.3270   40.6170 O.2   317  TYR317     -0.2718
     23  CB        15.8590  -58.4530   37.9890 C.3   317  TYR317      0.0548
     24  CG        17.2730  -58.6970   38.4680 C.ar  317  TYR317     -0.0200
     25  CD1       17.6050  -59.8620   39.1570 C.ar  317  TYR317     -0.0009
     26  CD2       18.2900  -57.7790   38.1970 C.ar  317  TYR317     -0.0009
     27  CE1       18.9090  -60.0960   39.5850 C.ar  317  TYR317      0.0417
     28  CE2       19.5940  -58.0020   38.6220 C.ar  317  TYR317      0.0417
     29  CZ        19.8970  -59.1610   39.3150 C.ar  317  TYR317      0.1957
     30  OH        21.1870  -59.3830   39.7350 O.3   317  TYR317     -0.2866
     31  N         15.5890  -55.3920   38.6060 N.am  318  VAL318     -0.1980
     32  CA        16.1120  -54.0760   38.9790 C.3   318  VAL318      0.1595
     33  C         15.1140  -53.3250   39.8670 C.2   318  VAL318      0.2287
     34  O         15.5100  -52.5380   40.7320 O.2   318  VAL318     -0.2864
     35  CB        16.4950  -53.2380   37.7290 C.3   318  VAL318      0.0276
     36  CG1       16.8490  -51.8150   38.1090 C.3   318  VAL318      0.0022
     37  CG2       17.6640  -53.8830   36.9920 C.3   318  VAL318      0.0022
     38  N         15.6830  -54.5970   43.3740 N.3   321  LEU321     -0.1231
     39  CA        17.0260  -54.2490   43.8340 C.3   321  LEU321      0.1693
     40  C         17.1750  -52.7650   44.1680 C.2   321  LEU321      0.2592
     41  O         17.6430  -52.4140   45.2520 O.2   321  LEU321     -0.2718
     42  CB        18.0680  -54.6720   42.7910 C.3   321  LEU321      0.0284
     43  CG        19.5570  -54.6010   43.1460 C.3   321  LEU321      0.0019
     44  CD1       19.9490  -55.6640   44.1660 C.3   321  LEU321      0.0001
     45  CD2       20.3800  -54.7540   41.8870 C.3   321  LEU321      0.0001
     46  N         16.7760  -51.9040   43.2360 N.am  322  SER322     -0.1952
     47  CA        16.9020  -50.4590   43.4120 C.3   322  SER322      0.1924
     48  C         15.8920  -49.9090   44.4160 C.2   322  SER322      0.2314
     49  O         16.1650  -48.9240   45.1080 O.2   322  SER322     -0.2863
     50  CB        16.7390  -49.7480   42.0710 C.3   322  SER322      0.2116
     51  OG        15.4520  -49.9850   41.5300 O.3   322  SER322     -0.2180
     52  N         13.1630  -48.5070   43.6340 N.3   324  TYR324     -0.1241
     53  CA        12.6200  -47.2810   43.0590 C.3   324  TYR324      0.1605
     54  C         11.0990  -47.2880   43.0520 C.2   324  TYR324      0.2264
     55  O         10.4680  -48.3170   42.7990 O.2   324  TYR324     -0.2867
     56  CB        13.1300  -47.0650   41.6280 C.3   324  TYR324      0.0534
     57  CG        14.5980  -46.7070   41.4940 C.ar  324  TYR324     -0.0201
     58  CD1       15.2780  -46.9440   40.2990 C.ar  324  TYR324     -0.0009
     59  CD2       15.3080  -46.1330   42.5500 C.ar  324  TYR324     -0.0009
     60  CE1       16.6230  -46.6150   40.1560 C.ar  324  TYR324      0.0417
     61  CE2       16.6560  -45.8030   42.4180 C.ar  324  TYR324      0.0417
     62  CZ        17.3050  -46.0480   41.2180 C.ar  324  TYR324      0.1957
     63  OH        18.6360  -45.7260   41.0800 O.3   324  TYR324     -0.2866
     64  N          9.8890  -49.1010   36.4340 N.3   328  LEU328     -0.1245
     65  CA        10.8420  -49.2770   35.3430 C.3   328  LEU328      0.1561
     66  C         10.1900  -49.9170   34.1230 C.2   328  LEU328      0.2260
     67  O          9.2350  -50.6860   34.2500 O.2   328  LEU328     -0.2867
     68  CB        12.0580  -50.0820   35.8100 C.3   328  LEU328      0.0270
     69  CG        12.8980  -49.4280   36.9140 C.3   328  LEU328      0.0019
     70  CD1       13.6070  -50.4860   37.7280 C.3   328  LEU328      0.0001
     71  CD2       13.8930  -48.4150   36.3590 C.3   328  LEU328      0.0001
     72  N         29.8970  -57.5480   41.0980 N.3   354  TYR354     -0.1241
     73  CA        28.7310  -58.4360   41.1140 C.3   354  TYR354      0.1605
     74  C         28.9140  -59.6810   41.9900 C.2   354  TYR354      0.2264
     75  O         28.0930  -60.6020   41.9510 O.2   354  TYR354     -0.2867
     76  CB        28.3560  -58.8480   39.6860 C.3   354  TYR354      0.0534
     77  CG        26.8990  -58.6330   39.3370 C.ar  354  TYR354     -0.0201
     78  CD1       26.5400  -57.8660   38.2300 C.ar  354  TYR354     -0.0009
     79  CD2       25.8800  -59.1870   40.1130 C.ar  354  TYR354     -0.0009
     80  CE1       25.2080  -57.6610   37.8980 C.ar  354  TYR354      0.0417
     81  CE2       24.5430  -58.9870   39.7890 C.ar  354  TYR354      0.0417
     82  CZ        24.2160  -58.2230   38.6800 C.ar  354  TYR354      0.1957
     83  OH        22.8970  -58.0210   38.3520 O.3   354  TYR354     -0.2866
     84  N         28.0490  -60.8690   44.8170 N.3   356  TRP356     -0.1241
     85  CA        27.0940  -60.6990   45.9110 C.3   356  TRP356      0.1605
     86  C         26.8540  -62.0110   46.6500 C.2   356  TRP356      0.2264
     87  O         25.7260  -62.5060   46.7280 O.2   356  TRP356     -0.2867
     88  CB        25.7660  -60.1240   45.4080 C.3   356  TRP356      0.0550
     89  CG        25.8630  -58.8360   44.6420 C.ar  356  TRP356      0.0003
     90  CD1       26.9130  -57.9590   44.6200 C.ar  356  TRP356      0.0946
     91  CD2       24.8440  -58.2600   43.8170 C.ar  356  TRP356      0.0152
     92  NE1       26.6170  -56.8870   43.8150 N.ar  356  TRP356     -0.2442
     93  CE2       25.3530  -57.0440   43.3130 C.ar  356  TRP356      0.0810
     94  CE3       23.5520  -58.6590   43.4490 C.ar  356  TRP356      0.0012
     95  CZ2       24.6150  -56.2230   42.4580 C.ar  356  TRP356      0.0191
     96  CZ3       22.8190  -57.8420   42.6010 C.ar  356  TRP356      0.0001
     97  CH2       23.3540  -56.6380   42.1150 C.ar  356  TRP356      0.0015
     98  N         22.4510  -52.3170   49.8320 N.3   487  PHE487     -0.1241
     99  CA        23.8820  -52.0030   49.8810 C.3   487  PHE487      0.1605
    100  C         24.1550  -50.4980   49.9520 C.2   487  PHE487      0.2264
    101  O         23.2310  -49.7000   50.1360 O.2   487  PHE487     -0.2867
    102  CB        24.6600  -52.6570   48.7200 C.3   487  PHE487      0.0534
    103  CG        23.8810  -52.7850   47.4290 C.ar  487  PHE487     -0.0203
    104  CD1       23.7650  -54.0240   46.8020 C.ar  487  PHE487     -0.0042
    105  CD2       23.2830  -51.6780   46.8300 C.ar  487  PHE487     -0.0042
    106  CE1       23.0600  -54.1600   45.6060 C.ar  487  PHE487     -0.0003
    107  CE2       22.5750  -51.8070   45.6370 C.ar  487  PHE487     -0.0003
    108  CZ        22.4650  -53.0480   45.0240 C.ar  487  PHE487     -0.0000
    109  N         27.4050  -48.8220   45.0080 N.3   491  MET491     -0.1230
    110  CA        26.9760  -49.9770   44.2160 C.3   491  MET491      0.1702
    111  C         26.0320  -49.5800   43.0810 C.2   491  MET491      0.2592
    112  O         26.2180  -50.0060   41.9420 O.2   491  MET491     -0.2718
    113  CB        26.3210  -51.0300   45.1140 C.3   491  MET491      0.0401
    114  CG        26.0260  -52.3580   44.4250 C.3   491  MET491      0.0596
    115  SD        27.4900  -53.3660   44.1270 S.3   491  MET491     -0.1393
    116  CE        27.8710  -53.9420   45.7820 C.3   491  MET491      0.0692
    117  N         25.0310  -48.7610   43.4010 N.am  492  ILE492     -0.1980
    118  CA        24.0790  -48.2520   42.4120 C.3   492  ILE492      0.1595
    119  C         24.7910  -47.3950   41.3640 C.2   492  ILE492      0.2287
    120  O         24.6220  -47.6080   40.1640 O.2   492  ILE492     -0.2864
    121  CB        22.9470  -47.4140   43.0790 C.3   492  ILE492      0.0276
    122  CG1       22.1920  -48.2320   44.1410 C.3   492  ILE492      0.0022
    123  CG2       21.9980  -46.8220   42.0250 C.3   492  ILE492      0.0022
    124  CD1       21.1720  -49.2250   43.5980 C.3   492  ILE492      0.0001
    125  N         27.4100  -49.7060   39.4800 N.3   495  GLY495     -0.1210
    126  CA        26.8260  -50.8860   38.8390 C.3   495  GLY495      0.1956
    127  C         25.8240  -50.6170   37.7330 C.2   495  GLY495      0.2611
    128  O         25.8740  -51.2580   36.6810 O.2   495  GLY495     -0.2717
    129  N         24.9090  -49.6770   37.9710 N.am  496  ALA496     -0.1979
    130  CA        23.8560  -49.3380   37.0040 C.3   496  ALA496      0.1597
    131  C         24.3720  -49.0150   35.5920 C.2   496  ALA496      0.2287
    132  O         23.8610  -49.5770   34.6210 O.2   496  ALA496     -0.2864
    133  CB        22.9640  -48.2150   37.5350 C.3   496  ALA496      0.0319
    134  N         22.7960  -51.6170   32.4170 N.3   499  LEU499     -0.1245
    135  CA        21.9360  -50.8710   31.4470 C.3   499  LEU499      0.1561
    136  C         22.5770  -50.8230   30.0620 C.2   499  LEU499      0.2260
    137  O         21.8860  -50.9460   29.0480 O.2   499  LEU499     -0.2867
    138  CB        21.6280  -49.4600   31.9590 C.3   499  LEU499      0.0270
    139  CG        20.7320  -49.3600   33.2000 C.3   499  LEU499      0.0019
    140  CD1       20.8750  -47.9990   33.8530 C.3   499  LEU499      0.0001
    141  CD2       19.2700  -49.6490   32.8720 C.3   499  LEU499      0.0001
    142  N         22.2230  -54.4500   29.0250 N.3   502  LEU502     -0.1245
    143  CA        20.8380  -54.7550   28.6580 C.3   502  LEU502      0.1561
    144  C         20.4120  -54.0900   27.3480 C.2   502  LEU502      0.2260
    145  O         20.0130  -54.7750   26.4050 O.2   502  LEU502     -0.2867
    146  CB        19.8640  -54.3730   29.7840 C.3   502  LEU502      0.0270
    147  CG        19.6090  -55.2820   30.9990 C.3   502  LEU502      0.0019
    148  CD1       19.5940  -56.7660   30.6370 C.3   502  LEU502      0.0001
    149  CD2       20.6020  -55.0330   32.1140 C.3   502  LEU502      0.0001
@<TRIPOS>BOND
     1   145   144    2
     2   144   143    1
     3   143   142    1
     4   143   146    1
     5   137   136    2
     6   146   147    1
     7   136   135    1
     8   148   147    1
     9   147   149    1
    10   135   138    1
    11   135   134    1
    12   138   139    1
    13    10    11    2
    14    10     9    1
    15     3     4    2
    16     3     2    1
    17     8     9    1
    18     1     2    1
    19   141   139    1
    20     9    12    1
    21   139   140    1
    22     2     5    1
    23    12    13    1
    24    66    67    2
    25    66    65    1
    26     5     6    1
    27     5     7    1
    28   132   131    2
    29    13    14    1
    30    65    68    1
    31    65    64    1
    32   131   130    1
    33    68    69    1
    34    14    15    1
    35    71    69    1
    36   128   127    2
    37    69    70    1
    38    37    35    1
    39   130   133    1
    40   130   129    1
    41    15    16    2
    42    35    36    1
    43    35    32    1
    44   127   129   am
    45   127   126    1
    46    80    78   ar
    47    80    82   ar
    48    23    24    1
    49    23    20    1
    50    26    24   ar
    51    26    28   ar
    52    17    16    1
    53    78    77   ar
    54    19    20    1
    55    16    18    1
    56    83    82    1
    57    24    25   ar
    58    31    32    1
    59    31    21   am
    60    28    29   ar
    61    82    81   ar
    62   126   125    1
    63    20    21    1
    64    32    33    1
    65    25    27   ar
    66    29    27   ar
    67    29    30    1
    68    77    76    1
    69    77    79   ar
    70    21    22    2
    71    76    73    1
    72    81    79   ar
    73    33    34    2
    74    60    58   ar
    75    60    62   ar
    76   120   119    2
    77    58    57   ar
    78    63    62    1
    79    72    73    1
    80    73    74    1
    81    62    61   ar
    82   119   118    1
    83    57    56    1
    84    57    59   ar
    85    51    50    1
    86    56    53    1
    87    45    43    1
    88   112   111    2
    89    75    74    2
    90   123   121    1
    91    50    47    1
    92    97    95   ar
    93    97    96   ar
    94   118   121    1
    95   118   117    1
    96    61    59   ar
    97    95    93   ar
    98    96    94   ar
    99    42    43    1
   100    42    39    1
   101    55    54    2
   102    54    53    1
   103    53    52    1
   104   121   122    1
   105   111   117   am
   106   111   110    1
   107    43    44    1
   108    46    47    1
   109    46    40   am
   110    93    92   ar
   111    93    91   ar
   112    38    39    1
   113    47    48    1
   114    94    91   ar
   115   124   122    1
   116    92    90   ar
   117    91    89   ar
   118    39    40    1
   119   115   114    1
   120   115   116    1
   121    40    41    2
   122   110   109    1
   123   110   113    1
   124    48    49    2
   125   114   113    1
   126    90    89   ar
   127    89    88    1
   128    84    85    1
   129   108   106   ar
   130   108   107   ar
   131    88    85    1
   132   106   104   ar
   133   107   105   ar
   134    85    86    1
   135    86    87    2
   136   104   103   ar
   137   105   103   ar
   138   103   102    1
   139   102    99    1
   140    98    99    1
   141    99   100    1
   142   100   101    2
