@<TRIPOS>MOLECULE
tmp/3n96B00.pdb
 193 187 0 0 0
SMALL
GASTEIGER

@<TRIPOS>ATOM
      1  N        -13.5850   73.9620   61.2690 N.3    40  PRO40      -0.2102
      2  CA       -13.3470   75.4030   61.2130 C.3    40  PRO40       0.1504
      3  C        -13.8410   76.0390   62.4910 C.2    40  PRO40       0.2576
      4  O        -14.7310   75.5090   63.1710 O.2    40  PRO40      -0.2718
      5  CB       -14.2190   75.8740   60.0420 C.3    40  PRO40       0.0282
      6  CG       -14.6430   74.6630   59.3130 C.3    40  PRO40       0.0208
      7  CD       -14.5870   73.5300   60.2750 C.3    40  PRO40       0.0893
      8  N        -13.2610   77.1710   62.8380 N.am   41  ASP41      -0.1960
      9  CA       -13.7290   77.8760   64.0120 C.3    41  ASP41       0.1840
     10  C        -15.0110   78.6520   63.6840 C.2    41  ASP41       0.2621
     11  O        -15.1940   79.1330   62.5380 O.2    41  ASP41      -0.2715
     12  CB       -12.6400   78.8130   64.5670 C.3    41  ASP41       0.1450
     13  CG       -11.6720   78.0890   65.5400 C.2    41  ASP41       0.3671
     14  OD1      -10.4150   78.1760   65.2920 O.co2  41  ASP41      -0.2456
     15  OD2      -12.1730   77.4360   66.5320 O.co2  41  ASP41      -0.2456
     16  N        -15.8700   78.7820   64.7120 N.am   42  LYS42      -0.1977
     17  CA       -17.1340   79.5150   64.6100 C.3    42  LYS42       0.1596
     18  C        -17.9450   78.9310   63.4640 C.2    42  LYS42       0.2287
     19  O        -18.4380   79.6170   62.5460 O.2    42  LYS42      -0.2864
     20  CB       -16.8990   81.0260   64.5160 C.3    42  LYS42       0.0298
     21  CG       -16.7280   81.6480   65.9250 C.3    42  LYS42       0.0038
     22  CD       -16.3170   83.1060   65.8350 C.3    42  LYS42       0.0206
     23  CE       -16.3110   83.7950   67.2470 C.3    42  LYS42       0.1093
     24  NZ       -16.1790   85.3500   67.1890 N.3    42  LYS42      -0.1314
     25  N        -20.1480   80.3080   60.4390 N.3    46  LYS46      -0.1245
     26  CA       -19.4700   80.1970   59.1250 C.3    46  LYS46       0.1561
     27  C        -20.3330   79.4600   58.1330 C.2    46  LYS46       0.2260
     28  O        -20.3220   79.7780   56.9530 O.2    46  LYS46      -0.2867
     29  CB       -18.0970   79.5350   59.2340 C.3    46  LYS46       0.0271
     30  CG       -17.1550   79.9010   58.0750 C.3    46  LYS46       0.0035
     31  CD       -15.6700   80.0250   58.5160 C.3    46  LYS46       0.0206
     32  CE       -15.4540   81.0820   59.6070 C.3    46  LYS46       0.1093
     33  NZ       -14.1970   80.7190   60.3160 N.3    46  LYS46      -0.1314
     34  N        -23.0520   81.7760   56.2950 N.3    49  GLN49      -0.1245
     35  CA       -22.3310   82.6730   55.3630 C.3    49  GLN49       0.1566
     36  C        -22.0100   81.9610   54.0720 C.2    49  GLN49       0.2260
     37  O        -22.3890   82.4550   53.0010 O.2    49  GLN49      -0.2867
     38  CB       -21.0290   83.2250   55.9380 C.3    49  GLN49       0.0367
     39  CG       -21.2080   84.3210   56.9700 C.3    49  GLN49       0.0905
     40  CD       -20.0690   84.3520   57.9950 C.2    49  GLN49       0.2608
     41  OE1      -20.2630   84.7760   59.1550 O.2    49  GLN49      -0.2717
     42  NE2      -18.8610   83.9110   57.5650 N.am   49  GLN49      -0.0878
     43  N        -17.3160   82.5890   78.8530 N.3   152  GLN152     -0.1231
     44  CA       -17.4460   83.3180   77.5750 C.3   152  GLN152      0.1698
     45  C        -18.5180   82.7210   76.6300 C.2   152  GLN152      0.2592
     46  O        -18.6740   83.2130   75.4990 O.2   152  GLN152     -0.2718
     47  CB       -16.1280   83.3780   76.7990 C.3   152  GLN152      0.0381
     48  CG       -14.8900   83.5560   77.6080 C.3   152  GLN152      0.0905
     49  CD       -14.8040   84.9180   78.2750 C.2   152  GLN152      0.2608
     50  OE1      -15.4860   85.8650   77.8670 O.2   152  GLN152     -0.2717
     51  NE2      -13.9530   85.0300   79.3150 N.am  152  GLN152     -0.0878
     52  N        -19.2220   81.6660   77.0500 N.am  153  GLU153     -0.1979
     53  CA       -20.2380   81.0520   76.2070 C.3   153  GLU153      0.1602
     54  C        -21.4810   80.8420   77.0560 C.2   153  GLU153      0.2287
     55  O        -21.4150   80.1240   78.0540 O.2   153  GLU153     -0.2864
     56  CB       -19.7170   79.7330   75.6050 C.3   153  GLU153      0.0415
     57  CG       -18.9040   79.8810   74.2940 C.3   153  GLU153      0.1163
     58  CD       -19.6710   80.6130   73.1190 C.2   153  GLU153      0.3649
     59  OE1      -20.9150   80.4960   72.9210 O.co2 153  GLU153     -0.2457
     60  OE2      -19.0210   81.3600   72.3630 O.co2 153  GLU153     -0.2457
     61  N        -16.6620   91.8690   52.8040 N.3   415  ASP415     -0.1225
     62  CA       -16.3330   90.6060   53.4570 C.3   415  ASP415      0.1805
     63  C        -17.0500   90.4840   54.8040 C.2   415  ASP415      0.2598
     64  O        -17.7580   91.4010   55.2140 O.2   415  ASP415     -0.2718
     65  CB       -14.8120   90.3570   53.5440 C.3   415  ASP415      0.1424
     66  CG       -14.0800   91.3290   54.4750 C.2   415  ASP415      0.3668
     67  OD1      -14.7150   91.8410   55.4410 O.co2 415  ASP415     -0.2456
     68  OD2      -12.8680   91.5750   54.2380 O.co2 415  ASP415     -0.2456
     69  N        -16.8760   89.3550   55.4900 N.am  416  GLN416     -0.1965
     70  CA       -17.5370   89.1350   56.7790 C.3   416  GLN416      0.1733
     71  C        -17.0140   90.0060   57.9090 C.2   416  GLN416      0.2616
     72  O        -17.5550   89.9450   59.0230 O.2   416  GLN416     -0.2715
     73  CB       -17.3810   87.7040   57.2160 C.3   416  GLN416      0.0408
     74  CG       -17.4400   86.7340   56.1110 C.3   416  GLN416      0.0908
     75  CD       -16.0870   86.3410   55.4150 C.2   416  GLN416      0.2608
     76  OE1      -15.4010   87.1340   54.7340 O.2   416  GLN416     -0.2717
     77  NE2      -15.7730   85.0470   55.5280 N.am  416  GLN416     -0.0878
     78  N        -15.9690   90.7960   57.6420 N.am  417  ILE417     -0.1977
     79  CA       -15.4330   91.6900   58.6570 C.3   417  ILE417      0.1596
     80  C        -15.8620   93.1500   58.4530 C.2   417  ILE417      0.2287
     81  O        -15.5980   94.0070   59.2930 O.2   417  ILE417     -0.2864
     82  CB       -13.9240   91.4720   58.8160 C.3   417  ILE417      0.0276
     83  CG1      -13.7140   90.0740   59.4090 C.3   417  ILE417      0.0022
     84  CG2      -13.3160   92.5000   59.7530 C.3   417  ILE417      0.0022
     85  CD1      -12.2960   89.6330   59.5740 C.3   417  ILE417      0.0001
     86  N        -10.3090   97.2090   59.6940 N.3   435  PRO435     -0.2116
     87  CA       -11.4940   97.7320   60.3330 C.3   435  PRO435      0.1372
     88  C        -11.1020   98.6420   61.4620 C.2   435  PRO435      0.2244
     89  O        -10.1130   98.3810   62.1420 O.2   435  PRO435     -0.2868
     90  CB       -12.1390   96.4820   60.9420 C.3   435  PRO435      0.0268
     91  CG       -11.0860   95.3660   60.7520 C.3   435  PRO435      0.0207
     92  CD       -10.4310   95.7640   59.4990 C.3   435  PRO435      0.0892
     93  N        -14.1940   96.2020   65.3620 N.3   438  PHE438     -0.1227
     94  CA       -14.6500   94.8500   65.1450 C.3   438  PHE438      0.1736
     95  C        -14.8910   94.1140   66.4270 C.2   438  PHE438      0.2595
     96  O        -13.9870   93.9620   67.2410 O.2   438  PHE438     -0.2718
     97  CB       -13.6540   94.0750   64.2880 C.3   438  PHE438      0.0547
     98  CG       -14.1350   92.7010   63.9160 C.ar  438  PHE438     -0.0202
     99  CD1      -15.2290   92.5370   63.0400 C.ar  438  PHE438     -0.0042
    100  CD2      -13.5020   91.5700   64.4420 C.ar  438  PHE438     -0.0042
    101  CE1      -15.6680   91.2720   62.6990 C.ar  438  PHE438     -0.0003
    102  CE2      -13.9360   90.3060   64.1130 C.ar  438  PHE438     -0.0003
    103  CZ       -15.0260   90.1470   63.2520 C.ar  438  PHE438     -0.0000
    104  N        -16.1210   93.6280   66.5700 N.am  439  ASN439     -0.1974
    105  CA       -16.5740   92.9270   67.7730 C.3   439  ASN439      0.1688
    106  C        -16.0180   93.5240   69.0360 C.2   439  ASN439      0.2292
    107  O        -15.2760   92.8650   69.7650 O.2   439  ASN439     -0.2864
    108  CB       -16.2370   91.4390   67.7130 C.3   439  ASN439      0.1181
    109  CG       -17.2450   90.6470   66.8920 C.2   439  ASN439      0.2629
    110  OD1      -17.6590   91.0730   65.8100 O.2   439  ASN439     -0.2716
    111  ND2      -17.6380   89.4810   67.3990 N.am  439  ASN439     -0.0877
    112  N        -13.8430   95.6610   69.6130 N.3   441  VAL441     -0.1245
    113  CA       -12.4300   95.9170   69.6430 C.3   441  VAL441      0.1561
    114  C        -12.0450   96.8940   68.5460 C.2   441  VAL441      0.2260
    115  O        -12.5290   96.7990   67.3960 O.2   441  VAL441     -0.2867
    116  CB       -11.6550   94.6210   69.5300 C.3   441  VAL441      0.0252
    117  CG1      -10.1680   94.9040   69.3970 C.3   441  VAL441      0.0019
    118  CG2      -11.9230   93.7710   70.7640 C.3   441  VAL441      0.0019
    119  N         -9.0670   98.7180   66.2030 N.3   443  TYR443     -0.1241
    120  CA        -7.8310   98.2940   65.5260 C.3   443  TYR443      0.1605
    121  C         -7.0580   99.4760   64.9850 C.2   443  TYR443      0.2264
    122  O         -7.6410  100.4990   64.6430 O.2   443  TYR443     -0.2867
    123  CB        -8.1450   97.2970   64.4000 C.3   443  TYR443      0.0534
    124  CG        -8.5530   95.9690   64.9630 C.ar  443  TYR443     -0.0201
    125  CD1       -9.8960   95.7180   65.3280 C.ar  443  TYR443     -0.0009
    126  CD2       -7.5890   94.9830   65.2080 C.ar  443  TYR443     -0.0009
    127  CE1      -10.2740   94.4930   65.9080 C.ar  443  TYR443      0.0417
    128  CE2       -7.9420   93.7660   65.7790 C.ar  443  TYR443      0.0417
    129  CZ        -9.2800   93.5200   66.1260 C.ar  443  TYR443      0.1957
    130  OH        -9.5700   92.2960   66.6700 O.3   443  TYR443     -0.2866
    131  N        -10.5750   83.3670   48.2850 N.3   461  SER461     -0.1202
    132  CA       -11.5190   83.1860   49.3810 C.3   461  SER461      0.2020
    133  C        -10.9030   83.5340   50.7440 C.2   461  SER461      0.2619
    134  O        -11.6360   83.9230   51.6810 O.2   461  SER461     -0.2717
    135  CB       -12.1810   81.7930   49.3720 C.3   461  SER461      0.2103
    136  OG       -11.3630   80.8260   50.0100 O.3   461  SER461     -0.2182
    137  N         -9.5800   83.4180   50.8480 N.am  462  LYS462     -0.1965
    138  CA        -8.8920   83.8270   52.0700 C.3   462  LYS462      0.1728
    139  C         -8.5360   85.2980   52.0290 C.2   462  LYS462      0.2616
    140  O         -8.1340   85.8420   51.0000 O.2   462  LYS462     -0.2715
    141  CB        -7.6190   82.9990   52.3480 C.3   462  LYS462      0.0311
    142  CG        -7.1170   83.0770   53.8260 C.3   462  LYS462      0.0038
    143  CD        -5.9340   82.1050   54.1150 C.3   462  LYS462      0.0206
    144  CE        -4.9530   82.6840   55.1810 C.3   462  LYS462      0.1093
    145  NZ        -5.4810   82.6380   56.5830 N.3   462  LYS462     -0.1314
    146  N         -8.6820   85.9360   53.1750 N.am  463  ILE463     -0.1977
    147  CA        -8.3090   87.3210   53.3130 C.3   463  ILE463      0.1596
    148  C         -7.2530   87.4930   54.4170 C.2   463  ILE463      0.2287
    149  O         -7.3740   86.9670   55.5020 O.2   463  ILE463     -0.2864
    150  CB        -9.5710   88.2110   53.5010 C.3   463  ILE463      0.0276
    151  CG1      -10.4580   88.0460   52.2830 C.3   463  ILE463      0.0022
    152  CG2       -9.1890   89.6710   53.6170 C.3   463  ILE463      0.0022
    153  CD1      -11.8660   88.2210   52.5310 C.3   463  ILE463      0.0001
    154  N         -5.7590   89.0810   57.2480 N.3   465  TYR465     -0.1227
    155  CA        -5.9190   90.0310   58.3330 C.3   465  TYR465      0.1736
    156  C         -4.7340   90.0390   59.3150 C.2   465  TYR465      0.2596
    157  O         -4.7740   90.7110   60.3380 O.2   465  TYR465     -0.2718
    158  CB        -7.2570   89.8050   59.0210 C.3   465  TYR465      0.0548
    159  CG        -8.3790   90.4610   58.2840 C.ar  465  TYR465     -0.0200
    160  CD1       -9.1000   89.7750   57.3150 C.ar  465  TYR465     -0.0009
    161  CD2       -8.7080   91.7910   58.5330 C.ar  465  TYR465     -0.0009
    162  CE1      -10.1320   90.4010   56.6230 C.ar  465  TYR465      0.0417
    163  CE2       -9.7380   92.4210   57.8490 C.ar  465  TYR465      0.0417
    164  CZ       -10.4400   91.7250   56.8970 C.ar  465  TYR465      0.1957
    165  OH       -11.4400   92.3530   56.2150 O.3   465  TYR465     -0.2866
    166  N         -3.6600   89.3260   58.9780 N.am  466  SER466     -0.1952
    167  CA        -2.5800   89.0870   59.9190 C.3   466  SER466      0.1924
    168  C         -1.9990   90.3450   60.5530 C.2   466  SER466      0.2314
    169  O         -1.4730   90.2810   61.6400 O.2   466  SER466     -0.2863
    170  CB        -1.4790   88.2120   59.2930 C.3   466  SER466      0.2116
    171  OG        -0.7700   88.8840   58.2690 O.3   466  SER466     -0.2180
    172  N         -3.6300   93.1780   61.4070 N.3   468  CYS468     -0.1221
    173  CA        -4.5280   94.0890   62.1070 C.3   468  CYS468      0.1808
    174  C         -4.3460   93.9600   63.6460 C.2   468  CYS468      0.2601
    175  O         -4.9830   93.1200   64.2960 O.2   468  CYS468     -0.2717
    176  CB        -5.9960   93.9420   61.6120 C.3   468  CYS468      0.0970
    177  SG        -6.2200   94.1620   59.7390 S.3   468  CYS468     -0.0800
    178  N         -3.4450   94.7670   64.2140 N.am  469  GLU469     -0.1966
    179  CA        -3.1970   94.7510   65.6650 C.3   469  GLU469      0.1718
    180  C         -4.2770   95.5810   66.3830 C.2   469  GLU469      0.2458
    181  O         -4.5680   96.7100   65.9820 O.2   469  GLU469     -0.2730
    182  CB        -1.7920   95.2800   65.9890 C.3   469  GLU469      0.0428
    183  CG        -1.1890   94.8320   67.3810 C.3   469  GLU469      0.1163
    184  CD        -0.0860   93.7050   67.3100 C.2   469  GLU469      0.3649
    185  OE1       -0.1230   92.8540   66.3820 O.co2 469  GLU469     -0.2457
    186  OE2        0.8050   93.6680   68.2000 O.co2 469  GLU469     -0.2457
    187  N         -4.9090   95.0040   67.4270 N.am  470  PRO470     -0.2727
    188  CA        -5.8960   95.7440   68.2100 C.3   470  PRO470      0.1402
    189  C         -5.1580   96.7310   69.0760 C.2   470  PRO470      0.2269
    190  O         -3.9540   96.5630   69.2750 O.2   470  PRO470     -0.2865
    191  CB        -6.5040   94.6710   69.1210 C.3   470  PRO470      0.0296
    192  CG        -6.0500   93.3580   68.5890 C.3   470  PRO470      0.0237
    193  CD        -4.7290   93.6360   67.9480 C.3   470  PRO470      0.0939
@<TRIPOS>BOND
     1   131   132    1
     2   135   132    1
     3   135   136    1
     4   132   133    1
     5   133   137   am
     6   133   134    2
     7   137   138    1
     8   140   139    2
     9   139   138    1
    10   139   146   am
    11   138   141    1
    12   151   153    1
    13   151   150    1
    14   141   142    1
    15    61    62    1
    16    37    36    2
    17   146   147    1
    18   147   150    1
    19   147   148    1
    20    62    65    1
    21    62    63    1
    22   150   152    1
    23    65    66    1
    24   142   143    1
    25    36    35    1
    26   143   144    1
    27    68    66   ar
    28   148   149    2
    29    66    67   ar
    30    76    75    2
    31    63    64    2
    32    63    69   am
    33   144   145    1
    34    35    38    1
    35    35    34    1
    36    75    77   am
    37    75    74    1
    38    69    70    1
    39    38    39    1
    40    74    73    1
    41   165   164    1
    42   162   164   ar
    43   162   160   ar
    44    70    73    1
    45    70    71    1
    46   164   163   ar
    47    28    27    2
    48    39    40    1
    49   154   155    1
    50   160   159   ar
    51    42    40   am
    52    78    71   am
    53    78    79    1
    54   163   161   ar
    55    71    72    2
    56    40    41    2
    57    30    31    1
    58    30    29    1
    59    27    26    1
    60   171   170    1
    61   159   161   ar
    62   159   158    1
    63   155   158    1
    64   155   156    1
    65    80    79    1
    66    80    81    2
    67    31    32    1
    68    79    82    1
    69    82    83    1
    70    82    84    1
    71   166   156   am
    72   166   167    1
    73    26    29    1
    74    26    25    1
    75   170   167    1
    76     6     5    1
    77     6     7    1
    78   156   157    2
    79    83    85    1
    80    92    86    1
    81    92    91    1
    82    32    33    1
    83    86    87    1
    84   177   176    1
    85   167   168    1
    86     5     2    1
    87     7     1    1
    88    87    90    1
    89    87    88    1
    90   168   169    2
    91    91    90    1
    92     2     1    1
    93     2     3    1
    94   172   173    1
    95    88    89    2
    96   176   173    1
    97   173   174    1
    98     3     8   am
    99     3     4    2
   100    11    10    2
   101    19    18    2
   102   101    99   ar
   103   101   103   ar
   104     8     9    1
   105    99    98   ar
   106   103   102   ar
   107    18    17    1
   108   174   178   am
   109   174   175    2
   110    10     9    1
   111    10    16   am
   112    98    97    1
   113    98   100   ar
   114     9    12    1
   115   102   100   ar
   116   178   179    1
   117    97    94    1
   118   123   124    1
   119   123   120    1
   120    20    17    1
   121    20    21    1
   122    12    13    1
   123    17    16    1
   124   122   121    2
   125   124   126   ar
   126   124   125   ar
   127   121   120    1
   128    94    93    1
   129    94    95    1
   130   126   128   ar
   131    14    13   ar
   132   125   127   ar
   133   120   119    1
   134    13    15   ar
   135   179   182    1
   136   179   180    1
   137   128   129   ar
   138   110   109    2
   139    22    21    1
   140    22    23    1
   141   127   129   ar
   142   181   180    2
   143   182   183    1
   144   129   130    1
   145   185   184   ar
   146   180   187   am
   147    95   104   am
   148    95    96    2
   149   104   105    1
   150   109   111   am
   151   109   108    1
   152    24    23    1
   153   184   183    1
   154   184   186   ar
   155   115   114    2
   156   187   193    1
   157   187   188    1
   158   108   105    1
   159   105   106    1
   160   193   192    1
   161   188   189    1
   162   188   191    1
   163   114   113    1
   164   192   191    1
   165   106   107    2
   166   189   190    2
   167   117   116    1
   168   116   113    1
   169   116   118    1
   170   112   113    1
   171    60    58   ar
   172    59    58   ar
   173    58    57    1
   174    57    56    1
   175    46    45    2
   176    56    53    1
   177    53    52    1
   178    53    54    1
   179    45    52   am
   180    45    44    1
   181    47    44    1
   182    47    48    1
   183    54    55    2
   184    44    43    1
   185    48    49    1
   186    50    49    2
   187    49    51   am
