@<TRIPOS>MOLECULE
tmp/3n9kA01.pdb
 91 91 0 0 0
SMALL
GASTEIGER

@<TRIPOS>ATOM
      1  N         -1.7030   12.1370   27.7690 N.3     5  ASP5       -0.1239
      2  CA        -2.1410   11.7280   29.1350 C.3     5  ASP5        0.1674
      3  C         -3.6250   11.8620   29.3090 C.2     5  ASP5        0.2266
      4  O         -4.2740   10.9990   29.8920 O.2     5  ASP5       -0.2867
      5  CB        -1.4370   12.5470   30.2100 C.3     5  ASP5        0.1410
      6  CG         0.0010   12.1660   30.3400 C.2     5  ASP5        0.3668
      7  OD1        0.2420   10.9270   30.4870 O.co2   5  ASP5       -0.2456
      8  OD2        0.8610   13.0930   30.2650 O.co2   5  ASP5       -0.2456
      9  N         12.8240    2.1250   24.7060 N.3   233  LEU233     -0.1245
     10  CA        12.5520    3.5730   24.4300 C.3   233  LEU233      0.1561
     11  C         11.8610    4.2030   25.6800 C.2   233  LEU233      0.2260
     12  O         10.6900    4.6430   25.6650 O.2   233  LEU233     -0.2867
     13  CB        11.8170    3.7700   23.1120 C.3   233  LEU233      0.0270
     14  CG        12.6350    3.5800   21.8450 C.3   233  LEU233      0.0019
     15  CD1       11.6540    3.7460   20.6350 C.3   233  LEU233      0.0001
     16  CD2       13.8260    4.5770   21.7040 C.3   233  LEU233      0.0001
     17  N         11.6630    6.4600   29.4500 N.3   235  VAL235     -0.1245
     18  CA        12.0410    7.6810   30.2100 C.3   235  VAL235      0.1561
     19  C         13.3460    7.4350   30.9630 C.2   235  VAL235      0.2260
     20  O         14.2290    8.2710   30.9880 O.2   235  VAL235     -0.2867
     21  CB        10.8710    8.0570   31.1730 C.3   235  VAL235      0.0252
     22  CG1       11.2730    9.0250   32.1900 C.3   235  VAL235      0.0019
     23  CG2        9.6690    8.5730   30.3380 C.3   235  VAL235      0.0019
     24  N         14.6000    8.5650   26.6560 N.3   239  GLN239     -0.1231
     25  CA        13.8700    8.3600   25.3830 C.3   239  GLN239      0.1698
     26  C         12.3920    8.6470   25.6670 C.2   239  GLN239      0.2592
     27  O         11.7550    8.0020   26.5190 O.2   239  GLN239     -0.2718
     28  CB        14.1190    6.9050   24.9010 C.3   239  GLN239      0.0381
     29  CG        15.5590    6.7430   24.4660 C.3   239  GLN239      0.0905
     30  CD        16.0960    5.3330   24.5630 C.2   239  GLN239      0.2608
     31  OE1       15.5240    4.4650   25.2520 O.2   239  GLN239     -0.2717
     32  NE2       17.2600    5.1290   23.9920 N.am  239  GLN239     -0.0878
     33  N         11.8650    9.6940   25.0410 N.am  240  TRP240     -0.1962
     34  CA        10.6070   10.3090   25.5190 C.3   240  TRP240      0.1771
     35  C          9.7090   10.6410   24.3040 C.2   240  TRP240      0.2620
     36  O         10.1810   10.6530   23.1850 O.2   240  TRP240     -0.2715
     37  CB        10.9540   11.6230   26.3230 C.3   240  TRP240      0.0590
     38  CG        11.7120   12.5880   25.4970 C.ar  240  TRP240      0.0006
     39  CD1       13.0600   12.5780   25.2170 C.ar  240  TRP240      0.0946
     40  CD2       11.1630   13.7170   24.8000 C.ar  240  TRP240      0.0152
     41  NE1       13.3570   13.6180   24.3510 N.ar  240  TRP240     -0.2442
     42  CE2       12.2030   14.3050   24.0780 C.ar  240  TRP240      0.0810
     43  CE3        9.8370   14.2750   24.6840 C.ar  240  TRP240      0.0012
     44  CZ2       12.0140   15.4650   23.2760 C.ar  240  TRP240      0.0191
     45  CZ3        9.6650   15.4190   23.8430 C.ar  240  TRP240      0.0001
     46  CH2       10.7500   15.9850   23.1790 C.ar  240  TRP240      0.0015
     47  N          8.4370   10.8910   24.5680 N.am  241  ASN241     -0.1958
     48  CA         7.3680   11.0560   23.5100 C.3   241  ASN241      0.1819
     49  C          7.3690    9.8500   22.5870 C.2   241  ASN241      0.2621
     50  O          7.6220    9.9390   21.3870 O.2   241  ASN241     -0.2715
     51  CB         7.5270   12.3320   22.7090 C.3   241  ASN241      0.1195
     52  CG         6.6850   13.4640   23.2350 C.2   241  ASN241      0.2630
     53  OD1        6.1090   13.3640   24.3050 O.2   241  ASN241     -0.2716
     54  ND2        6.5940   14.5500   22.4710 N.am  241  ASN241     -0.0877
     55  N          7.1330    8.6800   23.1860 N.am  242  VAL242     -0.1977
     56  CA         7.0800    7.4150   22.4450 C.3   242  VAL242      0.1596
     57  C          5.7060    6.8030   22.7430 C.2   242  VAL242      0.2287
     58  O          5.2900    6.7280   23.9060 O.2   242  VAL242     -0.2864
     59  CB         8.1990    6.4560   22.9400 C.3   242  VAL242      0.0276
     60  CG1        8.0880    5.0210   22.3740 C.3   242  VAL242      0.0022
     61  CG2        9.6020    7.0610   22.6060 C.3   242  VAL242      0.0022
     62  N          3.5810    0.2990   30.0350 N.3   279  SER279     -0.1202
     63  CA         4.2720    1.4620   30.5370 C.3   279  SER279      0.2020
     64  C          4.2580    2.6770   29.5600 C.2   279  SER279      0.2619
     65  O          4.2610    3.7920   30.0350 O.2   279  SER279     -0.2717
     66  CB         5.7030    1.0850   30.9790 C.3   279  SER279      0.2103
     67  OG         6.4210    0.8560   29.7930 O.3   279  SER279     -0.2182
     68  N          4.1600    2.4900   28.2410 N.am  280  HIS280     -0.1961
     69  CA         4.0900    3.6280   27.3700 C.3   280  HIS280      0.1787
     70  C          2.6490    4.0370   27.0980 C.2   280  HIS280      0.2620
     71  O          1.7440    3.2130   27.1190 O.2   280  HIS280     -0.2715
     72  CB         4.6340    3.2690   25.9590 C.3   280  HIS280      0.0785
     73  CG         6.0780    2.9380   25.9300 C.ar  280  HIS280      0.0821
     74  ND1        7.0940    3.8690   25.7890 N.ar  280  HIS280     -0.2267
     75  CD2        6.6810    1.7350   26.0100 C.ar  280  HIS280      0.1154
     76  CE1        8.2640    3.2290   25.7510 C.ar  280  HIS280      0.1986
     77  NE2        8.0360    1.9440   25.9260 N.ar  280  HIS280     -0.2212
     78  N          2.4980    5.2890   26.6530 N.am  281  TRP281     -0.1974
     79  CA         1.2630    5.7100   25.9920 C.3   281  TRP281      0.1640
     80  C          1.0500    4.7250   24.8470 C.2   281  TRP281      0.2290
     81  O          1.9880    4.2890   24.1900 O.2   281  TRP281     -0.2864
     82  CB         1.5270    7.0450   25.3690 C.3   281  TRP281      0.0576
     83  CG         1.6340    8.1690   26.3630 C.ar  281  TRP281      0.0006
     84  CD1        1.0070    8.2480   27.5250 C.ar  281  TRP281      0.0946
     85  CD2        2.3270    9.4220   26.1570 C.ar  281  TRP281      0.0152
     86  NE1        1.2830    9.4860   28.1380 N.ar  281  TRP281     -0.2442
     87  CE2        2.0630   10.2180   27.2850 C.ar  281  TRP281      0.0810
     88  CE3        3.1190    9.9480   25.1020 C.ar  281  TRP281      0.0012
     89  CZ2        2.5410   11.5070   27.4160 C.ar  281  TRP281      0.0191
     90  CZ3        3.6420   11.2730   25.2660 C.ar  281  TRP281      0.0001
     91  CH2        3.3520   11.9910   26.4490 C.ar  281  TRP281      0.0015
@<TRIPOS>BOND
     1    15    14    1
     2    50    49    2
     3    16    14    1
     4    14    13    1
     5    60    59    1
     6    56    57    1
     7    56    59    1
     8    56    55    1
     9    54    52   am
    10    49    55   am
    11    49    48    1
    12    61    59    1
    13    51    52    1
    14    51    48    1
    15    57    58    2
    16    13    10    1
    17    46    44   ar
    18    46    45   ar
    19    36    35    2
    20    52    53    2
    21    44    42   ar
    22    48    47    1
    23    45    43   ar
    24    32    30   am
    25    42    41   ar
    26    42    40   ar
    27    81    80    2
    28    35    47   am
    29    35    34    1
    30    41    39   ar
    31    10     9    1
    32    10    11    1
    33    29    30    1
    34    29    28    1
    35    30    31    2
    36    43    40   ar
    37    40    38   ar
    38    80    79    1
    39    28    25    1
    40    33    34    1
    41    33    26   am
    42    88    90   ar
    43    88    85   ar
    44    39    38   ar
    45    90    91   ar
    46    82    79    1
    47    82    83    1
    48    25    26    1
    49    25    24    1
    50    38    37    1
    51    34    37    1
    52    12    11    2
    53    26    27    2
    54    76    74   ar
    55    76    77   ar
    56    74    73   ar
    57    77    75   ar
    58    73    72    1
    59    73    75   ar
    60    72    69    1
    61    79    78    1
    62    85    83   ar
    63    85    87   ar
    64    83    84   ar
    65    91    89   ar
    66    78    70   am
    67    70    71    2
    68    70    69    1
    69    87    89   ar
    70    87    86   ar
    71    69    68    1
    72    84    86   ar
    73     1     2    1
    74    68    64   am
    75     2     3    1
    76     2     5    1
    77     3     4    2
    78    17    18    1
    79    64    65    2
    80    64    63    1
    81    67    66    1
    82    62    63    1
    83     5     6    1
    84    18    19    1
    85    18    21    1
    86     8     6   ar
    87    23    21    1
    88     6     7   ar
    89    63    66    1
    90    19    20    2
    91    21    22    1
