@<TRIPOS>MOLECULE
tmp/3n9kA00.pdb
 197 191 0 0 0
SMALL
GASTEIGER

@<TRIPOS>ATOM
      1  N         -5.1480   -1.3480   -1.5380 N.3    21  GLU21      -0.1245
      2  CA        -5.4710   -2.5940   -0.8600 C.3    21  GLU21       0.1567
      3  C         -6.6730   -3.1530   -1.6250 C.2    21  GLU21       0.2260
      4  O         -7.7200   -2.5440   -1.6500 O.2    21  GLU21      -0.2867
      5  CB        -5.8980   -2.3540    0.5840 C.3    21  GLU21       0.0388
      6  CG        -4.6440   -1.8350    1.3420 C.3    21  GLU21       0.1160
      7  CD        -4.7050   -1.9650    2.8460 C.2    21  GLU21       0.3649
      8  OE1       -5.2560   -2.9710    3.3340 O.co2  21  GLU21      -0.2457
      9  OE2       -4.1610   -1.0290    3.4500 O.co2  21  GLU21      -0.2457
     10  N         -8.9330   -5.3130   -1.2140 N.3    23  TYR23      -0.1241
     11  CA       -10.2410   -5.4580   -0.6360 C.3    23  TYR23       0.1605
     12  C        -10.9330   -4.1110   -0.4040 C.2    23  TYR23       0.2264
     13  O        -12.1640   -4.0420   -0.2250 O.2    23  TYR23      -0.2867
     14  CB       -10.2480   -6.3100    0.6360 C.3    23  TYR23       0.0534
     15  CG        -9.8950   -5.5280    1.8560 C.ar   23  TYR23      -0.0201
     16  CD1       -8.5960   -5.3070    2.1630 C.ar   23  TYR23      -0.0009
     17  CD2      -10.9040   -5.0910    2.7450 C.ar   23  TYR23      -0.0009
     18  CE1       -8.2490   -4.5560    3.3280 C.ar   23  TYR23       0.0417
     19  CE2      -10.5950   -4.3560    3.9200 C.ar   23  TYR23       0.0417
     20  CZ        -9.2580   -4.1420    4.2120 C.ar   23  TYR23       0.1957
     21  OH        -8.9330   -3.4390    5.3720 O.3    23  TYR23      -0.2866
     22  N          3.9220    2.8120    5.8420 N.3   129  HIS129     -0.1297
     23  CA         3.1050    1.6050    5.8130 C.3   129  HIS129      0.1306
     24  C          3.7680    0.4850    5.0570 C.3   129  HIS129      0.2013
     25  O          3.3910   -0.7390    5.2080 O.3   129  HIS129     -0.2188
     26  CB         1.7320    1.9850    5.2260 C.3   129  HIS129      0.0691
     27  CG         0.6080    1.1420    5.7360 C.ar  129  HIS129      0.0814
     28  ND1        0.0590    1.3430    6.9790 N.ar  129  HIS129     -0.2268
     29  CD2       -0.1040    0.1470    5.1480 C.ar  129  HIS129      0.1154
     30  CE1       -0.9680    0.5240    7.1340 C.ar  129  HIS129      0.1986
     31  NE2       -1.0880   -0.2090    6.0340 N.ar  129  HIS129     -0.2212
     32  N          2.4260   -8.6260    3.6460 N.3   138  PHE138     -0.1227
     33  CA         0.9870   -8.3570    3.4460 C.3   138  PHE138      0.1736
     34  C          0.8550   -7.5800    2.1590 C.2   138  PHE138      0.2595
     35  O          1.7160   -6.7750    1.8200 O.2   138  PHE138     -0.2718
     36  CB         0.4340   -7.4480    4.5380 C.3   138  PHE138      0.0547
     37  CG         0.5790   -8.0300    5.9710 C.ar  138  PHE138     -0.0202
     38  CD1        0.7330   -9.4060    6.1850 C.ar  138  PHE138     -0.0042
     39  CD2        0.5190   -7.1630    7.0510 C.ar  138  PHE138     -0.0042
     40  CE1        0.8000   -9.9250    7.5130 C.ar  138  PHE138     -0.0003
     41  CE2        0.5840   -7.6510    8.3740 C.ar  138  PHE138     -0.0003
     42  CZ         0.7490   -9.0310    8.6000 C.ar  138  PHE138     -0.0000
     43  N         -0.2940   -7.7190    1.4820 N.am  139  ASP139     -0.1960
     44  CA        -0.4320   -6.8560    0.2820 C.3   139  ASP139      0.1840
     45  C         -0.4080   -5.3470    0.6650 C.2   139  ASP139      0.2622
     46  O          0.0100   -4.5000   -0.1540 O.2   139  ASP139     -0.2715
     47  CB        -1.6540   -7.2220   -0.5720 C.3   139  ASP139      0.1450
     48  CG        -2.9750   -7.2630    0.2340 C.2   139  ASP139      0.3671
     49  OD1       -3.0660   -6.6810    1.3280 O.co2 139  ASP139     -0.2456
     50  OD2       -3.9550   -7.7850   -0.3040 O.co2 139  ASP139     -0.2456
     51  N         -0.8390   -5.0350    1.8970 N.am  140  ASN140     -0.1972
     52  CA        -0.8770   -3.6540    2.3230 C.3   140  ASN140      0.1688
     53  C          0.5080   -3.0630    2.6280 C.2   140  ASN140      0.2292
     54  O          0.6290   -1.8620    2.9230 O.2   140  ASN140     -0.2864
     55  CB        -1.8810   -3.5180    3.4740 C.3   140  ASN140      0.1181
     56  CG        -1.4870   -4.3320    4.6680 C.2   140  ASN140      0.2629
     57  OD1       -0.3800   -4.1850    5.1900 O.2   140  ASN140     -0.2716
     58  ND2       -2.3200   -5.3200    5.0280 N.am  140  ASN140     -0.0877
     59  N          4.6350    0.3700    9.7770 N.3   185  ASN185     -0.1225
     60  CA         3.3720   -0.3030   10.0400 C.3   185  ASN185      0.1785
     61  C          3.6590   -1.8350   10.1540 C.2   185  ASN185      0.2597
     62  O          4.3200   -2.4020    9.2550 O.2   185  ASN185     -0.2718
     63  CB         2.4110   -0.0900    8.8730 C.3   185  ASN185      0.1169
     64  CG         1.1230   -0.8420    9.1230 C.2   185  ASN185      0.2627
     65  OD1        0.4630   -0.5640   10.1670 O.2   185  ASN185     -0.2716
     66  ND2        0.8320   -1.9120    8.3240 N.am  185  ASN185     -0.0877
     67  N          3.1560   -2.4860   11.2100 N.am  186  GLU186     -0.1979
     68  CA         3.1560   -3.9620   11.3600 C.3   186  GLU186      0.1602
     69  C          4.3500   -4.7170   10.7710 C.2   186  GLU186      0.2287
     70  O          4.2210   -5.5690    9.9080 O.2   186  GLU186     -0.2864
     71  CB         1.8170   -4.6270   10.9400 C.3   186  GLU186      0.0415
     72  CG         1.5420   -5.9360   11.7230 C.3   186  GLU186      0.1163
     73  CD         0.0610   -6.1780   11.9210 C.2   186  GLU186      0.3649
     74  OE1       -0.3620   -6.5310   13.0530 O.co2 186  GLU186     -0.2457
     75  OE2       -0.6690   -5.9670   10.9400 O.co2 186  GLU186     -0.2457
     76  N          6.4200   -7.8240   10.8550 N.3   188  LEU188     -0.1245
     77  CA         5.8500   -9.0700   11.2910 C.3   188  LEU188      0.1561
     78  C          6.9220   -9.7170   12.1740 C.2   188  LEU188      0.2260
     79  O          7.7280  -10.4810   11.7040 O.2   188  LEU188     -0.2867
     80  CB         5.4980   -9.9320   10.1000 C.3   188  LEU188      0.0270
     81  CG         4.8040  -11.2710   10.3980 C.3   188  LEU188      0.0019
     82  CD1        3.4480  -11.0910   11.1210 C.3   188  LEU188      0.0001
     83  CD2        4.6180  -11.9830    9.0660 C.3   188  LEU188      0.0001
     84  N          3.4420   -7.2160   16.4780 N.3   223  ALA223     -0.1245
     85  CA         2.7260   -8.4720   16.7750 C.3   223  ALA223      0.1562
     86  C          3.2390   -9.1800   18.0470 C.2   223  ALA223      0.2260
     87  O          3.0660  -10.3760   18.2150 O.2   223  ALA223     -0.2867
     88  CB         2.7270   -9.4580   15.4820 C.3   223  ALA223      0.0290
     89  N         -2.4140   -3.2060   17.0890 N.3   247  HIS247     -0.1241
     90  CA        -3.5520   -3.4320   16.1600 C.3   247  HIS247      0.1621
     91  C         -4.3090   -4.6470   16.6290 C.2   247  HIS247      0.2264
     92  O         -3.6960   -5.5810   17.2030 O.2   247  HIS247     -0.2867
     93  CB        -3.0530   -3.6940   14.7540 C.3   247  HIS247      0.0745
     94  CG        -2.4200   -2.4730   14.1480 C.ar  247  HIS247      0.0817
     95  ND1       -1.8100   -2.4610   12.9090 N.ar  247  HIS247     -0.2268
     96  CD2       -2.2630   -1.2340   14.6540 C.ar  247  HIS247      0.1154
     97  CE1       -1.3760   -1.2430   12.6400 C.ar  247  HIS247      0.1986
     98  NE2       -1.6090   -0.4830   13.7000 N.ar  247  HIS247     -0.2212
     99  N         -7.5800   -7.4460   15.8470 N.3   249  TYR249     -0.1241
    100  CA        -8.7220   -8.0360   15.0990 C.3   249  TYR249      0.1605
    101  C         -8.9840   -9.4220   15.6220 C.2   249  TYR249      0.2264
    102  O         -8.1480  -10.0190   16.3690 O.2   249  TYR249     -0.2867
    103  CB        -8.4140   -8.1990   13.6390 C.3   249  TYR249      0.0534
    104  CG        -7.8470   -6.9710   12.9920 C.ar  249  TYR249     -0.0201
    105  CD1       -8.6790   -5.9310   12.5580 C.ar  249  TYR249     -0.0009
    106  CD2       -6.4610   -6.8340   12.8730 C.ar  249  TYR249     -0.0009
    107  CE1       -8.0910   -4.7350   11.9750 C.ar  249  TYR249      0.0417
    108  CE2       -5.9080   -5.6950   12.2650 C.ar  249  TYR249      0.0417
    109  CZ        -6.7170   -4.6880   11.8370 C.ar  249  TYR249      0.1957
    110  OH        -6.1090   -3.6050   11.2390 O.3   249  TYR249     -0.2866
    111  N         -8.5050  -13.1550   11.7000 N.3   252  PHE252     -0.1227
    112  CA        -7.4340  -13.6680   10.8150 C.3   252  PHE252      0.1736
    113  C         -6.9030  -15.0200   11.2360 C.2   252  PHE252      0.2596
    114  O         -5.7910  -15.3880   10.8870 O.2   252  PHE252     -0.2718
    115  CB        -6.3360  -12.6460   10.6700 C.3   252  PHE252      0.0547
    116  CG        -6.7890  -11.4360    9.9350 C.ar  252  PHE252     -0.0202
    117  CD1       -6.8400  -10.1830   10.5500 C.ar  252  PHE252     -0.0042
    118  CD2       -7.2050  -11.5630    8.6150 C.ar  252  PHE252     -0.0042
    119  CE1       -7.3040   -9.0450    9.8130 C.ar  252  PHE252     -0.0003
    120  CE2       -7.5970  -10.4180    7.8580 C.ar  252  PHE252     -0.0003
    121  CZ        -7.6960   -9.1790    8.4680 C.ar  252  PHE252     -0.0000
    122  N         -7.7080  -15.7640   11.9950 N.am  253  SER253     -0.1952
    123  CA        -7.4290  -17.1950   12.1690 C.3   253  SER253      0.1924
    124  C         -8.7450  -17.8870   12.3970 C.2   253  SER253      0.2314
    125  O         -9.7230  -17.2330   12.8150 O.2   253  SER253     -0.2863
    126  CB        -6.5400  -17.5030   13.3940 C.3   253  SER253      0.2116
    127  OG        -7.1970  -17.0560   14.5630 O.3   253  SER253     -0.2180
    128  N         -9.8910  -17.5950   16.2100 N.3   256  GLU256     -0.1245
    129  CA       -10.4330  -16.3310   16.7140 C.3   256  GLU256      0.1567
    130  C        -11.8530  -16.1490   16.1170 C.2   256  GLU256      0.2260
    131  O        -12.7720  -15.7020   16.7800 O.2   256  GLU256     -0.2867
    132  CB        -9.5430  -15.2180   16.1750 C.3   256  GLU256      0.0388
    133  CG        -8.2130  -15.0950   16.9870 C.3   256  GLU256      0.1160
    134  CD        -7.2190  -14.2460   16.1830 C.2   256  GLU256      0.3649
    135  OE1       -6.5930  -14.7550   15.1990 O.co2 256  GLU256     -0.2457
    136  OE2       -7.1080  -13.0940   16.5510 O.co2 256  GLU256     -0.2457
    137  N         -5.2600    0.4170   14.6410 N.3   286  SER286     -0.1217
    138  CA        -6.0100   -0.2440   13.5630 C.3   286  SER286      0.1889
    139  C         -6.8290   -1.3320   14.1920 C.2   286  SER286      0.2288
    140  O         -6.3080   -2.0920   15.0040 O.2   286  SER286     -0.2866
    141  CB        -5.0330   -0.8120   12.5060 C.3   286  SER286      0.2089
    142  OG        -5.8010   -1.1900   11.3650 O.3   286  SER286     -0.2183
    143  N        -10.0670   -9.7840    1.3490 N.3   298  LEU298     -0.1231
    144  CA        -9.4710   -9.3010    2.6230 C.3   298  LEU298      0.1693
    145  C         -8.1210  -10.0720    2.8920 C.2   298  LEU298      0.2592
    146  O         -7.1640   -9.4860    3.4560 O.2   298  LEU298     -0.2718
    147  CB       -10.4420   -9.5190    3.7690 C.3   298  LEU298      0.0284
    148  CG        -9.8290   -9.0790    5.0890 C.3   298  LEU298      0.0019
    149  CD1       -9.8610   -7.5960    5.1710 C.3   298  LEU298      0.0001
    150  CD2      -10.7200   -9.6600    6.1630 C.3   298  LEU298      0.0001
    151  N         -8.0600  -11.3850    2.5990 N.am  299  ASN299     -0.1974
    152  CA        -6.8560  -12.1740    2.8980 C.3   299  ASN299      0.1688
    153  C         -5.8530  -12.0810    1.7350 C.2   299  ASN299      0.2292
    154  O         -4.7630  -12.6010    1.7950 O.2   299  ASN299     -0.2864
    155  CB        -7.2730  -13.5910    3.1200 C.3   299  ASN299      0.1181
    156  CG        -8.0460  -13.7400    4.3900 C.2   299  ASN299      0.2629
    157  OD1       -7.6420  -13.1810    5.4100 O.2   299  ASN299     -0.2716
    158  ND2       -9.1010  -14.4870    4.3660 N.am  299  ASN299     -0.0877
    159  N        -11.6310  -17.6420    5.5550 N.3   306  ARG306     -0.1245
    160  CA       -11.6570  -18.7190    6.5730 C.3   306  ARG306      0.1563
    161  C        -13.0870  -18.9290    7.1000 C.2   306  ARG306      0.2260
    162  O        -13.4570  -20.0490    7.5470 O.2   306  ARG306     -0.2867
    163  CB       -10.7990  -18.3360    7.7620 C.3   306  ARG306      0.0307
    164  CG        -9.3500  -18.1640    7.4360 C.3   306  ARG306      0.0489
    165  CD        -8.6170  -17.6910    8.7780 C.3   306  ARG306      0.2205
    166  NE        -7.2760  -17.2390    8.4260 N.pl3 306  ARG306     -0.0865
    167  CZ        -7.0240  -16.0990    7.7800 C.cat 306  ARG306      0.5346
    168  NH1       -5.7810  -15.7830    7.4980 N.pl3 306  ARG306      0.1354
    169  NH2       -8.0050  -15.2300    7.5030 N.pl3 306  ARG306      0.1354
    170  N        -10.0110    1.0840   11.2700 N.3   357  TRP357     -0.1241
    171  CA        -9.5530    0.7170    9.9290 C.3   357  TRP357      0.1605
    172  C        -10.8300    0.3090    9.1550 C.2   357  TRP357      0.2264
    173  O        -11.3620   -0.7760    9.3680 O.2   357  TRP357     -0.2867
    174  CB        -8.4780   -0.4310    9.8980 C.3   357  TRP357      0.0550
    175  CG        -8.0340   -0.4990    8.4420 C.ar  357  TRP357      0.0003
    176  CD1       -8.6910   -1.0960    7.4010 C.ar  357  TRP357      0.0946
    177  CD2       -6.9010    0.1630    7.8820 C.ar  357  TRP357      0.0152
    178  NE1       -8.0040   -0.8890    6.2100 N.ar  357  TRP357     -0.2442
    179  CE2       -6.8850   -0.1420    6.4820 C.ar  357  TRP357      0.0810
    180  CE3       -5.8680    0.9310    8.4300 C.ar  357  TRP357      0.0012
    181  CZ2       -5.8940    0.3450    5.6210 C.ar  357  TRP357      0.0191
    182  CZ3       -4.8270    1.3360    7.6140 C.ar  357  TRP357      0.0001
    183  CH2       -4.8570    1.0680    6.2000 C.ar  357  TRP357      0.0015
    184  N        -15.4220   -2.7670    7.3510 N.3   367  TRP367     -0.1241
    185  CA       -14.1570   -2.0680    7.3250 C.3   367  TRP367      0.1605
    186  C        -14.3550   -0.5930    6.9320 C.2   367  TRP367      0.2264
    187  O        -13.4060    0.1130    6.6130 O.2   367  TRP367     -0.2867
    188  CB       -13.2160   -2.7930    6.3190 C.3   367  TRP367      0.0550
    189  CG       -13.0130   -4.2030    6.6890 C.ar  367  TRP367      0.0003
    190  CD1      -13.7140   -5.2760    6.2650 C.ar  367  TRP367      0.0946
    191  CD2      -11.9650   -4.7030    7.5470 C.ar  367  TRP367      0.0152
    192  NE1      -13.2110   -6.4270    6.8300 N.ar  367  TRP367     -0.2442
    193  CE2      -12.1360   -6.1120    7.6190 C.ar  367  TRP367      0.0810
    194  CE3      -10.9410   -4.0850    8.2910 C.ar  367  TRP367      0.0012
    195  CZ2      -11.3190   -6.9480    8.4140 C.ar  367  TRP367      0.0191
    196  CZ3      -10.1060   -4.8990    9.0750 C.ar  367  TRP367      0.0001
    197  CH2      -10.3060   -6.3270    9.1250 C.ar  367  TRP367      0.0015
@<TRIPOS>BOND
     1     4     3    2
     2     3     2    1
     3     1     2    1
     4    10    11    1
     5     2     5    1
     6    11    12    1
     7    11    14    1
     8    47    48    1
     9    47    44    1
    10    12    13    2
    11    50    48   ar
    12    46    45    2
    13    48    49   ar
    14    44    45    1
    15    44    43    1
    16     5     6    1
    17    14    15    1
    18    45    51   am
    19     6     7    1
    20   143   144    1
    21    43    34   am
    22   153   154    2
    23   153   152    1
    24    35    34    2
    25    15    16   ar
    26    15    17   ar
    27    51    52    1
    28    34    33    1
    29    16    18   ar
    30    52    53    1
    31    52    55    1
    32   151   145   am
    33   151   152    1
    34   144   145    1
    35   144   147    1
    36    53    54    2
    37    17    19   ar
    38     7     8   ar
    39     7     9   ar
    40   145   146    2
    41   152   155    1
    42   155   156    1
    43    18    20   ar
    44    33    32    1
    45    33    36    1
    46    55    56    1
    47   147   148    1
    48    19    20   ar
    49    20    21    1
    50   158   156   am
    51   156   157    2
    52    36    37    1
    53    56    58   am
    54    56    57    2
    55    24    25    1
    56    24    23    1
    57   148   149    1
    58   148   150    1
    59    29    27   ar
    60    29    31   ar
    61    26    27    1
    62    26    23    1
    63   159   160    1
    64   181   183   ar
    65   181   179   ar
    66    27    28   ar
    67    23    22    1
    68    37    38   ar
    69    37    39   ar
    70    31    30   ar
    71    38    40   ar
    72   183   182   ar
    73   178   179   ar
    74   178   176   ar
    75   190   189   ar
    76   190   192   ar
    77   188   189    1
    78   188   185    1
    79   179   177   ar
    80   160   161    1
    81   160   163    1
    82   187   186    2
    83   189   191   ar
    84   192   193   ar
    85   186   185    1
    86    28    30   ar
    87    39    41   ar
    88   161   162    2
    89   185   184    1
    90   176   175   ar
    91   164   163    1
    92   164   165    1
    93   168   167    1
    94   169   167    1
    95    40    42   ar
    96   191   193   ar
    97   191   194   ar
    98   182   180   ar
    99   193   195   ar
   100   167   166    2
   101   120   121   ar
   102   120   118   ar
   103   177   180   ar
   104   177   175   ar
   105   194   196   ar
   106    66    64   am
   107    41    42   ar
   108   195   197   ar
   109   166   165    1
   110   175   174    1
   111   121   119   ar
   112   118   116   ar
   113    63    64    1
   114    63    60    1
   115    83    81    1
   116   196   197   ar
   117    64    65    2
   118   172   173    2
   119   172   171    1
   120    62    61    2
   121    59    60    1
   122   119   117   ar
   123   174   171    1
   124    70    69    2
   125   171   170    1
   126   116   117   ar
   127   116   115    1
   128    60    61    1
   129    80    81    1
   130    80    77    1
   131    61    67   am
   132    81    82    1
   133   115   112    1
   134    69    68    1
   135   112   113    1
   136   112   111    1
   137    76    77    1
   138   114   113    2
   139    75    73   ar
   140    71    68    1
   141    71    72    1
   142    67    68    1
   143   113   122   am
   144   110   109    1
   145    77    78    1
   146   142   141    1
   147    79    78    2
   148    72    73    1
   149   109   107   ar
   150   109   108   ar
   151    73    74   ar
   152   107   105   ar
   153   122   123    1
   154   123   124    1
   155   123   126    1
   156   108   106   ar
   157   124   125    2
   158   141   138    1
   159   105   104   ar
   160    97    95   ar
   161    97    98   ar
   162   106   104   ar
   163    95    94   ar
   164   104   103    1
   165   126   127    1
   166   138   139    1
   167   138   137    1
   168   103   100    1
   169    98    96   ar
   170    94    96   ar
   171    94    93    1
   172   139   140    2
   173    93    90    1
   174   100   101    1
   175   100    99    1
   176   135   134   ar
   177    88    85    1
   178   101   102    2
   179   130   129    1
   180   130   131    2
   181    90    91    1
   182    90    89    1
   183   132   129    1
   184   132   133    1
   185   134   136   ar
   186   134   133    1
   187   128   129    1
   188    84    85    1
   189    91    92    2
   190    85    86    1
   191    86    87    2
