@<TRIPOS>MOLECULE
tmp/3n9oA00.pdb
 178 180 0 0 0
SMALL
GASTEIGER

@<TRIPOS>ATOM
      1  N         40.9210   22.3390   35.6920 N.3     5  ASP5       -0.1239
      2  CA        39.6380   21.6480   35.7420 C.3     5  ASP5        0.1674
      3  C         38.4360   22.5880   35.6600 C.2     5  ASP5        0.2266
      4  O         37.3350   22.2220   36.0690 O.2     5  ASP5       -0.2867
      5  CB        39.5400   20.8030   37.0180 C.3     5  ASP5        0.1410
      6  CG        40.5630   19.6760   37.0580 C.2     5  ASP5        0.3668
      7  OD1       41.0320   19.2540   35.9780 O.co2   5  ASP5       -0.2456
      8  OD2       40.8970   19.2110   38.1730 O.co2   5  ASP5       -0.2456
      9  N         24.3120   16.1000   32.3600 N.3    21  ASP21      -0.1225
     10  CA        24.7550   15.0540   33.2610 C.3    21  ASP21       0.1805
     11  C         25.9620   15.6850   33.9310 C.2    21  ASP21       0.2598
     12  O         25.9870   16.8960   34.1460 O.2    21  ASP21      -0.2718
     13  CB        25.1870   13.8090   32.4850 C.3    21  ASP21       0.1424
     14  CG        25.4340   12.6150   33.3850 C.2    21  ASP21       0.3668
     15  OD1       24.4850   12.1840   34.0760 O.co2  21  ASP21      -0.2456
     16  OD2       26.5760   12.1040   33.3970 O.co2  21  ASP21      -0.2456
     17  N         26.9680   14.8820   34.2490 N.am   22  PHE22      -0.1962
     18  CA        28.2010   15.4320   34.7960 C.3    22  PHE22       0.1771
     19  C         29.3590   15.0660   33.8830 C.2    22  PHE22       0.2619
     20  O         30.3320   14.4540   34.3200 O.2    22  PHE22      -0.2715
     21  CB        28.4550   14.9090   36.2110 C.3    22  PHE22       0.0574
     22  CG        27.3450   15.2070   37.1730 C.ar   22  PHE22      -0.0200
     23  CD1       27.1540   16.4930   37.6550 C.ar   22  PHE22      -0.0042
     24  CD2       26.4900   14.2020   37.5980 C.ar   22  PHE22      -0.0042
     25  CE1       26.1310   16.7720   38.5400 C.ar   22  PHE22      -0.0003
     26  CE2       25.4650   14.4740   38.4830 C.ar   22  PHE22      -0.0003
     27  CZ        25.2840   15.7620   38.9550 C.ar   22  PHE22      -0.0000
     28  N         29.2540   15.4480   32.6140 N.am   23  GLN23      -0.1963
     29  CA        30.1830   14.9500   31.6030 C.3    23  GLN23       0.1733
     30  C         31.0320   16.0230   30.9210 C.2    23  GLN23       0.2616
     31  O         30.5550   17.1130   30.6050 O.2    23  GLN23      -0.2715
     32  CB        29.4300   14.1330   30.5550 C.3    23  GLN23       0.0408
     33  CG        28.4460   13.1460   31.1400 C.3    23  GLN23       0.0908
     34  CD        28.3480   11.8830   30.3190 C.2    23  GLN23       0.2608
     35  OE1       27.3230   11.6140   29.6890 O.2    23  GLN23      -0.2717
     36  NE2       29.4210   11.0980   30.3150 N.am   23  GLN23      -0.0878
     37  N         32.2950   15.6830   30.6900 N.am   24  TRP24      -0.1960
     38  CA        33.2550   16.5940   30.0850 C.3    24  TRP24       0.1771
     39  C         33.8720   15.9810   28.8370 C.2    24  TRP24       0.2620
     40  O         33.8890   14.7610   28.6720 O.2    24  TRP24      -0.2715
     41  CB        34.3920   16.8950   31.0670 C.3    24  TRP24       0.0590
     42  CG        33.9740   17.4260   32.4100 C.ar   24  TRP24       0.0006
     43  CD1       33.3100   16.7490   33.3940 C.ar   24  TRP24       0.0946
     44  CD2       34.2320   18.7360   32.9310 C.ar   24  TRP24       0.0152
     45  NE1       33.1220   17.5620   34.4860 N.ar   24  TRP24      -0.2442
     46  CE2       33.6810   18.7870   34.2270 C.ar   24  TRP24       0.0810
     47  CE3       34.8660   19.8750   32.4220 C.ar   24  TRP24       0.0012
     48  CZ2       33.7470   19.9320   35.0220 C.ar   24  TRP24       0.0191
     49  CZ3       34.9290   21.0100   33.2120 C.ar   24  TRP24       0.0001
     50  CH2       34.3750   21.0290   34.4970 C.ar   24  TRP24       0.0015
     51  N         34.3890   16.8390   27.9650 N.am   25  ILE25      -0.1963
     52  CA        35.2390   16.4090   26.8620 C.3    25  ILE25       0.1727
     53  C         36.4430   17.3450   26.7940 C.2    25  ILE25       0.2617
     54  O         36.3040   18.5580   26.9710 O.2    25  ILE25      -0.2715
     55  CB        34.4930   16.3990   25.5050 C.3    25  ILE25       0.0290
     56  CG1       35.3980   15.8490   24.4000 C.3    25  ILE25       0.0022
     57  CG2       34.0000   17.7940   25.1330 C.3    25  ILE25       0.0023
     58  CD1       34.6840   15.6090   23.0920 C.3    25  ILE25       0.0001
     59  N         37.6230   16.7780   26.5570 N.am   26  GLY26      -0.1940
     60  CA        38.8460   17.5580   26.5030 C.3    26  GLY26       0.2014
     61  C         39.3000   17.8890   25.0920 C.2    26  GLY26       0.2639
     62  O         39.1930   17.0650   24.1820 O.2    26  GLY26      -0.2714
     63  N         39.8130   19.1020   24.9040 N.am   27  CYS27      -0.1953
     64  CA        40.3470   19.4990   23.6040 C.3    27  CYS27       0.1843
     65  C         41.7040   18.8600   23.3550 C.2    27  CYS27       0.2625
     66  O         42.5870   18.9210   24.2020 O.2    27  CYS27      -0.2714
     67  CB        40.4710   21.0160   23.4990 C.3    27  CYS27       0.0997
     68  SG        40.9560   21.5950   21.8470 S.3    27  CYS27      -0.0797
     69  N         41.8670   18.2570   22.1840 N.am   28  ASP28      -0.1971
     70  CA        43.1100   17.5710   21.8450 C.3    28  ASP28       0.1709
     71  C         44.2210   18.5260   21.4140 C.2    28  ASP28       0.2293
     72  O         45.3540   18.1050   21.1770 O.2    28  ASP28      -0.2864
     73  CB        42.8620   16.5120   20.7690 C.3    28  ASP28       0.1436
     74  CG        42.2810   15.2280   21.3410 C.2    28  ASP28       0.3671
     75  OD1       41.2030   14.7990   20.8730 O.co2  28  ASP28      -0.2456
     76  OD2       42.8960   14.6580   22.2690 O.co2  28  ASP28      -0.2456
     77  N         44.0730   21.3400   25.2160 N.3    31  GLN31      -0.1245
     78  CA        43.9550   20.5090   26.4090 C.3    31  GLN31       0.1566
     79  C         42.9970   21.0430   27.4740 C.2    31  GLN31       0.2260
     80  O         42.9180   20.4800   28.5650 O.2    31  GLN31      -0.2867
     81  CB        45.3320   20.2580   27.0390 C.3    31  GLN31       0.0367
     82  CG        46.4450   19.9850   26.0370 C.3    31  GLN31       0.0905
     83  CD        46.1680   18.7820   25.1600 C.2    31  GLN31       0.2608
     84  OE1       45.6700   17.7560   25.6300 O.2    31  GLN31      -0.2717
     85  NE2       46.4990   18.8970   23.8770 N.am   31  GLN31      -0.0878
     86  N         39.3640   21.6230   29.2870 N.3    33  TRP33      -0.1241
     87  CA        38.1810   20.7880   29.4410 C.3    33  TRP33       0.1605
     88  C         36.8910   21.5760   29.2520 C.2    33  TRP33       0.2264
     89  O         36.7780   22.7330   29.6660 O.2    33  TRP33      -0.2867
     90  CB        38.1780   20.1160   30.8130 C.3    33  TRP33       0.0550
     91  CG        39.1750   19.0020   30.9520 C.ar   33  TRP33       0.0003
     92  CD1       40.4520   19.0970   31.4240 C.ar   33  TRP33       0.0946
     93  CD2       38.9700   17.6190   30.6300 C.ar   33  TRP33       0.0152
     94  NE1       41.0570   17.8610   31.4150 N.ar   33  TRP33      -0.2442
     95  CE2       40.1680   16.9370   30.9310 C.ar   33  TRP33       0.0810
     96  CE3       37.8900   16.8900   30.1180 C.ar   33  TRP33       0.0012
     97  CZ2       40.3150   15.5610   30.7340 C.ar   33  TRP33       0.0191
     98  CZ3       38.0420   15.5230   29.9220 C.ar   33  TRP33       0.0001
     99  CH2       39.2440   14.8760   30.2290 C.ar   33  TRP33       0.0015
    100  N         30.1990   18.7840   28.2140 N.3    36  PHE36      -0.1241
    101  CA        29.6170   18.4260   26.9280 C.3    36  PHE36       0.1605
    102  C         28.7390   19.5300   26.3500 C.2    36  PHE36       0.2264
    103  O         28.8860   19.8950   25.1830 O.2    36  PHE36      -0.2867
    104  CB        28.8290   17.1210   27.0320 C.3    36  PHE36       0.0534
    105  CG        29.6490   15.9020   26.7300 C.ar   36  PHE36      -0.0203
    106  CD1       30.2060   15.1510   27.7520 C.ar   36  PHE36      -0.0042
    107  CD2       29.8790   15.5160   25.4210 C.ar   36  PHE36      -0.0042
    108  CE1       30.9670   14.0260   27.4780 C.ar   36  PHE36      -0.0003
    109  CE2       30.6380   14.3930   25.1350 C.ar   36  PHE36      -0.0003
    110  CZ        31.1840   13.6460   26.1680 C.ar   36  PHE36      -0.0000
    111  N         28.9050   13.0340   20.1140 N.3    46  TYR46      -0.1227
    112  CA        29.7470   12.6840   21.2530 C.3    46  TYR46       0.1736
    113  C         30.7180   11.5270   20.9860 C.2    46  TYR46       0.2595
    114  O         31.7460   11.4220   21.6490 O.2    46  TYR46      -0.2718
    115  CB        28.9070   12.4180   22.5150 C.3    46  TYR46       0.0548
    116  CG        28.2360   13.6570   23.0920 C.ar   46  TYR46      -0.0200
    117  CD1       28.5580   14.9350   22.6210 C.ar   46  TYR46      -0.0009
    118  CD2       27.3040   13.5550   24.1270 C.ar   46  TYR46      -0.0009
    119  CE1       27.9520   16.0730   23.1440 C.ar   46  TYR46       0.0417
    120  CE2       26.6930   14.6920   24.6600 C.ar   46  TYR46       0.0417
    121  CZ        27.0250   15.9490   24.1650 C.ar   46  TYR46       0.1957
    122  OH        26.4280   17.0800   24.6910 O.3    46  TYR46      -0.2866
    123  N         30.4090   10.6670   20.0170 N.am   47  TYR47      -0.1976
    124  CA        31.2320    9.4730   19.8070 C.3    47  TYR47       0.1639
    125  C         31.9710    9.4580   18.4660 C.2    47  TYR47       0.2290
    126  O         32.7090    8.5220   18.1740 O.2    47  TYR47      -0.2864
    127  CB        30.3830    8.2000   19.9440 C.3    47  TYR47       0.0560
    128  CG        29.6470    7.8160   18.6740 C.ar   47  TYR47      -0.0198
    129  CD1       30.1340    6.8200   17.8410 C.ar   47  TYR47      -0.0009
    130  CD2       28.4690    8.4620   18.3000 C.ar   47  TYR47      -0.0009
    131  CE1       29.4660    6.4640   16.6680 C.ar   47  TYR47       0.0417
    132  CE2       27.7970    8.1150   17.1270 C.ar   47  TYR47       0.0417
    133  CZ        28.3000    7.1120   16.3160 C.ar   47  TYR47       0.1957
    134  OH        27.6470    6.7620   15.1490 O.3    47  TYR47      -0.2866
    135  N         34.2310   11.6770   17.0130 N.3    49  TYR49      -0.1227
    136  CA        35.5440   12.2760   16.8250 C.3    49  TYR49       0.1736
    137  C         36.6520   11.5690   17.5920 C.2    49  TYR49       0.2595
    138  O         36.5660   11.3670   18.8060 O.2    49  TYR49      -0.2718
    139  CB        35.4900   13.7610   17.1740 C.3    49  TYR49       0.0548
    140  CG        34.4390   14.4860   16.3810 C.ar   49  TYR49      -0.0200
    141  CD1       34.4790   14.4850   14.9980 C.ar   49  TYR49      -0.0009
    142  CD2       33.4030   15.1670   17.0100 C.ar   49  TYR49      -0.0009
    143  CE1       33.5240   15.1400   14.2560 C.ar   49  TYR49       0.0417
    144  CE2       32.4320   15.8300   16.2760 C.ar   49  TYR49       0.0417
    145  CZ        32.5010   15.8110   14.8950 C.ar   49  TYR49       0.1957
    146  OH        31.5500   16.4540   14.1370 O.3    49  TYR49      -0.2866
    147  N         37.6850   11.1790   16.8560 N.am   50  GLU50      -0.1979
    148  CA        38.8730   10.5800   17.4360 C.3    50  GLU50       0.1602
    149  C         39.7110   11.6830   18.0800 C.2    50  GLU50       0.2287
    150  O         40.2290   11.5310   19.1880 O.2    50  GLU50      -0.2864
    151  CB        39.6680    9.8600   16.3480 C.3    50  GLU50       0.0415
    152  CG        40.8870    9.1230   16.8560 C.3    50  GLU50       0.1163
    153  CD        41.2730    7.9840   15.9450 C.2    50  GLU50       0.3649
    154  OE1       41.9010    7.0140   16.4300 O.co2  50  GLU50      -0.2457
    155  OE2       40.9330    8.0550   14.7430 O.co2  50  GLU50      -0.2457
    156  N         39.1400   15.6760   19.1000 N.3    52  PHE52      -0.1241
    157  CA        38.2340   16.8120   19.2200 C.3    52  PHE52       0.1605
    158  C         39.0030   18.1200   19.3190 C.2    52  PHE52       0.2264
    159  O         39.8780   18.2730   20.1660 O.2    52  PHE52      -0.2867
    160  CB        37.3250   16.6630   20.4470 C.3    52  PHE52       0.0534
    161  CG        36.5780   17.9230   20.8060 C.ar   52  PHE52      -0.0203
    162  CD1       36.7760   18.5370   22.0340 C.ar   52  PHE52      -0.0042
    163  CD2       35.6890   18.5010   19.9110 C.ar   52  PHE52      -0.0042
    164  CE1       36.0930   19.7020   22.3700 C.ar   52  PHE52      -0.0003
    165  CE2       35.0030   19.6650   20.2370 C.ar   52  PHE52      -0.0003
    166  CZ        35.2050   20.2650   21.4720 C.ar   52  PHE52      -0.0000
    167  N         36.5870    9.3390   13.6270 N.3    67  TYR67      -0.1241
    168  CA        37.0810    7.9700   13.5030 C.3    67  TYR67       0.1605
    169  C         36.9260    7.4550   12.0820 C.2    67  TYR67       0.2264
    170  O         36.0500    7.8990   11.3420 O.2    67  TYR67      -0.2867
    171  CB        36.3500    7.0330   14.4700 C.3    67  TYR67       0.0534
    172  CG        36.7080    7.2250   15.9280 C.ar   67  TYR67      -0.0201
    173  CD1       37.7690    6.5300   16.4970 C.ar   67  TYR67      -0.0009
    174  CD2       35.9770    8.0900   16.7380 C.ar   67  TYR67      -0.0009
    175  CE1       38.1050    6.6960   17.8260 C.ar   67  TYR67       0.0417
    176  CE2       36.2970    8.2590   18.0740 C.ar   67  TYR67       0.0417
    177  CZ        37.3680    7.5590   18.6150 C.ar   67  TYR67       0.1957
    178  OH        37.7020    7.7200   19.9450 O.3    67  TYR67      -0.2866
@<TRIPOS>BOND
     1   170   169    2
     2   169   168    1
     3   168   167    1
     4   168   171    1
     5   146   145    1
     6   143   145   ar
     7   143   141   ar
     8   171   172    1
     9   155   153   ar
    10   145   144   ar
    11   141   140   ar
    12   134   133    1
    13   172   173   ar
    14   172   174   ar
    15   153   154   ar
    16   153   152    1
    17   144   142   ar
    18   133   131   ar
    19   133   132   ar
    20   151   152    1
    21   151   148    1
    22   140   142   ar
    23   140   139    1
    24   173   175   ar
    25   131   129   ar
    26   174   176   ar
    27   136   135    1
    28   136   139    1
    29   136   137    1
    30   147   148    1
    31   147   137   am
    32   132   130   ar
    33   148   149    1
    34   137   138    2
    35   175   177   ar
    36   129   128   ar
    37   176   177   ar
    38   149   150    2
    39   126   125    2
    40   130   128   ar
    41   125   124    1
    42   177   178    1
    43   128   127    1
    44   156   157    1
    45   157   158    1
    46   157   160    1
    47   158   159    2
    48   124   127    1
    49   124   123    1
    50   163   165   ar
    51   163   161   ar
    52   123   113   am
    53   111   112    1
    54   165   166   ar
    55   160   161    1
    56    73    74    1
    57    73    70    1
    58   161   162   ar
    59    75    74   ar
    60   113   112    1
    61   113   114    2
    62    72    71    2
    63   112   115    1
    64    74    76   ar
    65    71    70    1
    66   166   164   ar
    67    70    69    1
    68    68    67    1
    69   162   164   ar
    70    69    65   am
    71   115   116    1
    72   117   116   ar
    73   117   119   ar
    74    58    56    1
    75   116   118   ar
    76   119   121   ar
    77    65    64    1
    78    65    66    2
    79    67    64    1
    80    64    63    1
    81    85    83   am
    82   118   120   ar
    83   121   120   ar
    84   121   122    1
    85    62    61    2
    86    56    55    1
    87    63    61   am
    88    61    60    1
    89    57    55    1
    90   109   107   ar
    91   109   110   ar
    92    83    84    2
    93    83    82    1
    94   103   102    2
    95    77    78    1
    96   107   105   ar
    97    55    52    1
    98    82    81    1
    99   110   108   ar
   100   102   101    1
   101    78    81    1
   102    78    79    1
   103    60    59    1
   104    59    53   am
   105   105   104    1
   106   105   106   ar
   107    53    52    1
   108    53    54    2
   109    52    51    1
   110   101   104    1
   111   101   100    1
   112    79    80    2
   113   108   106   ar
   114    51    39   am
   115    40    39    2
   116    39    38    1
   117    88    87    1
   118    88    89    2
   119    86    87    1
   120    87    90    1
   121    35    34    2
   122    98    96   ar
   123    98    99   ar
   124    38    37    1
   125    38    41    1
   126    96    93   ar
   127    99    97   ar
   128    36    34   am
   129    34    33    1
   130    32    33    1
   131    32    29    1
   132    31    30    2
   133    93    95   ar
   134    93    91   ar
   135    37    30   am
   136    97    95   ar
   137    90    91    1
   138    30    29    1
   139    95    94   ar
   140    91    92   ar
   141    41    42    1
   142    94    92   ar
   143    29    28    1
   144     9    10    1
   145    42    44   ar
   146    42    43   ar
   147    47    44   ar
   148    47    49   ar
   149    13    10    1
   150    13    14    1
   151    28    19   am
   152    44    46   ar
   153    49    50   ar
   154    10    11    1
   155    14    16   ar
   156    14    15   ar
   157    43    45   ar
   158    19    20    2
   159    19    18    1
   160    11    12    2
   161    11    17   am
   162    46    45   ar
   163    46    48   ar
   164    17    18    1
   165    50    48   ar
   166    18    21    1
   167     3     2    1
   168     3     4    2
   169     1     2    1
   170     2     5    1
   171     7     6   ar
   172    21    22    1
   173     5     6    1
   174     6     8   ar
   175    22    24   ar
   176    22    23   ar
   177    24    26   ar
   178    23    25   ar
   179    26    27   ar
   180    25    27   ar
