@<TRIPOS>MOLECULE
tmp/3n9oA02.pdb
 120 110 0 0 0
SMALL
GASTEIGER

@<TRIPOS>ATOM
      1  N         17.5570    9.5400   10.6550 N.3   204  ASN204     -0.1240
      2  CA        16.1230    9.3780   10.4930 C.3   204  ASN204      0.1653
      3  C         15.4700    9.6860   11.8270 C.2   204  ASN204      0.2266
      4  O         15.6270    8.9240   12.7750 O.2   204  ASN204     -0.2867
      5  CB        15.8380    7.9260   10.0810 C.3   204  ASN204      0.1155
      6  CG        14.3550    7.6190    9.9160 C.2   204  ASN204      0.2627
      7  OD1       13.5510    8.5360    9.7030 O.2   204  ASN204     -0.2716
      8  ND2       13.9790    6.3440   10.0230 N.am  204  ASN204     -0.0877
      9  N         12.0040   10.0410   14.1420 N.3   206  LEU206     -0.1245
     10  CA        10.6290    9.5520   14.1670 C.3   206  LEU206      0.1561
     11  C          9.7970   10.2750   15.2230 C.2   206  LEU206      0.2260
     12  O          8.5980   10.0120   15.3750 O.2   206  LEU206     -0.2867
     13  CB        10.6030    8.0550   14.5070 C.3   206  LEU206      0.0270
     14  CG        11.5930    7.0960   13.8440 C.3   206  LEU206      0.0019
     15  CD1       11.4360    5.7000   14.4170 C.3   206  LEU206      0.0001
     16  CD2       11.4260    7.0830   12.3390 C.3   206  LEU206      0.0001
     17  N          7.8720   12.8350   10.8710 N.3   267  LEU267     -0.1245
     18  CA         9.0450   11.9790   10.6910 C.3   267  LEU267      0.1561
     19  C          9.7690   12.3540    9.4080 C.2   267  LEU267      0.2260
     20  O          9.1370   12.7130    8.4190 O.2   267  LEU267     -0.2867
     21  CB         8.6290   10.5030   10.6380 C.3   267  LEU267      0.0270
     22  CG         7.8330    9.9250   11.8090 C.3   267  LEU267      0.0019
     23  CD1        6.4020   10.4830   11.8750 C.3   267  LEU267      0.0001
     24  CD2        7.7900    8.4130   11.6800 C.3   267  LEU267      0.0001
     25  N         14.5100    1.1090   10.1580 N.3   275  THR275     -0.1218
     26  CA        14.0620    0.9620   11.5350 C.3   275  THR275      0.1862
     27  C         13.7240   -0.5120   11.7420 C.2   275  THR275      0.2287
     28  O         12.9550   -1.0840   10.9730 O.2   275  THR275     -0.2866
     29  CB        12.8170    1.8300   11.8110 C.3   275  THR275      0.1770
     30  OG1       13.1470    3.2130   11.6520 O.3   275  THR275     -0.2211
     31  CG2       12.2960    1.6060   13.2240 C.3   275  THR275      0.0375
     32  N          9.5230   -3.8430   15.7410 N.3   278  HIS278     -0.1241
     33  CA         9.0500   -3.4470   17.0470 C.3   278  HIS278      0.1621
     34  C          7.5380   -3.4180   16.9910 C.2   278  HIS278      0.2264
     35  O          6.9420   -3.4290   15.9190 O.2   278  HIS278     -0.2867
     36  CB         9.5610   -2.0370   17.3670 C.3   278  HIS278      0.0745
     37  CG         9.0600   -1.0000   16.4100 C.ar  278  HIS278      0.0817
     38  ND1        9.6390   -0.7850   15.1740 N.ar  278  HIS278     -0.2268
     39  CD2        8.0090   -0.1540   16.4870 C.ar  278  HIS278      0.1154
     40  CE1        8.9720    0.1600   14.5400 C.ar  278  HIS278      0.1986
     41  NE2        7.9800    0.5590   15.3120 N.ar  278  HIS278     -0.2212
     42  N          4.5710   -0.8510   18.3690 N.3   280  ASP280     -0.1239
     43  CA         4.4940    0.5050   18.9040 C.3   280  ASP280      0.1674
     44  C          4.0830    0.5220   20.3780 C.2   280  ASP280      0.2266
     45  O          3.2350   -0.2680   20.8180 O.2   280  ASP280     -0.2867
     46  CB         3.6090    1.4070   18.0460 C.3   280  ASP280      0.1410
     47  CG         4.3880    2.0700   16.9270 C.2   280  ASP280      0.3668
     48  OD1        4.4990    3.3200   16.9130 O.co2 280  ASP280     -0.2456
     49  OD2        4.9350    1.3490   16.0760 O.co2 280  ASP280     -0.2456
     50  N         -1.7170    3.2120   14.8540 N.3   286  VAL286     -0.1245
     51  CA        -0.9080    4.1950   14.1450 C.3   286  VAL286      0.1561
     52  C         -1.6190    4.6450   12.8730 C.2   286  VAL286      0.2260
     53  O         -2.1460    3.8140   12.1140 O.2   286  VAL286     -0.2867
     54  CB         0.4910    3.5900   13.7600 C.3   286  VAL286      0.0252
     55  CG1        1.3810    4.6190   13.0550 C.3   286  VAL286      0.0019
     56  CG2        1.1940    3.0320   14.9850 C.3   286  VAL286      0.0019
     57  N         -0.4290    6.9340    9.4950 N.3   288  TYR288     -0.1241
     58  CA         0.8900    7.1550    8.9280 C.3   288  TYR288      0.1605
     59  C          0.7460    7.6340    7.4880 C.2   288  TYR288      0.2264
     60  O          0.4220    6.8440    6.6010 O.2   288  TYR288     -0.2867
     61  CB         1.6650    5.8390    8.9980 C.3   288  TYR288      0.0534
     62  CG         3.1510    5.9180    8.7480 C.ar  288  TYR288     -0.0201
     63  CD1        4.0500    6.0380    9.8000 C.ar  288  TYR288     -0.0009
     64  CD2        3.6610    5.8110    7.4600 C.ar  288  TYR288     -0.0009
     65  CE1        5.4290    6.0740    9.5660 C.ar  288  TYR288      0.0417
     66  CE2        5.0310    5.8630    7.2160 C.ar  288  TYR288      0.0417
     67  CZ         5.9120    5.9860    8.2670 C.ar  288  TYR288      0.1957
     68  OH         7.2760    6.0250    8.0050 O.3   288  TYR288     -0.2866
     69  N          8.0730    4.4590    1.5880 N.3   295  LYS295     -0.1245
     70  CA         8.3790    3.5990    2.7220 C.3   295  LYS295      0.1561
     71  C          8.0360    2.1560    2.3920 C.2   295  LYS295      0.2260
     72  O          7.0590    1.8780    1.6920 O.2   295  LYS295     -0.2867
     73  CB         7.5670    4.0230    3.9510 C.3   295  LYS295      0.0271
     74  CG         7.9200    5.3840    4.5070 C.3   295  LYS295      0.0035
     75  CD         9.2460    5.3720    5.2740 C.3   295  LYS295      0.0206
     76  CE         9.5340    6.7590    5.8660 C.3   295  LYS295      0.1093
     77  NZ        10.7790    6.7990    6.6880 N.3   295  LYS295     -0.1314
     78  N          7.2180   -1.1970    4.5790 N.3   297  PHE297     -0.1241
     79  CA         6.9910   -1.8070    5.8700 C.3   297  PHE297      0.1605
     80  C          7.0900   -3.3180    5.7560 C.2   297  PHE297      0.2264
     81  O          6.5880   -3.9150    4.7970 O.2   297  PHE297     -0.2867
     82  CB         5.6020   -1.4430    6.4030 C.3   297  PHE297      0.0534
     83  CG         5.5170   -0.0700    7.0040 C.ar  297  PHE297     -0.0203
     84  CD1        5.7850    1.0570    6.2400 C.ar  297  PHE297     -0.0042
     85  CD2        5.1400    0.0930    8.3350 C.ar  297  PHE297     -0.0042
     86  CE1        5.6900    2.3240    6.7900 C.ar  297  PHE297     -0.0003
     87  CE2        5.0450    1.3550    8.8970 C.ar  297  PHE297     -0.0003
     88  CZ         5.3160    2.4750    8.1250 C.ar  297  PHE297     -0.0000
     89  N         -2.6660    1.1650   11.0610 N.3   344  ILE344     -0.1245
     90  CA        -2.2360   -0.0540   11.7430 C.3   344  ILE344      0.1561
     91  C         -2.8850   -0.1660   13.1210 C.2   344  ILE344      0.2260
     92  O         -2.7200    0.7260   13.9540 O.2   344  ILE344     -0.2867
     93  CB        -0.7100   -0.0690   11.9390 C.3   344  ILE344      0.0252
     94  CG1        0.0080    0.2210   10.6270 C.3   344  ILE344      0.0019
     95  CG2       -0.2460   -1.4020   12.5010 C.3   344  ILE344      0.0019
     96  CD1        1.5160    0.3390   10.7790 C.3   344  ILE344      0.0001
     97  N          6.4760   -4.6840   13.1920 N.3   350  HIS350     -0.1241
     98  CA         6.8830   -4.0930   11.9360 C.3   350  HIS350      0.1621
     99  C          8.2550   -3.4320   11.9480 C.2   350  HIS350      0.2264
    100  O          8.6980   -2.8810   12.9610 O.2   350  HIS350     -0.2867
    101  CB         5.8270   -3.0960   11.4540 C.3   350  HIS350      0.0745
    102  CG         5.6590   -1.9170   12.3590 C.ar  350  HIS350      0.0817
    103  ND1        4.8500   -1.9450   13.4750 N.ar  350  HIS350     -0.2268
    104  CD2        6.2060   -0.6780   12.3220 C.ar  350  HIS350      0.1154
    105  CE1        4.9060   -0.7770   14.0880 C.ar  350  HIS350      0.1986
    106  NE2        5.7150    0.0110   13.4020 N.ar  350  HIS350     -0.2212
    107  N         10.7520   -0.9900    9.0450 N.3   352  VAL352     -0.1245
    108  CA        10.5420   -0.1740    7.8660 C.3   352  VAL352      0.1561
    109  C         11.8150    0.3050    7.1990 C.2   352  VAL352      0.2260
    110  O         12.7810    0.6720    7.8580 O.2   352  VAL352     -0.2867
    111  CB         9.4810    0.9530    8.0940 C.3   352  VAL352      0.0252
    112  CG1        9.1390    1.1020    9.5530 C.3   352  VAL352      0.0019
    113  CG2        9.9000    2.2680    7.4520 C.3   352  VAL352      0.0019
    114  N         13.4820    2.9130    4.2830 N.3   354  THR354     -0.1218
    115  CA        13.2020    4.1850    3.6180 C.3   354  THR354      0.1862
    116  C         14.0080    4.2680    2.3190 C.2   354  THR354      0.2287
    117  O         15.1590    4.6940    2.3200 O.2   354  THR354     -0.2866
    118  CB        13.5410    5.3840    4.5270 C.3   354  THR354      0.1770
    119  OG1       12.8870    5.2290    5.7940 O.3   354  THR354     -0.2211
    120  CG2       13.0970    6.7020    3.8850 C.3   354  THR354      0.0375
@<TRIPOS>BOND
     1    69    70    1
     2    72    71    2
     3   116   117    2
     4   116   115    1
     5    71    70    1
     6    70    73    1
     7   115   114    1
     8   115   118    1
     9   120   118    1
    10    73    74    1
    11    74    75    1
    12   118   119    1
    13    78    79    1
    14    81    80    2
    15    75    76    1
    16    80    79    1
    17    76    77    1
    18    79    82    1
    19    84    86   ar
    20    84    83   ar
    21    82    83    1
    22    60    59    2
    23    86    88   ar
    24    83    85   ar
    25   109   110    2
    26   109   108    1
    27    66    64   ar
    28    66    67   ar
    29   113   111    1
    30    64    62   ar
    31    59    58    1
    32   108   111    1
    33   108   107    1
    34    68    67    1
    35   111   112    1
    36    88    87   ar
    37    67    65   ar
    38    85    87   ar
    39    20    19    2
    40    62    61    1
    41    62    63   ar
    42    58    61    1
    43    58    57    1
    44    19    18    1
    45    65    63   ar
    46     7     6    2
    47     6     8   am
    48     6     5    1
    49     5     2    1
    50    25    26    1
    51     2     1    1
    52     2     3    1
    53    94    96    1
    54    94    93    1
    55    21    18    1
    56    21    22    1
    57    18    17    1
    58    28    27    2
    59    89    90    1
    60   101    98    1
    61   101   102    1
    62    26    27    1
    63    26    29    1
    64    30    29    1
    65    24    22    1
    66    90    93    1
    67    90    91    1
    68    22    23    1
    69    29    31    1
    70     3     4    2
    71    98    99    1
    72    98    97    1
    73    93    95    1
    74    99   100    2
    75    53    52    2
    76   104   102   ar
    77   104   106   ar
    78    16    14    1
    79   102   103   ar
    80    52    51    1
    81    55    54    1
    82    91    92    2
    83   106   105   ar
    84   103   105   ar
    85    54    51    1
    86    54    56    1
    87    14    15    1
    88    14    13    1
    89     9    10    1
    90    51    50    1
    91    10    13    1
    92    10    11    1
    93    40    38   ar
    94    40    41   ar
    95    38    37   ar
    96    11    12    2
    97    41    39   ar
    98    32    33    1
    99    35    34    2
   100    49    47   ar
   101    37    39   ar
   102    37    36    1
   103    48    47   ar
   104    47    46    1
   105    34    33    1
   106    33    36    1
   107    46    43    1
   108    42    43    1
   109    43    44    1
   110    44    45    2
