@<TRIPOS>MOLECULE
tmp/3n9rE00.pdb
 121 116 0 0 0
SMALL
GASTEIGER

@<TRIPOS>ATOM
      1  N        -19.0510  -44.4530  -77.8090 N.3    23  ASN23      -0.1240
      2  CA       -20.5080  -44.3820  -77.7470 C.3    23  ASN23       0.1653
      3  C        -21.0130  -43.3390  -76.7510 C.2    23  ASN23       0.2266
      4  O        -20.3820  -43.0840  -75.7240 O.2    23  ASN23      -0.2867
      5  CB       -21.0830  -45.7510  -77.3690 C.3    23  ASN23       0.1155
      6  CG       -20.9420  -46.7740  -78.4830 C.2    23  ASN23       0.2627
      7  OD1      -19.8570  -47.3140  -78.7180 O.2    23  ASN23      -0.2716
      8  ND2      -22.0420  -47.0510  -79.1700 N.am   23  ASN23      -0.0877
      9  N        -25.6850  -46.3010  -80.8920 N.3    49  SER49      -0.1217
     10  CA       -26.2670  -47.5910  -81.2440 C.3    49  SER49       0.1889
     11  C        -27.7430  -47.3970  -81.5510 C.2    49  SER49       0.2288
     12  O        -28.3050  -46.3430  -81.2730 O.2    49  SER49      -0.2866
     13  CB       -26.1080  -48.5760  -80.0850 C.3    49  SER49       0.2089
     14  OG       -26.8280  -48.1440  -78.9430 O.3    49  SER49      -0.2183
     15  N        -23.6850  -47.2100  -84.8890 N.3    82  ASP82      -0.1225
     16  CA       -23.0230  -48.3990  -84.3930 C.3    82  ASP82       0.1805
     17  C        -23.9520  -49.6100  -84.5550 C.2    82  ASP82       0.2597
     18  O        -25.1080  -49.5650  -84.1440 O.2    82  ASP82      -0.2718
     19  CB       -22.6750  -48.1750  -82.9250 C.3    82  ASP82       0.1424
     20  CG       -21.8280  -49.2660  -82.3580 C.2    82  ASP82       0.3668
     21  OD1      -21.0560  -49.8700  -83.1310 O.co2  82  ASP82      -0.2456
     22  OD2      -21.9370  -49.5190  -81.1390 O.co2  82  ASP82      -0.2456
     23  N        -23.4410  -50.6800  -85.1580 N.am   83  HIS83      -0.1975
     24  CA       -24.2070  -51.9130  -85.3720 C.3    83  HIS83       0.1656
     25  C        -25.6060  -51.7010  -85.9480 C.2    83  HIS83       0.2291
     26  O        -26.5970  -52.1140  -85.3480 O.2    83  HIS83      -0.2864
     27  CB       -24.3220  -52.6990  -84.0640 C.3    83  HIS83       0.0771
     28  CG       -23.0120  -53.2090  -83.5600 C.ar   83  HIS83       0.0820
     29  ND1      -22.4330  -54.3650  -84.0360 N.ar   83  HIS83      -0.2267
     30  CD2      -22.1580  -52.7130  -82.6350 C.ar   83  HIS83       0.1154
     31  CE1      -21.2820  -54.5640  -83.4210 C.ar   83  HIS83       0.1986
     32  NE2      -21.0890  -53.5730  -82.5690 N.ar   83  HIS83      -0.2212
     33  N        -17.8530  -58.0620  -76.9550 N.3   170  HIS170     -0.1226
     34  CA       -18.4180  -56.9100  -76.2540 C.3   170  HIS170      0.1752
     35  C        -18.5040  -57.1440  -74.7510 C.2   170  HIS170      0.2596
     36  O        -18.6620  -58.2800  -74.3020 O.2   170  HIS170     -0.2718
     37  CB       -19.8180  -56.5960  -76.7790 C.3   170  HIS170      0.0759
     38  CG       -19.8360  -56.1210  -78.1950 C.ar  170  HIS170      0.0818
     39  ND1      -20.8160  -56.4900  -79.0910 N.ar  170  HIS170     -0.2268
     40  CD2      -18.9910  -55.3100  -78.8730 C.ar  170  HIS170      0.1154
     41  CE1      -20.5750  -55.9230  -80.2600 C.ar  170  HIS170      0.1986
     42  NE2      -19.4740  -55.2030  -80.1530 N.ar  170  HIS170     -0.2212
     43  N        -18.4000  -56.0600  -73.9820 N.am  171  GLY171     -0.1957
     44  CA       -18.7170  -56.0930  -72.5620 C.3   171  GLY171      0.1869
     45  C        -17.5100  -56.2530  -71.6640 C.2   171  GLY171      0.2309
     46  O        -16.3680  -56.2610  -72.1280 O.2   171  GLY171     -0.2863
     47  N        -14.3830  -60.3000  -71.2920 N.3   174  LYS174     -0.1245
     48  CA       -13.8770  -60.6720  -72.6050 C.3   174  LYS174      0.1561
     49  C        -13.0350  -61.9420  -72.5730 C.2   174  LYS174      0.2260
     50  O        -12.9980  -62.6890  -73.5510 O.2   174  LYS174     -0.2867
     51  CB       -13.0350  -59.5290  -73.1930 C.3   174  LYS174      0.0271
     52  CG       -13.7540  -58.1810  -73.2540 C.3   174  LYS174      0.0035
     53  CD       -12.9070  -57.1190  -73.9560 C.3   174  LYS174      0.0206
     54  CE       -13.5570  -55.7340  -73.8890 C.3   174  LYS174      0.1093
     55  NZ       -14.9560  -55.7670  -74.4190 N.3   174  LYS174     -0.1314
     56  N        -13.8460  -54.0780  -82.6790 N.3   200  HIS200     -0.1226
     57  CA       -14.9530  -54.0090  -81.7260 C.3   200  HIS200      0.1752
     58  C        -14.5440  -54.6250  -80.3940 C.2   200  HIS200      0.2597
     59  O        -13.5220  -55.3000  -80.3110 O.2   200  HIS200     -0.2718
     60  CB       -16.1710  -54.7510  -82.2620 C.3   200  HIS200      0.0759
     61  CG       -16.9290  -53.9870  -83.2950 C.ar  200  HIS200      0.0818
     62  ND1      -18.1940  -53.4920  -83.0730 N.ar  200  HIS200     -0.2268
     63  CD2      -16.6060  -53.6350  -84.5600 C.ar  200  HIS200      0.1154
     64  CE1      -18.6160  -52.8570  -84.1480 C.ar  200  HIS200      0.1986
     65  NE2      -17.6690  -52.9280  -85.0650 N.ar  200  HIS200     -0.2212
     66  N        -15.3500  -54.3920  -79.3630 N.am  201  GLY201     -0.1942
     67  CA       -15.1010  -54.9470  -78.0460 C.3   201  GLY201      0.2014
     68  C        -13.7200  -54.5870  -77.5500 C.2   201  GLY201      0.2639
     69  O        -12.9990  -55.4410  -77.0540 O.2   201  GLY201     -0.2714
     70  N        -13.3550  -53.3150  -77.6750 N.am  202  ALA202     -0.1963
     71  CA       -11.9760  -52.9040  -77.4380 C.3   202  ALA202      0.1728
     72  C        -11.7490  -52.2460  -76.0740 C.2   202  ALA202      0.2616
     73  O        -10.6690  -51.7260  -75.8130 O.2   202  ALA202     -0.2715
     74  CB       -11.5150  -51.9820  -78.5520 C.3   202  ALA202      0.0334
     75  N        -12.7530  -52.2610  -75.2020 N.am  203  SER203     -0.1950
     76  CA       -12.5680  -51.6950  -73.8660 C.3   203  SER203      0.1924
     77  C        -11.4800  -52.4660  -73.1170 C.2   203  SER203      0.2314
     78  O        -11.3470  -53.6890  -73.2670 O.2   203  SER203     -0.2863
     79  CB       -13.8790  -51.7140  -73.0740 C.3   203  SER203      0.2116
     80  OG       -14.6850  -50.5910  -73.4000 O.3   203  SER203     -0.2180
     81  N        -13.5040  -49.3220  -81.1360 N.3   243  ASN243     -0.1225
     82  CA       -14.7710  -49.0930  -80.4510 C.3   243  ASN243      0.1785
     83  C        -14.6670  -49.2480  -78.9540 C.2   243  ASN243      0.2598
     84  O        -14.2240  -50.2790  -78.4590 O.2   243  ASN243     -0.2718
     85  CB       -15.8330  -50.0480  -80.9630 C.3   243  ASN243      0.1169
     86  CG       -16.1860  -49.7900  -82.3980 C.2   243  ASN243      0.2627
     87  OD1      -15.4080  -49.2030  -83.1510 O.2   243  ASN243     -0.2716
     88  ND2      -17.3610  -50.2360  -82.7940 N.am  243  ASN243     -0.0877
     89  N        -15.1190  -48.2210  -78.2440 N.am  244  THR244     -0.1939
     90  CA       -14.9660  -48.1580  -76.8080 C.3   244  THR244      0.2028
     91  C        -16.2680  -47.6630  -76.1960 C.2   244  THR244      0.2642
     92  O        -16.7290  -46.5630  -76.4930 O.2   244  THR244     -0.2714
     93  CB       -13.8080  -47.2270  -76.4480 C.3   244  THR244      0.1808
     94  OG1      -12.6660  -47.6000  -77.2340 O.3   244  THR244     -0.2208
     95  CG2      -13.4710  -47.3370  -74.9640 C.3   244  THR244      0.0379
     96  N        -16.8680  -48.4950  -75.3550 N.am  245  ASP245     -0.1957
     97  CA       -18.1400  -48.1560  -74.7370 C.3   245  ASP245      0.1840
     98  C        -18.1380  -48.5150  -73.2510 C.2   245  ASP245      0.2622
     99  O        -18.3530  -47.6600  -72.3890 O.2   245  ASP245     -0.2715
    100  CB       -19.2700  -48.8790  -75.4680 C.3   245  ASP245      0.1450
    101  CG       -20.6090  -48.7070  -74.7880 C.2   245  ASP245      0.3671
    102  OD1      -20.8350  -47.6430  -74.1720 O.co2 245  ASP245     -0.2456
    103  OD2      -21.4260  -49.6500  -74.8610 O.co2 245  ASP245     -0.2456
    104  N        -17.8790  -49.7820  -72.9560 N.am  246  THR246     -0.1951
    105  CA       -17.9150  -50.2770  -71.5830 C.3   246  THR246      0.1897
    106  C        -17.0270  -49.4780  -70.6190 C.2   246  THR246      0.2313
    107  O        -17.4790  -49.0990  -69.5350 O.2   246  THR246     -0.2863
    108  CB       -17.5830  -51.7750  -71.5610 C.3   246  THR246      0.1794
    109  OG1      -18.6160  -52.4740  -72.2700 O.3   246  THR246     -0.2208
    110  CG2      -17.5060  -52.3000  -70.1340 C.3   246  THR246      0.0378
    111  N        -18.7710  -46.2590  -69.5290 N.3   249  ARG249     -0.1245
    112  CA       -19.9080  -46.4460  -68.6290 C.3   249  ARG249      0.1563
    113  C        -19.4390  -46.7570  -67.2140 C.2   249  ARG249      0.2260
    114  O        -19.9640  -46.2220  -66.2580 O.2   249  ARG249     -0.2867
    115  CB       -20.8010  -47.5940  -69.1000 C.3   249  ARG249      0.0307
    116  CG       -21.4150  -47.4360  -70.4870 C.3   249  ARG249      0.0489
    117  CD       -22.2400  -48.6840  -70.7990 C.3   249  ARG249      0.2205
    118  NE       -22.7350  -48.7060  -72.1650 N.pl3 249  ARG249     -0.0865
    119  CZ       -23.6580  -49.5540  -72.6150 C.cat 249  ARG249      0.5346
    120  NH1      -24.1850  -50.4620  -71.8000 N.pl3 249  ARG249      0.1354
    121  NH2      -24.0530  -49.4990  -73.8840 N.pl3 249  ARG249      0.1354
@<TRIPOS>BOND
     1    25    24    1
     2    25    26    2
     3    24    23    1
     4    24    27    1
     5    23    17   am
     6    65    63   ar
     7    65    64   ar
     8    15    16    1
     9    63    61   ar
    10    17    16    1
    11    17    18    2
    12    16    19    1
    13    64    62   ar
    14    27    28    1
    15    29    28   ar
    16    29    31   ar
    17    28    30   ar
    18    31    32   ar
    19    61    62   ar
    20    61    60    1
    21    87    86    2
    22    21    20   ar
    23    19    20    1
    24    88    86   am
    25    56    57    1
    26    30    32   ar
    27    86    85    1
    28    20    22   ar
    29    60    57    1
    30    57    58    1
    31    11    12    2
    32    11    10    1
    33    10     9    1
    34    10    13    1
    35    81    82    1
    36    85    82    1
    37    82    83    1
    38    58    59    2
    39    58    66   am
    40    41    42   ar
    41    41    39   ar
    42    42    40   ar
    43    13    14    1
    44    66    67    1
    45     8     6   am
    46    39    38   ar
    47    83    84    2
    48    83    89   am
    49    40    38   ar
    50     7     6    2
    51    74    71    1
    52     6     5    1
    53    89    90    1
    54    38    37    1
    55    67    68    1
    56     1     2    1
    57     2     5    1
    58     2     3    1
    59    70    68   am
    60    70    71    1
    61    68    69    2
    62    71    72    1
    63    94    93    1
    64    33    34    1
    65    90    93    1
    66    90    91    1
    67    37    34    1
    68     3     4    2
    69    92    91    2
    70    93    95    1
    71    34    35    1
    72    91    96   am
    73    72    73    2
    74    72    75   am
    75   100   101    1
    76   100    97    1
    77    96    97    1
    78    75    76    1
    79   103   101   ar
    80   101   102   ar
    81    35    36    2
    82    35    43   am
    83    97    98    1
    84    55    54    1
    85    43    44    1
    86    53    54    1
    87    53    52    1
    88   121   119    1
    89    76    77    1
    90    76    79    1
    91    50    49    2
    92    80    79    1
    93    78    77    2
    94    52    51    1
    95    98   104   am
    96    98    99    2
    97    51    48    1
    98   104   105    1
    99   119   118    2
   100   119   120    1
   101    48    49    1
   102    48    47    1
   103    44    45    1
   104   109   108    1
   105   118   117    1
   106    46    45    2
   107   105   108    1
   108   105   106    1
   109   108   110    1
   110   117   116    1
   111   106   107    2
   112   116   115    1
   113   111   112    1
   114   115   112    1
   115   112   113    1
   116   113   114    2
