@<TRIPOS>MOLECULE
tmp/3n9sA00.pdb
 132 124 0 0 0
SMALL
GASTEIGER

@<TRIPOS>ATOM
      1  N         -6.8100   21.4730  -29.4100 N.3    23  ASN23      -0.1240
      2  CA        -8.2680   21.4430  -29.3990 C.3    23  ASN23       0.1653
      3  C         -8.8040   21.4310  -30.8190 C.2    23  ASN23       0.2266
      4  O         -8.1690   21.9670  -31.7540 O.2    23  ASN23      -0.2867
      5  CB        -8.8420   22.6330  -28.6170 C.3    23  ASN23       0.1155
      6  CG        -8.6490   22.4960  -27.1210 C.2    23  ASN23       0.2627
      7  OD1       -7.5370   22.6310  -26.6210 O.2    23  ASN23      -0.2716
      8  ND2       -9.7340   22.2480  -26.3980 N.am   23  ASN23      -0.0877
      9  N        -12.7700   21.5830  -33.0790 N.3    25  VAL25      -0.1245
     10  CA       -14.2220   21.7670  -33.0810 C.3    25  VAL25       0.1561
     11  C        -14.8550   21.2300  -34.3640 C.2    25  VAL25       0.2260
     12  O        -16.0770   21.2240  -34.4860 O.2    25  VAL25      -0.2867
     13  CB       -14.6420   23.2610  -32.9600 C.3    25  VAL25       0.0252
     14  CG1      -14.1290   23.8750  -31.6740 C.3    25  VAL25       0.0019
     15  CG2      -14.1680   24.0520  -34.1780 C.3    25  VAL25       0.0019
     16  N        -13.4040   20.4390  -25.7510 N.3    49  SER49      -0.1217
     17  CA       -14.0760   21.0020  -24.5930 C.3    49  SER49       0.1889
     18  C        -15.5490   20.5810  -24.5760 C.2    49  SER49       0.2288
     19  O        -16.0750   20.0270  -25.5460 O.2    49  SER49      -0.2866
     20  CB       -14.0050   22.5200  -24.6760 C.3    49  SER49       0.2089
     21  OG       -14.7450   22.9510  -25.8160 O.3    49  SER49      -0.2183
     22  N        -18.0610   22.6100  -24.7150 N.3    51  GLY51      -0.1210
     23  CA       -18.6760   23.4150  -25.7550 C.3    51  GLY51       0.1956
     24  C        -18.4250   22.8910  -27.1650 C.2    51  GLY51       0.2611
     25  O        -19.2600   23.0570  -28.0540 O.2    51  GLY51      -0.2717
     26  N        -17.2670   22.2770  -27.3850 N.am   52  ALA52      -0.1979
     27  CA       -16.9590   21.6870  -28.6850 C.3    52  ALA52       0.1597
     28  C        -17.7600   20.4040  -28.8640 C.2    52  ALA52       0.2287
     29  O        -18.1990   20.0840  -29.9650 O.2    52  ALA52      -0.2864
     30  CB       -15.4800   21.3980  -28.8020 C.3    52  ALA52       0.0319
     31  N        -11.5030   18.1290  -22.4470 N.3    82  ASP82      -0.1225
     32  CA       -10.8790   19.3240  -21.8920 C.3    82  ASP82       0.1805
     33  C        -11.8710   20.0340  -20.9750 C.2    82  ASP82       0.2597
     34  O        -13.0440   20.2020  -21.3170 O.2    82  ASP82      -0.2718
     35  CB       -10.4220   20.2500  -23.0200 C.3    82  ASP82       0.1424
     36  CG        -9.5020   21.3600  -22.5400 C.2    82  ASP82       0.3668
     37  OD1       -8.8960   21.2430  -21.4460 O.co2  82  ASP82      -0.2456
     38  OD2       -9.3730   22.3610  -23.2710 O.co2  82  ASP82      -0.2456
     39  N        -11.3930   20.4400  -19.8060 N.am   83  HIS83      -0.1975
     40  CA       -12.2250   21.1470  -18.8390 C.3    83  HIS83       0.1656
     41  C        -13.6080   20.5360  -18.6240 C.2    83  HIS83       0.2291
     42  O        -14.6170   21.2170  -18.7530 O.2    83  HIS83      -0.2864
     43  CB       -12.3490   22.6200  -19.2410 C.3    83  HIS83       0.0771
     44  CG       -11.0630   23.3700  -19.1190 C.ar   83  HIS83       0.0820
     45  ND1      -10.5240   23.7160  -17.9000 N.ar   83  HIS83      -0.2267
     46  CD2      -10.1810   23.7960  -20.0530 C.ar   83  HIS83       0.1154
     47  CE1       -9.3770   24.3430  -18.0860 C.ar   83  HIS83       0.1986
     48  NE2       -9.1460   24.4080  -19.3840 N.ar   83  HIS83      -0.2212
     49  N         -6.0630   31.3640  -20.3190 N.3   180  HIS180     -0.1226
     50  CA        -6.5780   31.0930  -21.6540 C.3   180  HIS180      0.1752
     51  C         -6.6490   32.3450  -22.5060 C.2   180  HIS180      0.2596
     52  O         -6.9020   33.4370  -22.0010 O.2   180  HIS180     -0.2718
     53  CB        -7.9700   30.4870  -21.5620 C.3   180  HIS180      0.0759
     54  CG        -7.9820   29.1210  -20.9600 C.ar  180  HIS180      0.0818
     55  ND1       -9.0340   28.6470  -20.2080 N.ar  180  HIS180     -0.2268
     56  CD2       -7.0660   28.1270  -21.0000 C.ar  180  HIS180      0.1154
     57  CE1       -8.7670   27.4150  -19.8150 C.ar  180  HIS180      0.1986
     58  NE2       -7.5790   27.0770  -20.2830 N.ar  180  HIS180     -0.2212
     59  N         -6.4280   32.1770  -23.8040 N.am  181  GLY181     -0.1957
     60  CA        -6.7270   33.2220  -24.7630 C.3   181  GLY181      0.1869
     61  C         -5.5310   34.0320  -25.2120 C.2   181  GLY181      0.2309
     62  O         -4.3910   33.7830  -24.8120 O.2   181  GLY181     -0.2863
     63  N         -2.5940   37.2150  -22.5680 N.3   184  LYS184     -0.1245
     64  CA        -2.0270   36.5790  -21.3790 C.3   184  LYS184      0.1561
     65  C         -1.2780   37.5340  -20.4640 C.2   184  LYS184      0.2260
     66  O         -1.2980   37.3570  -19.2490 O.2   184  LYS184     -0.2867
     67  CB        -1.0940   35.4280  -21.7740 C.3   184  LYS184      0.0271
     68  CG        -1.7990   34.3230  -22.5520 C.3   184  LYS184      0.0035
     69  CD        -0.9230   33.0820  -22.7370 C.3   184  LYS184      0.0206
     70  CE        -1.4600   32.2220  -23.8860 C.3   184  LYS184      0.1093
     71  NZ        -2.9060   31.8670  -23.6750 N.3   184  LYS184     -0.1314
     72  N         -1.8830   24.7510  -19.0530 N.3   210  HIS210     -0.1226
     73  CA        -2.9910   25.3460  -19.8060 C.3   210  HIS210      0.1752
     74  C         -2.5900   26.7410  -20.2200 C.2   210  HIS210      0.2596
     75  O         -1.6650   27.3030  -19.6440 O.2   210  HIS210     -0.2718
     76  CB        -4.2490   25.4170  -18.9450 C.3   210  HIS210      0.0759
     77  CG        -4.8950   24.0870  -18.7290 C.ar  210  HIS210      0.0818
     78  ND1       -6.1670   23.8030  -19.1700 N.ar  210  HIS210     -0.2268
     79  CD2       -4.4310   22.9560  -18.1490 C.ar  210  HIS210      0.1154
     80  CE1       -6.4690   22.5540  -18.8560 C.ar  210  HIS210      0.1986
     81  NE2       -5.4300   22.0170  -18.2450 N.ar  210  HIS210     -0.2212
     82  N         -3.2650   27.2930  -21.2230 N.am  211  GLY211     -0.1957
     83  CA        -3.0190   28.6610  -21.6490 C.3   211  GLY211      0.1869
     84  C         -1.6410   28.8130  -22.2640 C.2   211  GLY211      0.2309
     85  O         -0.9940   29.8400  -22.0910 O.2   211  GLY211     -0.2863
     86  N         -0.6180   28.8500  -25.5430 N.3   213  SER213     -0.1217
     87  CA        -0.4180   29.4270  -26.8680 C.3   213  SER213      0.1889
     88  C          0.6450   30.5110  -26.8040 C.2   213  SER213      0.2288
     89  O          0.7970   31.1700  -25.7720 O.2   213  SER213     -0.2866
     90  CB        -1.7210   29.9960  -27.4220 C.3   213  SER213      0.2089
     91  OG        -2.4930   28.9540  -27.9790 O.3   213  SER213     -0.2183
     92  N         -1.3850   22.4390  -23.5100 N.3   253  ASN253     -0.1225
     93  CA        -2.6650   22.7760  -24.1400 C.3   253  ASN253      0.1785
     94  C         -2.5530   23.9720  -25.0550 C.2   253  ASN253      0.2598
     95  O         -2.2160   25.0800  -24.6080 O.2   253  ASN253     -0.2718
     96  CB        -3.7220   23.1020  -23.0790 C.3   253  ASN253      0.1169
     97  CG        -4.1600   21.9030  -22.2980 C.2   253  ASN253      0.2627
     98  OD1       -3.4800   20.8900  -22.2510 O.2   253  ASN253     -0.2716
     99  ND2       -5.3170   22.0170  -21.6600 N.am  253  ASN253     -0.0877
    100  N         -2.8760   23.7520  -26.3290 N.am  254  THR254     -0.1939
    101  CA        -2.7040   24.7660  -27.3530 C.3   254  THR254      0.2028
    102  C         -3.9590   24.8020  -28.2050 C.2   254  THR254      0.2642
    103  O         -4.3140   23.8110  -28.8300 O.2   254  THR254     -0.2714
    104  CB        -1.5310   24.4230  -28.2560 C.3   254  THR254      0.1808
    105  OG1       -0.3980   24.0940  -27.4470 O.3   254  THR254     -0.2208
    106  CG2       -1.2010   25.5890  -29.1700 C.3   254  THR254      0.0379
    107  N         -4.6100   25.9580  -28.2390 N.am  255  ASP255     -0.1957
    108  CA        -5.9080   26.1150  -28.8880 C.3   255  ASP255      0.1840
    109  C         -5.9230   27.4540  -29.6180 C.2   255  ASP255      0.2622
    110  O         -6.1520   27.5240  -30.8240 O.2   255  ASP255     -0.2715
    111  CB        -7.0110   26.0740  -27.8270 C.3   255  ASP255      0.1450
    112  CG        -8.3740   26.4820  -28.3650 C.2   255  ASP255      0.3671
    113  OD1       -8.7600   26.0520  -29.4730 O.co2 255  ASP255     -0.2456
    114  OD2       -9.0660   27.2450  -27.6650 O.co2 255  ASP255     -0.2456
    115  N         -5.6570   28.5230  -28.8820 N.am  256  THR256     -0.1951
    116  CA        -5.7270   29.8670  -29.4520 C.3   256  THR256      0.1897
    117  C         -4.8560   30.0470  -30.7120 C.2   256  THR256      0.2313
    118  O         -5.3430   30.5520  -31.7210 O.2   256  THR256     -0.2863
    119  CB        -5.3890   30.9090  -28.3920 C.3   256  THR256      0.1794
    120  OG1       -6.4530   30.9350  -27.4250 O.3   256  THR256     -0.2208
    121  CG2       -5.2410   32.2850  -29.0010 C.3   256  THR256      0.0378
    122  N         -6.4380   28.5370  -33.8330 N.3   259  ARG259     -0.1245
    123  CA        -7.5900   29.2480  -34.3420 C.3   259  ARG259      0.1563
    124  C         -7.2010   30.5550  -35.0190 C.2   259  ARG259      0.2260
    125  O         -7.8130   30.9340  -36.0120 O.2   259  ARG259     -0.2867
    126  CB        -8.6060   29.4640  -33.2130 C.3   259  ARG259      0.0307
    127  CG        -9.0580   28.1230  -32.6310 C.3   259  ARG259      0.0489
    128  CD       -10.2940   28.2170  -31.7800 C.3   259  ARG259      0.2205
    129  NE        -9.9740   28.6440  -30.4330 N.pl3 259  ARG259     -0.0865
    130  CZ       -10.0000   29.9020  -30.0200 C.cat 259  ARG259      0.5346
    131  NH1       -9.6710   30.1970  -28.7670 N.pl3 259  ARG259      0.1354
    132  NH2      -10.3500   30.8650  -30.8550 N.pl3 259  ARG259      0.1354
@<TRIPOS>BOND
     1   125   124    2
     2   124   123    1
     3    12    11    2
     4    11    10    1
     5   123   122    1
     6   123   126    1
     7    15    13    1
     8   126   127    1
     9    10     9    1
    10    10    13    1
    11    13    14    1
    12   127   128    1
    13   128   129    1
    14     4     3    2
    15   118   117    2
    16   132   130    1
    17   110   109    2
    18     3     2    1
    19   117   116    1
    20   129   130    2
    21   130   131    1
    22    29    28    2
    23   109   108    1
    24   109   115   am
    25   113   112   ar
    26   116   115    1
    27   116   119    1
    28     1     2    1
    29     2     5    1
    30   106   104    1
    31   121   119    1
    32   108   107    1
    33   108   111    1
    34    28    27    1
    35   103   102    2
    36    30    27    1
    37    27    26    1
    38     5     6    1
    39   119   120    1
    40   112   111    1
    41   112   114   ar
    42   104   105    1
    43   104   101    1
    44   107   102   am
    45   102   101    1
    46    25    24    2
    47    91    90    1
    48    90    87    1
    49    26    24   am
    50   101   100    1
    51    24    23    1
    52     6     7    2
    53     6     8   am
    54    87    88    1
    55    87    86    1
    56    88    89    2
    57   100    94   am
    58    21    20    1
    59    23    22    1
    60    16    17    1
    61    19    18    2
    62    61    62    2
    63    61    60    1
    64    94    95    2
    65    94    93    1
    66    60    59    1
    67    20    17    1
    68    17    18    1
    69    93    92    1
    70    93    96    1
    71    70    71    1
    72    70    69    1
    73    59    51   am
    74    38    36   ar
    75    96    97    1
    76    35    36    1
    77    35    32    1
    78    69    68    1
    79    63    64    1
    80    68    67    1
    81    36    37   ar
    82    51    52    2
    83    51    50    1
    84    31    32    1
    85    97    98    2
    86    97    99   am
    87    84    85    2
    88    84    83    1
    89    32    33    1
    90    67    64    1
    91    50    53    1
    92    50    49    1
    93    83    82    1
    94    53    54    1
    95    64    65    1
    96    34    33    2
    97    82    74   am
    98    56    54   ar
    99    56    58   ar
   100    33    39   am
   101    54    55   ar
   102    65    66    2
   103    58    57   ar
   104    74    73    1
   105    74    75    2
   106    55    57   ar
   107    46    48   ar
   108    46    44   ar
   109    39    40    1
   110    73    72    1
   111    73    76    1
   112    48    47   ar
   113    43    44    1
   114    43    40    1
   115    78    80   ar
   116    78    77   ar
   117    44    45   ar
   118    76    77    1
   119    80    81   ar
   120    40    41    1
   121    42    41    2
   122    77    79   ar
   123    81    79   ar
   124    47    45   ar
