@<TRIPOS>MOLECULE
tmp/3n9tA00.pdb
 167 160 0 0 0
SMALL
GASTEIGER

@<TRIPOS>ATOM
      1  N        -21.4330   30.0550   39.3240 N.3    35  LEU35      -0.1245
      2  CA       -22.4380   29.0630   38.9860 C.3    35  LEU35       0.1561
      3  C        -23.8500   29.6450   39.1820 C.2    35  LEU35       0.2260
      4  O        -24.7270   29.5170   38.3090 O.2    35  LEU35      -0.2867
      5  CB       -22.2570   27.9300   39.9730 C.3    35  LEU35       0.0270
      6  CG       -23.0020   26.6180   39.8350 C.3    35  LEU35       0.0019
      7  CD1      -23.0710   26.1220   38.4080 C.3    35  LEU35       0.0001
      8  CD2      -22.2830   25.6040   40.7840 C.3    35  LEU35       0.0001
      9  N        -24.5820   32.4120   36.5980 N.3    38  PHE38      -0.1227
     10  CA       -25.0180   31.7430   35.3830 C.3    38  PHE38       0.1736
     11  C        -26.5010   31.2950   35.4110 C.2    38  PHE38       0.2595
     12  O        -27.3140   31.5840   34.4690 O.2    38  PHE38      -0.2718
     13  CB       -24.0840   30.5590   35.1140 C.3    38  PHE38       0.0547
     14  CG       -24.7080   29.4970   34.2710 C.ar   38  PHE38      -0.0202
     15  CD1      -25.0210   29.7550   32.9060 C.ar   38  PHE38      -0.0042
     16  CD2      -24.9650   28.2420   34.8040 C.ar   38  PHE38      -0.0042
     17  CE1      -25.5970   28.7670   32.1390 C.ar   38  PHE38      -0.0003
     18  CE2      -25.5840   27.2780   34.0430 C.ar   38  PHE38      -0.0003
     19  CZ       -25.8620   27.5310   32.6960 C.ar   38  PHE38      -0.0000
     20  N        -26.8510   30.5500   36.4420 N.am   39  VAL39      -0.1980
     21  CA       -28.2320   30.0440   36.5620 C.3    39  VAL39       0.1595
     22  C        -29.2390   31.2460   36.5750 C.2    39  VAL39       0.2287
     23  O        -30.2740   31.2120   35.9350 O.2    39  VAL39      -0.2864
     24  CB       -28.3650   29.2010   37.8210 C.3    39  VAL39       0.0276
     25  CG1      -29.8260   28.8820   38.1410 C.3    39  VAL39       0.0022
     26  CG2      -27.6010   27.8770   37.6580 C.3    39  VAL39       0.0022
     27  N        -32.4270   29.4460   34.3040 N.3    44  LEU44      -0.1245
     28  CA       -32.4810   28.0300   33.9940 C.3    44  LEU44       0.1561
     29  C        -33.8020   27.3810   34.4640 C.2    44  LEU44       0.2260
     30  O        -34.2330   27.6000   35.6230 O.2    44  LEU44      -0.2867
     31  CB       -31.2820   27.3150   34.7230 C.3    44  LEU44       0.0270
     32  CG       -30.7950   25.9990   34.1130 C.3    44  LEU44       0.0019
     33  CD1      -30.0830   26.3400   32.8040 C.3    44  LEU44       0.0001
     34  CD2      -29.7870   25.3390   35.0650 C.3    44  LEU44       0.0001
     35  N        -34.2670   22.0630   32.1170 N.3    48  GLU48      -0.1231
     36  CA       -32.8680   22.2910   31.7170 C.3    48  GLU48       0.1699
     37  C        -31.8510   21.8280   32.7970 C.2    48  GLU48       0.2592
     38  O        -30.7620   21.3200   32.4750 O.2    48  GLU48      -0.2718
     39  CB       -32.6940   23.7810   31.4520 C.3    48  GLU48       0.0402
     40  CG       -33.5370   24.2210   30.1600 C.3    48  GLU48       0.1161
     41  CD       -33.6240   25.6870   29.9840 C.2    48  GLU48       0.3649
     42  OE1      -33.3690   26.4470   30.9620 O.co2  48  GLU48      -0.2457
     43  OE2      -33.9820   26.0890   28.8160 O.co2  48  GLU48      -0.2457
     44  N        -32.1810   22.0920   34.0680 N.am   49  TRP49      -0.1976
     45  CA       -31.3640   21.6420   35.1890 C.3    49  TRP49       0.1640
     46  C        -31.2650   20.1060   35.1470 C.2    49  TRP49       0.2290
     47  O        -30.1380   19.5550   35.2470 O.2    49  TRP49      -0.2864
     48  CB       -31.9860   22.1300   36.4900 C.3    49  TRP49       0.0576
     49  CG       -31.3080   21.6080   37.7400 C.ar   49  TRP49       0.0006
     50  CD1      -30.1850   22.1250   38.3660 C.ar   49  TRP49       0.0946
     51  CD2      -31.6550   20.4130   38.4490 C.ar   49  TRP49       0.0152
     52  NE1      -29.8390   21.3120   39.4380 N.ar   49  TRP49      -0.2442
     53  CE2      -30.7540   20.2870   39.5300 C.ar   49  TRP49       0.0810
     54  CE3      -32.6860   19.4650   38.3100 C.ar   49  TRP49       0.0012
     55  CZ2      -30.8320   19.2260   40.4520 C.ar   49  TRP49       0.0191
     56  CZ3      -32.7570   18.4050   39.2230 C.ar   49  TRP49       0.0001
     57  CH2      -31.8210   18.3010   40.2790 C.ar   49  TRP49       0.0015
     58  N        -31.5480   18.2400   32.5790 N.3    51  GLU51      -0.1231
     59  CA       -30.6310   17.9280   31.4380 C.3    51  GLU51       0.1699
     60  C        -29.1450   18.0550   31.8410 C.2    51  GLU51       0.2593
     61  O        -28.3720   17.1510   31.6230 O.2    51  GLU51      -0.2718
     62  CB       -30.9590   18.7740   30.1780 C.3    51  GLU51       0.0402
     63  CG       -29.9880   18.5510   29.0250 C.3    51  GLU51       0.1161
     64  CD       -29.8850   17.0580   28.5470 C.2    51  GLU51       0.3649
     65  OE1      -30.8910   16.3450   28.5730 O.co2  51  GLU51      -0.2457
     66  OE2      -28.7980   16.6040   28.1200 O.co2  51  GLU51      -0.2457
     67  N        -28.7780   19.1670   32.5030 N.am   52  GLY52      -0.1942
     68  CA       -27.4080   19.3710   33.0050 C.3    52  GLY52       0.2014
     69  C        -27.0320   18.2430   33.9190 C.2    52  GLY52       0.2638
     70  O        -25.9290   17.7230   33.8350 O.2    52  GLY52      -0.2714
     71  N        -27.9460   17.8540   34.8200 N.am   53  ILE53      -0.1977
     72  CA       -27.6730   16.7090   35.7270 C.3    53  ILE53       0.1596
     73  C        -27.4610   15.4030   34.9190 C.2    53  ILE53       0.2287
     74  O        -26.4900   14.6820   35.1400 O.2    53  ILE53      -0.2864
     75  CB       -28.8250   16.5030   36.8030 C.3    53  ILE53       0.0276
     76  CG1      -28.8500   17.6660   37.8540 C.3    53  ILE53       0.0022
     77  CG2      -28.6670   15.1900   37.4660 C.3    53  ILE53       0.0022
     78  CD1      -27.6260   17.6630   38.8210 C.3    53  ILE53       0.0001
     79  N        -26.5900   15.0520   31.7650 N.3    55  PHE55      -0.1227
     80  CA       -25.3470   15.2220   31.0170 C.3    55  PHE55       0.1736
     81  C        -24.0580   15.0250   31.8260 C.2    55  PHE55       0.2595
     82  O        -23.1310   14.3320   31.3730 O.2    55  PHE55      -0.2718
     83  CB       -25.3150   16.5910   30.3090 C.3    55  PHE55       0.0547
     84  CG       -24.1700   16.7250   29.3340 C.ar   55  PHE55      -0.0202
     85  CD1      -22.9350   17.1660   29.7680 C.ar   55  PHE55      -0.0042
     86  CD2      -24.3630   16.4280   27.9550 C.ar   55  PHE55      -0.0042
     87  CE1      -21.8500   17.2760   28.8550 C.ar   55  PHE55      -0.0003
     88  CE2      -23.3010   16.5190   27.0600 C.ar   55  PHE55      -0.0003
     89  CZ       -22.0540   16.9660   27.4940 C.ar   55  PHE55      -0.0000
     90  N        -23.9540   15.6840   32.9840 N.am   56  LEU56      -0.1980
     91  CA       -22.7840   15.5400   33.8660 C.3    56  LEU56       0.1596
     92  C        -22.6180   14.1280   34.3110 C.2    56  LEU56       0.2287
     93  O        -21.4890   13.6420   34.4900 O.2    56  LEU56      -0.2864
     94  CB       -22.9420   16.4180   35.1220 C.3    56  LEU56       0.0297
     95  CG       -22.7590   17.9050   34.7750 C.3    56  LEU56       0.0022
     96  CD1      -23.1030   18.8410   35.9780 C.3    56  LEU56       0.0001
     97  CD2      -21.4160   18.1780   34.2770 C.3    56  LEU56       0.0001
     98  N        -14.5300   13.7970   30.9360 N.3    71  PHE71      -0.1241
     99  CA       -14.4800   15.1370   31.5990 C.3    71  PHE71       0.1605
    100  C        -13.3550   16.0140   31.0320 C.2    71  PHE71       0.2264
    101  O        -13.5320   17.2280   30.8860 O.2    71  PHE71      -0.2867
    102  CB       -14.4520   15.1280   33.1550 C.3    71  PHE71       0.0534
    103  CG       -15.8450   15.2850   33.7450 C.ar   71  PHE71      -0.0203
    104  CD1      -16.4660   14.2080   34.3560 C.ar   71  PHE71      -0.0042
    105  CD2      -16.5840   16.5060   33.5810 C.ar   71  PHE71      -0.0042
    106  CE1      -17.8090   14.2830   34.7920 C.ar   71  PHE71      -0.0003
    107  CE2      -17.9000   16.6080   34.0560 C.ar   71  PHE71      -0.0003
    108  CZ       -18.5340   15.5050   34.6580 C.ar   71  PHE71      -0.0000
    109  N        -14.4890   17.1780   27.7690 N.3    74  LEU74      -0.1231
    110  CA       -15.4350   18.3120   27.9550 C.3    74  LEU74       0.1693
    111  C        -14.7070   19.6020   28.2770 C.2    74  LEU74       0.2592
    112  O        -15.0120   20.6630   27.6680 O.2    74  LEU74      -0.2718
    113  CB       -16.4500   17.9730   29.0900 C.3    74  LEU74       0.0284
    114  CG       -17.5760   18.9580   29.3940 C.3    74  LEU74       0.0019
    115  CD1      -18.4640   19.2140   28.1230 C.3    74  LEU74       0.0001
    116  CD2      -18.4140   18.4390   30.5880 C.3    74  LEU74       0.0001
    117  N        -13.7450   19.5150   29.2140 N.am   75  SER75      -0.1952
    118  CA       -12.8320   20.6730   29.5250 C.3    75  SER75       0.1924
    119  C        -12.1590   21.1830   28.2560 C.2    75  SER75       0.2314
    120  O        -12.1350   22.4110   27.9950 O.2    75  SER75      -0.2863
    121  CB       -11.7070   20.2550   30.5290 C.3    75  SER75       0.2116
    122  OG       -10.8290   21.3620   30.7660 O.3    75  SER75      -0.2180
    123  N        -14.7120   22.8760   25.7320 N.3    78  LEU78      -0.1245
    124  CA       -15.2860   24.1270   26.2370 C.3    78  LEU78       0.1561
    125  C        -14.1930   25.1530   26.4470 C.2    78  LEU78       0.2260
    126  O        -14.4580   26.2720   26.9420 O.2    78  LEU78      -0.2867
    127  CB       -16.0190   23.9140   27.5660 C.3    78  LEU78       0.0270
    128  CG       -17.2440   23.0080   27.5390 C.3    78  LEU78       0.0019
    129  CD1      -17.8620   22.9170   28.9160 C.3    78  LEU78       0.0001
    130  CD2      -18.2450   23.6590   26.5520 C.3    78  LEU78       0.0001
    131  N        -11.5920   25.2050   28.3990 N.3    80  VAL80      -0.1245
    132  CA       -11.0650   25.3460   29.7380 C.3    80  VAL80       0.1561
    133  C         -9.6090   24.8310   29.8060 C.2    80  VAL80       0.2260
    134  O         -8.7790   25.4660   30.4210 O.2    80  VAL80      -0.2867
    135  CB       -11.9510   24.6310   30.7670 C.3    80  VAL80       0.0252
    136  CG1      -11.2770   24.6870   32.1400 C.3    80  VAL80       0.0019
    137  CG2      -13.2950   25.3670   30.8710 C.3    80  VAL80       0.0019
    138  N        -22.5500   14.7210   21.7940 N.3   200  GLU200     -0.1231
    139  CA       -23.9210   15.2500   21.8090 C.3   200  GLU200      0.1699
    140  C        -23.9660   16.7310   21.9110 C.2   200  GLU200      0.2592
    141  O        -24.7540   17.3880   21.2090 O.2   200  GLU200     -0.2718
    142  CB       -24.7190   14.7290   22.9920 C.3   200  GLU200      0.0402
    143  CG       -25.1950   13.3160   22.8480 C.3   200  GLU200      0.1161
    144  CD       -25.8080   12.8190   24.1770 C.2   200  GLU200      0.3649
    145  OE1      -26.3010   13.6680   25.0020 O.co2 200  GLU200     -0.2457
    146  OE2      -25.7490   11.5980   24.4020 O.co2 200  GLU200     -0.2457
    147  N        -23.1570   17.2810   22.8230 N.am  201  MET201     -0.1979
    148  CA       -23.0430   18.7100   22.9400 C.3   201  MET201      0.1605
    149  C        -22.5530   19.3620   21.6140 C.2   201  MET201      0.2287
    150  O        -23.1170   20.3660   21.1660 O.2   201  MET201     -0.2864
    151  CB       -22.0640   19.0450   24.0960 C.3   201  MET201      0.0413
    152  CG       -21.7950   20.6020   24.2580 C.3   201  MET201      0.0598
    153  SD       -20.4020   20.8090   25.4030 S.3   201  MET201     -0.1393
    154  CE       -19.0530   20.5770   24.1650 C.3   201  MET201      0.0692
    155  N        -22.8360   18.1220   18.6000 N.3   203  ASP203     -0.1225
    156  CA       -23.9520   18.0420   17.6640 C.3   203  ASP203      0.1805
    157  C        -25.0440   19.1170   17.8330 C.2   203  ASP203      0.2597
    158  O        -25.4150   19.8280   16.8830 O.2   203  ASP203     -0.2718
    159  CB       -24.5450   16.6370   17.6590 C.3   203  ASP203      0.1424
    160  CG       -25.5330   16.4700   16.4940 C.2   203  ASP203      0.3668
    161  OD1      -25.1130   16.5410   15.3210 O.co2 203  ASP203     -0.2456
    162  OD2      -26.7170   16.3600   16.7620 O.co2 203  ASP203     -0.2456
    163  N        -25.4860   19.3120   19.0690 N.am  204  ALA204     -0.1979
    164  CA       -26.4140   20.3710   19.3990 C.3   204  ALA204      0.1597
    165  C        -25.8610   21.7430   19.0620 C.2   204  ALA204      0.2287
    166  O        -26.6130   22.6420   18.6550 O.2   204  ALA204     -0.2864
    167  CB       -26.7840   20.3030   20.8720 C.3   204  ALA204      0.0319
@<TRIPOS>BOND
     1   161   160   ar
     2   160   162   ar
     3   160   159    1
     4   158   157    2
     5   159   156    1
     6   156   157    1
     7   156   155    1
     8   157   163   am
     9   166   165    2
    10   165   164    1
    11   163   164    1
    12   164   167    1
    13   150   149    2
    14   141   140    2
    15   149   148    1
    16   138   139    1
    17   139   140    1
    18   139   142    1
    19   140   147   am
    20   147   148    1
    21   143   142    1
    22   143   144    1
    23   148   151    1
    24   151   152    1
    25   154   153    1
    26   144   146   ar
    27   144   145   ar
    28   152   153    1
    29   123   124    1
    30   124   125    1
    31   124   127    1
    32   125   126    2
    33   130   128    1
    34    88    89   ar
    35    88    86   ar
    36    89    87   ar
    37   128   127    1
    38   128   129    1
    39   112   111    2
    40   109   110    1
    41   110   111    1
    42   110   113    1
    43    86    84   ar
    44   120   119    2
    45    66    64   ar
    46   115   114    1
    47   119   118    1
    48   111   117   am
    49   131   132    1
    50    64    65   ar
    51    64    63    1
    52    43    41   ar
    53    87    85   ar
    54    63    62    1
    55   113   114    1
    56   117   118    1
    57    84    85   ar
    58    84    83    1
    59   114   116    1
    60   118   121    1
    61   132   133    1
    62   132   135    1
    63   133   134    2
    64    41    40    1
    65    41    42   ar
    66    40    39    1
    67    62    59    1
    68    83    80    1
    69   121   122    1
    70   135   137    1
    71   135   136    1
    72   101   100    2
    73    98    99    1
    74    80    79    1
    75    80    81    1
    76   100    99    1
    77    82    81    2
    78    59    60    1
    79    59    58    1
    80    39    36    1
    81    99   102    1
    82    61    60    2
    83    36    35    1
    84    36    37    1
    85    81    90   am
    86    60    67   am
    87    17    19   ar
    88    17    15   ar
    89    38    37    2
    90    67    68    1
    91    19    18   ar
    92    37    44   am
    93    33    32    1
    94    15    14   ar
    95    90    91    1
    96    68    69    1
    97   102   103    1
    98   105   103   ar
    99   105   107   ar
   100   103   104   ar
   101    70    69    2
   102    91    92    1
   103    91    94    1
   104    69    71   am
   105    28    27    1
   106    28    29    1
   107    28    31    1
   108    18    16   ar
   109   107   108   ar
   110    44    45    1
   111    32    31    1
   112    32    34    1
   113    14    16   ar
   114    14    13    1
   115    97    95    1
   116    92    93    2
   117   104   106   ar
   118    29    30    2
   119    12    11    2
   120   108   106   ar
   121    95    94    1
   122    95    96    1
   123    71    72    1
   124    73    74    2
   125    73    72    1
   126    13    10    1
   127    46    45    1
   128    46    47    2
   129    45    48    1
   130    10    11    1
   131    10     9    1
   132    11    20   am
   133    72    75    1
   134    23    22    2
   135    20    21    1
   136    48    49    1
   137    21    22    1
   138    21    24    1
   139    75    77    1
   140    75    76    1
   141    26    24    1
   142    49    50   ar
   143    49    51   ar
   144    24    25    1
   145    76    78    1
   146     4     3    2
   147    54    51   ar
   148    54    56   ar
   149    50    52   ar
   150     7     6    1
   151    51    53   ar
   152     2     3    1
   153     2     1    1
   154     2     5    1
   155    56    57   ar
   156    52    53   ar
   157    53    55   ar
   158     6     5    1
   159     6     8    1
   160    57    55   ar
