@<TRIPOS>MOLECULE
tmp/3n9tA01.pdb
 139 134 0 0 0
SMALL
GASTEIGER

@<TRIPOS>ATOM
      1  N        -12.1820   15.4130   30.7780 N.3    72  ILE72      -0.1231
      2  CA       -11.0810   16.1490   30.1560 C.3    72  ILE72       0.1692
      3  C        -11.5110   16.5870   28.7570 C.2    72  ILE72       0.2591
      4  O        -11.3210   17.7370   28.3640 O.2    72  ILE72      -0.2718
      5  CB        -9.8100   15.3100   30.1080 C.3    72  ILE72       0.0266
      6  CG1       -9.3270   15.0450   31.5480 C.3    72  ILE72       0.0019
      7  CG2       -8.7060   16.0090   29.2290 C.3    72  ILE72       0.0020
      8  CD1       -7.9160   14.3730   31.6580 C.3    72  ILE72       0.0001
      9  N        -12.1150   15.6750   28.0070 N.am   73  LEU73      -0.1980
     10  CA       -12.6050   16.0440   26.6840 C.3    73  LEU73       0.1596
     11  C        -13.6120   17.1740   26.7530 C.2    73  LEU73       0.2287
     12  O        -13.6130   18.0350   25.8860 O.2    73  LEU73      -0.2864
     13  CB       -13.2180   14.7990   25.9890 C.3    73  LEU73       0.0297
     14  CG       -13.4710   14.9710   24.5130 C.3    73  LEU73       0.0022
     15  CD1      -12.1610   15.3220   23.7780 C.3    73  LEU73       0.0001
     16  CD2      -13.8920   13.5430   24.0520 C.3    73  LEU73       0.0001
     17  N        -11.7120   20.2440   27.4040 N.3    76  ASP76      -0.1239
     18  CA       -10.9890   20.6560   26.1670 C.3    76  ASP76       0.1674
     19  C        -11.9210   21.3830   25.2180 C.2    76  ASP76       0.2266
     20  O        -11.5740   22.4420   24.7410 O.2    76  ASP76      -0.2867
     21  CB       -10.4230   19.4540   25.4150 C.3    76  ASP76       0.1410
     22  CG        -9.3150   18.6950   26.1850 C.2    76  ASP76       0.3668
     23  OD1       -8.6580   19.2130   27.1000 O.co2  76  ASP76      -0.2456
     24  OD2       -9.0510   17.5590   25.7760 O.co2  76  ASP76      -0.2456
     25  N         -1.6590   22.7090   25.6290 N.3   100  VAL100     -0.1245
     26  CA        -1.7720   21.4410   26.3530 C.3   100  VAL100      0.1561
     27  C         -0.9190   20.3280   25.7450 C.2   100  VAL100      0.2260
     28  O         -0.5720   20.3430   24.5590 O.2   100  VAL100     -0.2867
     29  CB        -3.2230   20.9220   26.4250 C.3   100  VAL100      0.0252
     30  CG1       -4.0640   21.7970   27.3520 C.3   100  VAL100      0.0019
     31  CG2       -3.8320   20.7710   24.9640 C.3   100  VAL100      0.0019
     32  N         -2.2410   17.2930   25.4540 N.3   102  GLY102     -0.1210
     33  CA        -3.1390   16.2590   24.9160 C.3   102  GLY102      0.1940
     34  C         -3.0010   14.9490   25.7220 C.2   102  GLY102      0.2454
     35  O         -2.2290   14.8570   26.7040 O.2   102  GLY102     -0.2732
     36  N         -3.7670   13.9180   25.3370 N.am  103  PRO103     -0.2717
     37  CA        -3.7140   12.7010   26.1410 C.3   103  PRO103      0.1535
     38  C         -2.7040   11.6850   25.5810 C.2   103  PRO103      0.2598
     39  O         -2.5560   10.5900   26.1600 O.2   103  PRO103     -0.2715
     40  CB        -5.1240   12.1430   25.9830 C.3   103  PRO103      0.0310
     41  CG        -5.4790   12.5050   24.5630 C.3   103  PRO103      0.0237
     42  CD        -4.7390   13.8140   24.2400 C.3   103  PRO103      0.0939
     43  N         -1.9930   12.0570   24.5050 N.am  104  PHE104     -0.1974
     44  CA        -1.3140   11.0700   23.7020 C.3   104  PHE104      0.1639
     45  C          0.2200   10.8820   23.8220 C.2   104  PHE104      0.2290
     46  O          0.8130   10.0990   23.0510 O.2   104  PHE104     -0.2864
     47  CB        -1.7180   11.2730   22.2600 C.3   104  PHE104      0.0560
     48  CG        -3.1610   10.9770   22.0020 C.ar  104  PHE104     -0.0200
     49  CD1       -3.7260    9.7470   22.4190 C.ar  104  PHE104     -0.0042
     50  CD2       -3.9770   11.9280   21.3320 C.ar  104  PHE104     -0.0042
     51  CE1       -5.0800    9.4590   22.1690 C.ar  104  PHE104     -0.0003
     52  CE2       -5.3410   11.6370   21.0390 C.ar  104  PHE104     -0.0003
     53  CZ        -5.9000   10.4200   21.4730 C.ar  104  PHE104     -0.0000
     54  N         -2.8020    7.8720   16.9610 N.3   156  TYR156     -0.1241
     55  CA        -1.4280    7.7820   17.4970 C.3   156  TYR156      0.1605
     56  C         -1.0740    6.3000   17.7520 C.2   156  TYR156      0.2264
     57  O         -1.9470    5.5200   18.1350 O.2   156  TYR156     -0.2867
     58  CB        -1.2960    8.5710   18.7760 C.3   156  TYR156      0.0534
     59  CG        -1.4860   10.0480   18.5100 C.ar  156  TYR156     -0.0201
     60  CD1       -0.3930   10.8780   18.3220 C.ar  156  TYR156     -0.0009
     61  CD2       -2.7750   10.6050   18.4130 C.ar  156  TYR156     -0.0009
     62  CE1       -0.5650   12.2570   18.0640 C.ar  156  TYR156      0.0417
     63  CE2       -2.9580   11.9840   18.1350 C.ar  156  TYR156      0.0417
     64  CZ        -1.8460   12.7900   17.9490 C.ar  156  TYR156      0.1957
     65  OH        -2.0040   14.1190   17.6280 O.3   156  TYR156     -0.2866
     66  N         -1.9970    4.2740   20.8150 N.3   159  GLN159     -0.1245
     67  CA        -3.4120    4.5820   21.0490 C.3   159  GLN159      0.1566
     68  C         -4.0510    3.5250   20.1440 C.2   159  GLN159      0.2260
     69  O         -4.9870    2.8320   20.5440 O.2   159  GLN159     -0.2867
     70  CB        -3.7950    5.9970   20.5740 C.3   159  GLN159      0.0367
     71  CG        -5.2400    6.0450   20.0430 C.3   159  GLN159      0.0905
     72  CD        -5.6840    7.3940   19.4480 C.2   159  GLN159      0.2608
     73  OE1       -5.0560    7.9640   18.5280 O.2   159  GLN159     -0.2717
     74  NE2       -6.8110    7.8800   19.9470 N.am  159  GLN159     -0.0878
     75  N         -7.6620   15.0610   12.2790 N.3   190  TYR190     -0.1241
     76  CA        -8.3480   13.8710   12.7630 C.3   190  TYR190      0.1605
     77  C         -9.4380   14.3560   13.7430 C.2   190  TYR190      0.2264
     78  O         -9.2790   15.4640   14.2710 O.2   190  TYR190     -0.2867
     79  CB        -7.3540   12.9150   13.4450 C.3   190  TYR190      0.0534
     80  CG        -6.6340   13.5140   14.6590 C.ar  190  TYR190     -0.0201
     81  CD1       -5.3780   14.0910   14.5270 C.ar  190  TYR190     -0.0009
     82  CD2       -7.1800   13.4430   15.9400 C.ar  190  TYR190     -0.0009
     83  CE1       -4.6830   14.5950   15.6200 C.ar  190  TYR190      0.0417
     84  CE2       -6.4990   13.9690   17.0520 C.ar  190  TYR190      0.0417
     85  CZ        -5.2430   14.5570   16.8980 C.ar  190  TYR190      0.1957
     86  OH        -4.4890   15.0870   17.9760 O.3   190  TYR190     -0.2866
     87  N        -11.9380   14.3070   17.1830 N.3   192  ILE192     -0.1231
     88  CA       -11.9210   13.8380   18.5590 C.3   192  ILE192      0.1678
     89  C        -13.0880   12.8530   18.7780 C.2   192  ILE192      0.2434
     90  O        -14.0440   12.8580   17.9950 O.2   192  ILE192     -0.2733
     91  CB       -12.0240   15.0080   19.5300 C.3   192  ILE192      0.0265
     92  CG1      -13.4030   15.6690   19.3690 C.3   192  ILE192      0.0019
     93  CG2      -10.8820   16.0620   19.3170 C.3   192  ILE192      0.0020
     94  CD1      -13.8090   16.3920   20.7080 C.3   192  ILE192      0.0001
     95  N        -13.0720   12.0860   19.8840 N.am  193  PRO193     -0.2729
     96  CA       -14.1860   11.1070   20.0690 C.3   193  PRO193      0.1401
     97  C        -15.5600   11.7760   20.1930 C.2   193  PRO193      0.2269
     98  O        -15.7480   12.7570   20.9370 O.2   193  PRO193     -0.2865
     99  CB       -13.8100   10.3830   21.3740 C.3   193  PRO193      0.0296
    100  CG       -12.3340   10.7270   21.6400 C.3   193  PRO193      0.0237
    101  CD       -12.0440   11.9990   20.9440 C.3   193  PRO193      0.0939
    102  N         -9.7270   18.2530   14.8250 N.3   211  ARG211     -0.1245
    103  CA        -8.5010   19.0200   15.0010 C.3   211  ARG211      0.1563
    104  C         -7.7300   19.2710   13.7050 C.2   211  ARG211      0.2260
    105  O         -7.5850   18.3530   12.8980 O.2   211  ARG211     -0.2867
    106  CB        -7.6120   18.3220   15.9630 C.3   211  ARG211      0.0307
    107  CG        -8.3990   18.0320   17.2560 C.3   211  ARG211      0.0489
    108  CD        -7.5810   18.3260   18.4650 C.3   211  ARG211      0.2205
    109  NE        -7.0190   19.6650   18.4500 N.pl3 211  ARG211     -0.0865
    110  CZ        -5.8750   19.9560   19.0340 C.cat 211  ARG211      0.5346
    111  NH1       -5.2220   19.0110   19.6810 N.pl3 211  ARG211      0.1354
    112  NH2       -5.3880   21.1800   19.0040 N.pl3 211  ARG211      0.1354
    113  N         -1.3610   18.5180   13.1100 N.3   214  HIS214     -0.1241
    114  CA        -0.2960   19.0600   13.9510 C.3   214  HIS214      0.1621
    115  C          0.7570   18.0670   14.3060 C.2   214  HIS214      0.2264
    116  O          0.4950   16.8620   14.3100 O.2   214  HIS214     -0.2867
    117  CB        -0.8410   19.6270   15.2630 C.3   214  HIS214      0.0745
    118  CG        -1.6820   18.6530   16.0520 C.ar  214  HIS214      0.0817
    119  ND1       -3.0160   18.4500   15.7940 N.ar  214  HIS214     -0.2268
    120  CD2       -1.3780   17.8540   17.1090 C.ar  214  HIS214      0.1154
    121  CE1       -3.4920   17.5440   16.6480 C.ar  214  HIS214      0.1986
    122  NE2       -2.5170   17.1590   17.4510 N.ar  214  HIS214     -0.2212
    123  N          3.2180   17.3280   17.7310 N.3   216  HIS216     -0.1241
    124  CA         3.3540   17.6610   19.1700 C.3   216  HIS216      0.1621
    125  C          4.8130   17.7550   19.4810 C.2   216  HIS216      0.2264
    126  O          5.5760   16.9710   18.9650 O.2   216  HIS216     -0.2867
    127  CB         2.7720   16.5720   20.0660 C.3   216  HIS216      0.0745
    128  CG         1.2630   16.4500   20.0100 C.ar  216  HIS216      0.0817
    129  ND1        0.4300   17.2330   20.7830 N.ar  216  HIS216     -0.2268
    130  CD2        0.4470   15.6380   19.2770 C.ar  216  HIS216      0.1154
    131  CE1       -0.8360   16.9100   20.5350 C.ar  216  HIS216      0.1986
    132  NE2       -0.8580   15.9500   19.6180 N.ar  216  HIS216     -0.2212
    133  N        -10.7360   22.0890   19.9910 N.3   244  VAL244     -0.1245
    134  CA       -10.2970   22.2470   21.3840 C.3   244  VAL244      0.1561
    135  C         -9.4620   23.5080   21.5170 C.2   244  VAL244      0.2260
    136  O         -8.7570   23.6840   22.4800 O.2   244  VAL244     -0.2867
    137  CB        -9.5550   20.9960   21.9070 C.3   244  VAL244      0.0252
    138  CG1      -10.3920   19.6970   21.7350 C.3   244  VAL244      0.0019
    139  CG2       -8.2070   20.7930   21.1580 C.3   244  VAL244      0.0019
@<TRIPOS>BOND
     1    75    76    1
     2    76    79    1
     3    76    77    1
     4   105   104    2
     5   113   114    1
     6    79    80    1
     7   104   103    1
     8    77    78    2
     9   114   115    1
    10   114   117    1
    11   115   116    2
    12    81    80   ar
    13    81    83   ar
    14    80    82   ar
    15   102   103    1
    16   103   106    1
    17   117   118    1
    18    83    85   ar
    19   119   118   ar
    20   119   121   ar
    21    82    84   ar
    22   106   107    1
    23   118   120   ar
    24   121   122   ar
    25    85    84   ar
    26    85    86    1
    27    54    55    1
    28   120   122   ar
    29    87    88    1
    30   107   108    1
    31    55    56    1
    32    55    58    1
    33    65    64    1
    34   123   124    1
    35    56    57    2
    36    64    62   ar
    37    64    63   ar
    38    90    89    2
    39    62    60   ar
    40    63    61   ar
    41    60    59   ar
    42    61    59   ar
    43   109   108    1
    44   109   110    2
    45    59    58    1
    46    73    72    2
    47    88    89    1
    48    88    91    1
    49    89    95   am
    50   126   125    2
    51   112   110    1
    52   110   111    1
    53   124   125    1
    54   124   127    1
    55   130   132   ar
    56   130   128   ar
    57    93    91    1
    58    92    91    1
    59    92    94    1
    60    72    74   am
    61    72    71    1
    62   132   131   ar
    63    95    96    1
    64    95   101    1
    65   133   134    1
    66   128   127    1
    67   128   129   ar
    68    71    70    1
    69    96    97    1
    70    96    99    1
    71    68    69    2
    72    68    67    1
    73    97    98    2
    74   131   129   ar
    75    70    67    1
    76    66    67    1
    77   101   100    1
    78    52    50   ar
    79    52    53   ar
    80   139   137    1
    81    50    48   ar
    82    99   100    1
    83   134   135    1
    84   134   137    1
    85    53    51   ar
    86   135   136    2
    87   138   137    1
    88    48    47    1
    89    48    49   ar
    90    51    49   ar
    91    47    44    1
    92    46    45    2
    93    44    45    1
    94    44    43    1
    95    15    14    1
    96    16    14    1
    97    42    41    1
    98    42    36    1
    99    43    38   am
   100    14    13    1
   101    28    27    2
   102    41    40    1
   103    20    19    2
   104    33    32    1
   105    33    34    1
   106    31    29    1
   107    19    18    1
   108    36    34   am
   109    36    37    1
   110    21    18    1
   111    21    22    1
   112    38    37    1
   113    38    39    2
   114    25    26    1
   115    34    35    2
   116    27    26    1
   117    24    22   ar
   118    12    11    2
   119    40    37    1
   120    13    10    1
   121    18    17    1
   122    22    23   ar
   123    26    29    1
   124    29    30    1
   125    10    11    1
   126    10     9    1
   127     9     3   am
   128     4     3    2
   129     3     2    1
   130     7     5    1
   131     5     2    1
   132     5     6    1
   133     2     1    1
   134     6     8    1
