@<TRIPOS>MOLECULE
tmp/3na1A01.pdb
 204 194 0 0 0
SMALL
GASTEIGER

@<TRIPOS>ATOM
      1  N        -36.9060  -15.3400   48.1900 N.3    31  VAL31      -0.1245
      2  CA       -38.1240  -15.2580   48.9970 C.3    31  VAL31       0.1561
      3  C        -39.1900  -14.3300   48.3660 C.2    31  VAL31       0.2260
      4  O        -40.3800  -14.6320   48.4080 O.2    31  VAL31      -0.2867
      5  CB       -37.8060  -14.8480   50.4680 C.3    31  VAL31       0.0252
      6  CG1      -37.4120  -13.4060   50.5480 C.3    31  VAL31       0.0019
      7  CG2      -38.9940  -15.0950   51.3690 C.3    31  VAL31       0.0019
      8  N        -43.1920   -5.6770   65.0130 N.3    77  ARG77      -0.1231
      9  CA       -42.9430   -6.3650   63.7410 C.3    77  ARG77       0.1694
     10  C        -42.1980   -7.6570   64.0460 C.2    77  ARG77       0.2592
     11  O        -41.9300   -7.9520   65.2110 O.2    77  ARG77      -0.2718
     12  CB       -42.1080   -5.4930   62.7920 C.3    77  ARG77       0.0321
     13  CG       -40.6390   -5.3270   63.1950 C.3    77  ARG77       0.0489
     14  CD       -39.8250   -4.5960   62.1210 C.3    77  ARG77       0.2205
     15  NE       -40.1760   -3.1820   62.0110 N.pl3  77  ARG77      -0.0865
     16  CZ       -39.6480   -2.2070   62.7550 C.cat  77  ARG77       0.5346
     17  NH1      -38.7360   -2.4690   63.6940 N.pl3  77  ARG77       0.1354
     18  NH2      -40.0450   -0.9570   62.5670 N.pl3  77  ARG77       0.1354
     19  N        -41.8410   -8.4090   63.0080 N.am   78  PHE78      -0.1976
     20  CA       -41.0780   -9.6360   63.1900 C.3    78  PHE78       0.1639
     21  C        -39.6390   -9.3300   63.5500 C.2    78  PHE78       0.2290
     22  O        -38.9750   -8.5490   62.8650 O.2    78  PHE78      -0.2864
     23  CB       -41.1100  -10.5030   61.9260 C.3    78  PHE78       0.0560
     24  CG       -40.4510  -11.8580   62.1000 C.ar   78  PHE78      -0.0200
     25  CD1      -41.0410  -12.8390   62.9050 C.ar   78  PHE78      -0.0042
     26  CD2      -39.2540  -12.1510   61.4580 C.ar   78  PHE78      -0.0042
     27  CE1      -40.4450  -14.0900   63.0700 C.ar   78  PHE78      -0.0003
     28  CE2      -38.6340  -13.4200   61.6170 C.ar   78  PHE78      -0.0003
     29  CZ       -39.2360  -14.3840   62.4300 C.ar   78  PHE78      -0.0000
     30  N        -35.7830  -10.5660   63.9150 N.3    80  ILE80      -0.1245
     31  CA       -34.8890  -11.5120   63.2430 C.3    80  ILE80       0.1561
     32  C        -34.1910  -12.3830   64.3070 C.2    80  ILE80       0.2260
     33  O        -33.4490  -11.8660   65.1410 O.2    80  ILE80      -0.2867
     34  CB       -33.8560  -10.7680   62.3410 C.3    80  ILE80       0.0252
     35  CG1      -34.5620   -9.8050   61.3740 C.3    80  ILE80       0.0019
     36  CG2      -32.9790  -11.7550   61.5630 C.3    80  ILE80       0.0019
     37  CD1      -35.3230  -10.4880   60.2300 C.3    80  ILE80       0.0001
     38  N        -30.4620  -12.1220   65.1760 N.3    83  TRP83      -0.1241
     39  CA       -30.1240  -10.8230   65.7750 C.3    83  TRP83       0.1605
     40  C        -30.4630  -10.7980   67.2580 C.2    83  TRP83       0.2264
     41  O        -29.6650  -10.3360   68.0700 O.2    83  TRP83      -0.2867
     42  CB       -30.7850   -9.6350   65.0470 C.3    83  TRP83       0.0550
     43  CG       -30.5000   -9.5580   63.5700 C.ar   83  TRP83       0.0003
     44  CD1      -29.6630  -10.3630   62.8420 C.ar   83  TRP83       0.0946
     45  CD2      -31.0420   -8.6080   62.6440 C.ar   83  TRP83       0.0152
     46  NE1      -29.6630   -9.9780   61.5230 N.ar   83  TRP83      -0.2442
     47  CE2      -30.5010   -8.9030   61.3760 C.ar   83  TRP83       0.0810
     48  CE3      -31.9370   -7.5390   62.7650 C.ar   83  TRP83       0.0012
     49  CZ2      -30.8210   -8.1710   60.2370 C.ar   83  TRP83       0.0191
     50  CZ3      -32.2620   -6.8040   61.6160 C.ar   83  TRP83       0.0001
     51  CH2      -31.7030   -7.1340   60.3710 C.ar   83  TRP83       0.0015
     52  N        -34.8340   -0.9320   67.6850 N.3    97  LEU97      -0.1245
     53  CA       -35.1870   -2.0520   66.8130 C.3    97  LEU97       0.1561
     54  C        -35.6560   -3.2950   67.5860 C.2    97  LEU97       0.2260
     55  O        -36.6500   -3.9240   67.2070 O.2    97  LEU97      -0.2867
     56  CB       -34.0170   -2.4180   65.8900 C.3    97  LEU97       0.0270
     57  CG       -34.2270   -3.6020   64.9390 C.3    97  LEU97       0.0019
     58  CD1      -35.2430   -3.2740   63.8580 C.3    97  LEU97       0.0001
     59  CD2      -32.9230   -4.0650   64.3200 C.3    97  LEU97       0.0001
     60  N        -23.1110   -8.9890   58.0350 N.3   197  MET197     -0.1230
     61  CA       -24.1730   -9.2460   59.0090 C.3   197  MET197      0.1702
     62  C        -25.5170   -9.5800   58.3340 C.2   197  MET197      0.2592
     63  O        -26.1850  -10.5510   58.7150 O.2   197  MET197     -0.2718
     64  CB       -24.3250   -8.0420   59.9430 C.3   197  MET197      0.0401
     65  CG       -25.3210   -8.2400   61.0870 C.3   197  MET197      0.0596
     66  SD       -27.0500   -8.0360   60.6070 S.3   197  MET197     -0.1393
     67  CE       -27.1090   -6.2940   60.2380 C.3   197  MET197      0.0692
     68  N        -25.9150   -8.7680   57.3550 N.am  198  PHE198     -0.1976
     69  CA       -27.1090   -9.0620   56.5660 C.3   198  PHE198      0.1639
     70  C        -26.9920  -10.3950   55.8110 C.2   198  PHE198      0.2290
     71  O        -27.8710  -11.2540   55.9130 O.2   198  PHE198     -0.2864
     72  CB       -27.4020   -7.9250   55.5790 C.3   198  PHE198      0.0560
     73  CG       -27.9660   -6.6930   56.2240 C.ar  198  PHE198     -0.0200
     74  CD1      -27.3890   -5.4490   55.9990 C.ar  198  PHE198     -0.0042
     75  CD2      -29.0810   -6.7770   57.0580 C.ar  198  PHE198     -0.0042
     76  CE1      -27.9210   -4.2920   56.5990 C.ar  198  PHE198     -0.0003
     77  CE2      -29.6230   -5.6390   57.6590 C.ar  198  PHE198     -0.0003
     78  CZ       -29.0400   -4.3940   57.4350 C.ar  198  PHE198     -0.0000
     79  N        -32.5220  -17.8310   58.9200 N.3   205  LEU205     -0.1245
     80  CA       -33.7870  -17.0720   59.0130 C.3   205  LEU205      0.1561
     81  C        -35.0520  -17.7550   59.5620 C.2   205  LEU205      0.2260
     82  O        -35.7830  -17.1580   60.3910 O.2   205  LEU205     -0.2867
     83  CB       -34.1090  -16.4220   57.6690 C.3   205  LEU205      0.0270
     84  CG       -35.0090  -15.1940   57.8110 C.3   205  LEU205      0.0019
     85  CD1      -34.3150  -14.1330   58.6420 C.3   205  LEU205      0.0001
     86  CD2      -35.4460  -14.6460   56.4410 C.3   205  LEU205      0.0001
     87  N        -21.3060   -8.7440   63.7220 N.3   227  TRP227     -0.1241
     88  CA       -21.8900   -7.8750   64.7570 C.3   227  TRP227      0.1605
     89  C        -20.8190   -7.3140   65.7120 C.2   227  TRP227      0.2264
     90  O        -20.9090   -6.1530   66.1170 O.2   227  TRP227     -0.2867
     91  CB       -22.9440   -8.6190   65.5790 C.3   227  TRP227      0.0550
     92  CG       -24.3340   -8.6480   65.0200 C.ar  227  TRP227      0.0003
     93  CD1      -24.9910   -9.7370   64.5230 C.ar  227  TRP227      0.0946
     94  CD2      -25.2560   -7.5500   64.9350 C.ar  227  TRP227      0.0152
     95  NE1      -26.2590   -9.3830   64.1190 N.ar  227  TRP227     -0.2442
     96  CE2      -26.4460   -8.0480   64.3570 C.ar  227  TRP227      0.0810
     97  CE3      -25.1880   -6.1900   65.2780 C.ar  227  TRP227      0.0012
     98  CZ2      -27.5530   -7.2410   64.1180 C.ar  227  TRP227      0.0191
     99  CZ3      -26.2930   -5.3910   65.0560 C.ar  227  TRP227      0.0001
    100  CH2      -27.4610   -5.9170   64.4750 C.ar  227  TRP227      0.0015
    101  N        -27.4150    1.2200   66.0050 N.3   279  GLU279     -0.1245
    102  CA       -28.4890    0.7820   65.1170 C.3   279  GLU279      0.1567
    103  C        -28.7470    1.7560   63.9690 C.2   279  GLU279      0.2260
    104  O        -29.0430    1.3300   62.8550 O.2   279  GLU279     -0.2867
    105  CB       -29.7740    0.4710   65.8930 C.3   279  GLU279      0.0388
    106  CG       -29.5950   -0.7070   66.8490 C.3   279  GLU279      0.1160
    107  CD       -30.8690   -1.1350   67.5590 C.2   279  GLU279      0.3649
    108  OE1      -31.8910   -0.4340   67.4750 O.co2 279  GLU279     -0.2457
    109  OE2      -30.8420   -2.1880   68.2220 O.co2 279  GLU279     -0.2457
    110  N        -25.8120    1.2400   61.4370 N.3   282  ALA282     -0.1231
    111  CA       -25.8960   -0.0150   60.6990 C.3   282  ALA282      0.1694
    112  C        -27.1130   -0.0770   59.7700 C.2   282  ALA282      0.2592
    113  O        -27.0830   -0.7810   58.7470 O.2   282  ALA282     -0.2718
    114  CB       -25.8970   -1.1960   61.6530 C.3   282  ALA282      0.0304
    115  N        -28.1790    0.6370   60.1380 N.am  283  GLY283     -0.1957
    116  CA       -29.4110    0.6470   59.3640 C.3   283  GLY283      0.1869
    117  C        -29.3730    1.5860   58.1680 C.2   283  GLY283      0.2309
    118  O        -30.2650    1.5500   57.3230 O.2   283  GLY283     -0.2863
    119  N        -29.0450    0.4880   53.0170 N.3   287  THR287     -0.1218
    120  CA       -30.3940    0.8730   52.6540 C.3   287  THR287      0.1862
    121  C        -30.4360    1.9410   51.5690 C.2   287  THR287      0.2287
    122  O        -30.9350    1.6840   50.4730 O.2   287  THR287     -0.2866
    123  CB       -31.1910    1.3190   53.8880 C.3   287  THR287      0.1770
    124  OG1      -30.3920    2.2120   54.6820 O.3   287  THR287     -0.2211
    125  CG2      -31.5870    0.1030   54.7110 C.3   287  THR287      0.0375
    126  N        -36.5800   -2.2740   50.0670 N.3   347  ILE347     -0.1231
    127  CA       -35.4500   -2.8410   50.8000 C.3   347  ILE347      0.1692
    128  C        -35.9740   -4.0340   51.6200 C.2   347  ILE347      0.2593
    129  O        -35.3110   -5.0630   51.7560 O.2   347  ILE347     -0.2718
    130  CB       -34.7440   -1.7460   51.6710 C.3   347  ILE347      0.0266
    131  CG1      -33.2320   -1.7900   51.4860 C.3   347  ILE347      0.0019
    132  CG2      -35.0900   -1.8700   53.1430 C.3   347  ILE347      0.0020
    133  CD1      -32.7510   -1.1200   50.2420 C.3   347  ILE347      0.0001
    134  N        -37.2080   -3.8950   52.0850 N.am  348  SER348     -0.1938
    135  CA       -37.8810   -4.8520   52.9490 C.3   348  SER348      0.2055
    136  C        -38.8930   -5.6870   52.1270 C.2   348  SER348      0.2643
    137  O        -39.8520   -5.1180   51.5940 O.2   348  SER348     -0.2714
    138  CB       -38.6260   -4.0330   54.0090 C.3   348  SER348      0.2130
    139  OG       -39.1000   -4.8270   55.0690 O.3   348  SER348     -0.2179
    140  N        -38.6910   -7.0070   52.0100 N.am  349  VAL349     -0.1963
    141  CA       -39.6290   -7.8440   51.2390 C.3   349  VAL349      0.1727
    142  C        -41.0640   -7.7030   51.7210 C.2   349  VAL349      0.2616
    143  O        -41.9880   -7.7650   50.9260 O.2   349  VAL349     -0.2715
    144  CB       -39.3340   -9.3720   51.2540 C.3   349  VAL349      0.0290
    145  CG1      -38.5580   -9.7800   50.0560 C.3   349  VAL349      0.0023
    146  CG2      -38.7020   -9.8500   52.5670 C.3   349  VAL349      0.0023
    147  N        -41.2300   -7.5440   53.0290 N.am  350  THR350     -0.1951
    148  CA       -42.5330   -7.4280   53.6520 C.3   350  THR350      0.1897
    149  C        -42.4770   -6.3680   54.7470 C.2   350  THR350      0.2313
    150  O        -41.3980   -5.9830   55.1940 O.2   350  THR350     -0.2863
    151  CB       -42.9720   -8.7500   54.3570 C.3   350  THR350      0.1794
    152  OG1      -42.1120   -9.0110   55.4750 O.3   350  THR350     -0.2208
    153  CG2      -42.9520   -9.9540   53.4130 C.3   350  THR350      0.0378
    154  N        -44.3700   -6.3080   58.6310 N.3   352  GLN352     -0.1245
    155  CA       -45.0940   -7.2320   59.5110 C.3   352  GLN352      0.1566
    156  C        -45.6300   -6.5240   60.7580 C.2   352  GLN352      0.2260
    157  O        -45.0010   -5.6030   61.2840 O.2   352  GLN352     -0.2867
    158  CB       -44.2260   -8.4350   59.9280 C.3   352  GLN352      0.0367
    159  CG       -43.0930   -8.8200   58.9830 C.3   352  GLN352      0.0905
    160  CD       -41.9050   -7.8800   59.0840 C.2   352  GLN352      0.2608
    161  OE1      -41.5330   -7.4450   60.1820 O.2   352  GLN352     -0.2717
    162  NE2      -41.3080   -7.5460   57.9330 N.am  352  GLN352     -0.0878
    163  N        -48.1600  -10.3560   57.5450 N.3   373  GLN373     -0.1245
    164  CA       -47.1480   -9.7660   56.6680 C.3   373  GLN373      0.1566
    165  C        -47.7670   -9.1960   55.3940 C.2   373  GLN373      0.2260
    166  O        -48.5810   -9.8430   54.7260 O.2   373  GLN373     -0.2867
    167  CB       -46.0280  -10.7740   56.3300 C.3   373  GLN373      0.0367
    168  CG       -45.2530  -11.2540   57.5740 C.3   373  GLN373      0.0905
    169  CD       -43.9320  -11.9580   57.2630 C.2   373  GLN373      0.2608
    170  OE1      -43.1330  -11.4840   56.4560 O.2   373  GLN373     -0.2717
    171  NE2      -43.6870  -13.0820   57.9380 N.am  373  GLN373     -0.0878
    172  N        -39.9920    3.3760   59.5240 N.3   419  CYS419     -0.1235
    173  CA       -38.5610    3.6300   59.4870 C.3   419  CYS419      0.1677
    174  C        -38.1810    4.8530   60.3290 C.2   419  CYS419      0.2270
    175  O        -38.6950    5.9380   60.1000 O.2   419  CYS419     -0.2867
    176  CB       -38.0970    3.8550   58.0490 C.3   419  CYS419      0.0956
    177  SG       -36.3140    4.2020   57.9140 S.3   419  CYS419     -0.0801
    178  N        -32.5350  -11.7990   47.5960 N.3   454  PHE454     -0.1241
    179  CA       -32.7870  -11.5930   49.0100 C.3   454  PHE454      0.1605
    180  C        -31.5370  -11.9270   49.8230 C.2   454  PHE454      0.2264
    181  O        -31.1620  -13.0950   49.9490 O.2   454  PHE454     -0.2867
    182  CB       -33.9590  -12.4680   49.4510 C.3   454  PHE454      0.0534
    183  CG       -34.2640  -12.3910   50.9140 C.ar  454  PHE454     -0.0203
    184  CD1      -34.9490  -11.2930   51.4380 C.ar  454  PHE454     -0.0042
    185  CD2      -33.8970  -13.4320   51.7740 C.ar  454  PHE454     -0.0042
    186  CE1      -35.2550  -11.2350   52.7920 C.ar  454  PHE454     -0.0003
    187  CE2      -34.1980  -13.3780   53.1340 C.ar  454  PHE454     -0.0003
    188  CZ       -34.8700  -12.2840   53.6440 C.ar  454  PHE454     -0.0000
    189  N        -31.2870  -10.8020   53.1540 N.3   456  LEU456     -0.1231
    190  CA       -31.9910  -10.1490   54.2630 C.3   456  LEU456      0.1693
    191  C        -32.6440   -8.8270   53.8550 C.2   456  LEU456      0.2591
    192  O        -33.8590   -8.6710   53.9900 O.2   456  LEU456     -0.2718
    193  CB       -31.1630  -10.0350   55.5640 C.3   456  LEU456      0.0284
    194  CG       -32.2770  -10.0400   56.6210 C.3   456  LEU456      0.0019
    195  CD1      -32.2390  -11.2550   57.5330 C.3   456  LEU456      0.0001
    196  CD2      -32.4560   -8.7330   57.3560 C.3   456  LEU456      0.0001
    197  N        -31.8400   -7.8870   53.3690 N.am  457  ILE457     -0.1980
    198  CA       -32.3640   -6.7790   52.5910 C.3   457  ILE457      0.1595
    199  C        -32.3910   -7.2420   51.1350 C.2   457  ILE457      0.2287
    200  O        -31.6080   -8.1090   50.7440 O.2   457  ILE457     -0.2864
    201  CB       -31.5190   -5.4690   52.7260 C.3   457  ILE457      0.0276
    202  CG1      -30.1040   -5.6640   52.1850 C.3   457  ILE457      0.0022
    203  CG2      -31.4880   -4.9770   54.1820 C.3   457  ILE457      0.0022
    204  CD1      -29.3270   -4.3600   51.9520 C.3   457  ILE457      0.0001
@<TRIPOS>BOND
     1   178   179    1
     2     1     2    1
     3     3     4    2
     4     3     2    1
     5     2     5    1
     6   179   182    1
     7   179   180    1
     8   182   183    1
     9   180   181    2
    10   145   144    1
    11   126   127    1
    12   133   131    1
    13     5     6    1
    14     5     7    1
    15   122   121    2
    16   200   199    2
    17   127   128    1
    18   127   130    1
    19   183   184   ar
    20   183   185   ar
    21   143   142    2
    22   199   198    1
    23   141   144    1
    24   141   142    1
    25   141   140    1
    26   144   146    1
    27   184   186   ar
    28   131   130    1
    29   121   120    1
    30   137   136    2
    31   128   129    2
    32   128   134   am
    33   130   132    1
    34   142   147   am
    35   185   187   ar
    36   204   202    1
    37   140   136   am
    38   134   135    1
    39   136   135    1
    40   202   201    1
    41   198   201    1
    42   198   197    1
    43   120   119    1
    44   120   123    1
    45   201   203    1
    46   186   188   ar
    47   135   138    1
    48   147   148    1
    49   187   188   ar
    50   189   190    1
    51   197   191   am
    52   153   151    1
    53   148   151    1
    54   148   149    1
    55   191   192    2
    56   191   190    1
    57   123   124    1
    58   123   125    1
    59   138   139    1
    60   190   193    1
    61   151   152    1
    62   166   165    2
    63   149   150    2
    64   165   164    1
    65   193   194    1
    66    72    73    1
    67    72    69    1
    68    70    71    2
    69    70    69    1
    70    74    73   ar
    71    74    76   ar
    72    73    75   ar
    73   167   164    1
    74   167   168    1
    75    86    84    1
    76   170   169    2
    77    69    68    1
    78    76    78   ar
    79   194   196    1
    80   194   195    1
    81   164   163    1
    82    75    77   ar
    83   169   168    1
    84   169   171   am
    85   118   117    2
    86    68    62   am
    87    78    77   ar
    88    83    84    1
    89    83    80    1
    90    84    85    1
    91   177   176    1
    92   162   160   am
    93    60    61    1
    94   176   173    1
    95   117   116    1
    96    62    63    2
    97    62    61    1
    98   154   155    1
    99   113   112    2
   100    79    80    1
   101   159   160    1
   102   159   158    1
   103    61    64    1
   104    80    81    1
   105   160   161    2
   106   116   115    1
   107   173   172    1
   108   173   174    1
   109   155   158    1
   110   155   156    1
   111    81    82    2
   112   112   115   am
   113   112   111    1
   114    64    65    1
   115   175   174    2
   116    37    35    1
   117    49    51   ar
   118    49    47   ar
   119    67    66    1
   120    51    50   ar
   121    66    65    1
   122   111   110    1
   123   111   114    1
   124   156   157    2
   125    35    34    1
   126    47    46   ar
   127    47    45   ar
   128    26    28   ar
   129    26    24   ar
   130    46    44   ar
   131    36    34    1
   132    50    48   ar
   133    28    29   ar
   134    23    24    1
   135    23    20    1
   136    15    14    1
   137    15    16    2
   138    24    25   ar
   139    14    13    1
   140    34    31    1
   141    29    27   ar
   142    18    16    1
   143    45    48   ar
   144    45    43   ar
   145    16    17    1
   146    12    13    1
   147    12     9    1
   148    44    43   ar
   149   104   103    2
   150    22    21    2
   151    25    27   ar
   152    19    20    1
   153    19    10   am
   154    20    21    1
   155    31    30    1
   156    31    32    1
   157    43    42    1
   158    87    88    1
   159     9    10    1
   160     9     8    1
   161    58    57    1
   162   103   102    1
   163    10    11    2
   164    98    96   ar
   165    98   100   ar
   166    95    96   ar
   167    95    93   ar
   168    32    33    2
   169    59    57    1
   170    96    94   ar
   171   100    99   ar
   172    93    92   ar
   173    88    91    1
   174    88    89    1
   175    94    92   ar
   176    94    97   ar
   177    57    56    1
   178    92    91    1
   179    42    39    1
   180    99    97   ar
   181   102   105    1
   182   102   101    1
   183    38    39    1
   184    89    90    2
   185    39    40    1
   186    56    53    1
   187   105   106    1
   188    53    54    1
   189    53    52    1
   190   106   107    1
   191    55    54    2
   192    40    41    2
   193   108   107   ar
   194   107   109   ar
