@<TRIPOS>MOLECULE
tmp/3na5A00.pdb
 74 70 0 0 0
SMALL
GASTEIGER

@<TRIPOS>ATOM
      1  N         63.9110   31.0050   26.8900 N.3   158  PRO158     -0.2116
      2  CA        64.9690   29.9850   27.1310 C.3   158  PRO158      0.1372
      3  C         66.2920   30.6320   27.5360 C.2   158  PRO158      0.2244
      4  O         66.3320   31.8490   27.7650 O.2   158  PRO158     -0.2868
      5  CB        65.1110   29.2470   25.7710 C.3   158  PRO158      0.0268
      6  CG        64.0080   29.7600   24.9050 C.3   158  PRO158      0.0207
      7  CD        63.5250   31.0850   25.4710 C.3   158  PRO158      0.0892
      8  N         68.9410   31.7010   26.2420 N.3   160  ASN160     -0.1240
      9  CA        69.5100   32.8780   25.5530 C.3   160  ASN160      0.1653
     10  C         68.7910   34.1770   25.9700 C.2   160  ASN160      0.2266
     11  O         69.1450   35.2710   25.5010 O.2   160  ASN160     -0.2867
     12  CB        69.5690   32.6890   24.0310 C.3   160  ASN160      0.1155
     13  CG        68.2070   32.7690   23.3470 C.2   160  ASN160      0.2627
     14  OD1       67.1710   33.0650   23.9530 O.2   160  ASN160     -0.2716
     15  ND2       68.2160   32.5060   22.0320 N.am  160  ASN160     -0.0877
     16  N         62.5400   35.6290   23.7450 N.3   163  PRO163     -0.2102
     17  CA        61.3280   34.8340   23.6580 C.3   163  PRO163      0.1504
     18  C         61.6170   33.4670   23.0330 C.2   163  PRO163      0.2576
     19  O         62.4450   33.3520   22.1000 O.2   163  PRO163     -0.2718
     20  CB        60.4070   35.6630   22.7490 C.3   163  PRO163      0.0282
     21  CG        61.3570   36.5610   21.9710 C.3   163  PRO163      0.0208
     22  CD        62.4620   36.8590   22.9330 C.3   163  PRO163      0.0893
     23  N         60.9370   32.4280   23.5250 N.am  164  ALA164     -0.1966
     24  CA        61.0520   31.0980   22.9040 C.3   164  ALA164      0.1728
     25  C         60.6090   31.1520   21.4220 C.2   164  ALA164      0.2616
     26  O         59.6240   31.8410   21.0920 O.2   164  ALA164     -0.2715
     27  CB        60.2090   30.0680   23.6640 C.3   164  ALA164      0.0334
     28  N         61.3280   30.4220   20.5620 N.am  165  ASP165     -0.1971
     29  CA        60.9700   30.3390   19.1260 C.3   165  ASP165      0.1709
     30  C         60.0570   29.1270   18.8930 C.2   165  ASP165      0.2293
     31  O         59.7810   28.3630   19.8240 O.2   165  ASP165     -0.2864
     32  CB        62.2410   30.2770   18.2850 C.3   165  ASP165      0.1436
     33  CG        62.0240   30.7570   16.8400 C.2   165  ASP165      0.3671
     34  OD1       60.8740   31.0240   16.4170 O.co2 165  ASP165     -0.2456
     35  OD2       63.0360   30.8650   16.1340 O.co2 165  ASP165     -0.2456
     36  N         60.4830   26.2610   17.5580 N.3   167  ASN167     -0.1225
     37  CA        61.0340   24.9320   17.8270 C.3   167  ASN167      0.1785
     38  C         60.6940   24.5030   19.2410 C.2   167  ASN167      0.2597
     39  O         60.5850   23.3110   19.5330 O.2   167  ASN167     -0.2718
     40  CB        62.5370   24.8540   17.5800 C.3   167  ASN167      0.1169
     41  CG        63.3310   25.8210   18.4300 C.2   167  ASN167      0.2627
     42  OD1       62.8490   26.8890   18.8290 O.2   167  ASN167     -0.2716
     43  ND2       64.5810   25.4540   18.6960 N.am  167  ASN167     -0.0877
     44  N         60.5420   25.4880   20.1130 N.am  168  VAL168     -0.1980
     45  CA        60.1450   25.2100   21.4770 C.3   168  VAL168      0.1595
     46  C         58.6280   25.3860   21.6740 C.2   168  VAL168      0.2287
     47  O         57.9520   24.5150   22.2460 O.2   168  VAL168     -0.2864
     48  CB        60.9280   26.1330   22.4640 C.3   168  VAL168      0.0276
     49  CG1       60.3650   26.0100   23.8630 C.3   168  VAL168      0.0022
     50  CG2       62.4320   25.8230   22.4160 C.3   168  VAL168      0.0022
     51  N         61.6840   38.0650   16.9610 N.3   372  LYS372     -0.1245
     52  CA        62.4240   36.8130   17.0850 C.3   372  LYS372      0.1561
     53  C         63.6740   36.8560   16.2430 C.2   372  LYS372      0.2260
     54  O         64.6840   36.2220   16.5800 O.2   372  LYS372     -0.2867
     55  CB        61.5530   35.6010   16.6750 C.3   372  LYS372      0.0271
     56  CG        61.0740   35.6230   15.2210 C.3   372  LYS372      0.0035
     57  CD        60.6720   34.2200   14.7060 C.3   372  LYS372      0.0206
     58  CE        61.9360   33.3920   14.3670 C.3   372  LYS372      0.1093
     59  NZ        61.6590   32.0740   13.6860 N.3   372  LYS372     -0.1314
     60  N         66.8980   38.1670   18.1540 N.3   375  VAL375     -0.1231
     61  CA        67.3800   37.5550   19.4010 C.3   375  VAL375      0.1692
     62  C         68.8250   37.0380   19.3130 C.2   375  VAL375      0.2592
     63  O         69.6750   37.3380   20.1650 O.2   375  VAL375     -0.2718
     64  CB        66.4210   36.4510   19.8660 C.3   375  VAL375      0.0266
     65  CG1       67.0030   35.6620   21.0470 C.3   375  VAL375      0.0020
     66  CG2       65.0510   37.0860   20.2030 C.3   375  VAL375      0.0020
     67  N         69.1150   36.2490   18.2900 N.am  376  ASP376     -0.1974
     68  CA        70.4520   35.6720   18.1570 C.3   376  ASP376      0.1709
     69  C         71.5410   36.7240   17.9770 C.2   376  ASP376      0.2293
     70  O         72.6210   36.6090   18.5590 O.2   376  ASP376     -0.2864
     71  CB        70.4820   34.6370   17.0230 C.3   376  ASP376      0.1436
     72  CG        69.7030   33.3980   17.3700 C.2   376  ASP376      0.3671
     73  OD1       69.3190   33.2350   18.5580 O.co2 376  ASP376     -0.2456
     74  OD2       69.4890   32.5750   16.4620 O.co2 376  ASP376     -0.2456
@<TRIPOS>BOND
     1    59    58    1
     2    58    57    1
     3    57    56    1
     4    56    55    1
     5    35    33   ar
     6    53    54    2
     7    53    52    1
     8    34    33   ar
     9    74    72   ar
    10    55    52    1
    11    33    32    1
    12    51    52    1
    13    71    72    1
    14    71    68    1
    15    72    73   ar
    16    36    37    1
    17    40    37    1
    18    40    41    1
    19    37    38    1
    20    69    68    1
    21    69    70    2
    22    60    61    1
    23    68    67    1
    24    32    29    1
    25    67    62   am
    26    41    43   am
    27    41    42    2
    28    30    29    1
    29    30    31    2
    30    29    28    1
    31    38    39    2
    32    38    44   am
    33    62    61    1
    34    62    63    2
    35    61    64    1
    36    64    66    1
    37    64    65    1
    38    44    45    1
    39    28    25   am
    40    26    25    2
    41    25    24    1
    42    45    46    1
    43    45    48    1
    44    46    47    2
    45    21    20    1
    46    21    22    1
    47    15    13   am
    48    19    18    2
    49    50    48    1
    50    48    49    1
    51    20    17    1
    52    24    23    1
    53    24    27    1
    54    22    16    1
    55    18    23   am
    56    18    17    1
    57    13    14    2
    58    13    12    1
    59    17    16    1
    60    12     9    1
    61     6     7    1
    62     6     5    1
    63     7     1    1
    64    11    10    2
    65     9    10    1
    66     9     8    1
    67     5     2    1
    68     1     2    1
    69     2     3    1
    70     3     4    2
