@<TRIPOS>MOLECULE
tmp/3na5B00.pdb
 74 70 0 0 0
SMALL
GASTEIGER

@<TRIPOS>ATOM
      1  N         16.9950   32.6790   59.0510 N.3   158  PRO158     -0.2116
      2  CA        15.9570   31.6480   58.8650 C.3   158  PRO158      0.1372
      3  C         14.6690   32.3160   58.4220 C.2   158  PRO158      0.2244
      4  O         14.6620   33.5200   58.1950 O.2   158  PRO158     -0.2868
      5  CB        15.8060   31.0210   60.2600 C.3   158  PRO158      0.0268
      6  CG        17.0030   31.4940   61.0410 C.3   158  PRO158      0.0207
      7  CD        17.4310   32.8080   60.4500 C.3   158  PRO158      0.0892
      8  N         11.9910   33.5910   59.6990 N.3   160  ASN160     -0.1240
      9  CA        11.4750   34.8380   60.2480 C.3   160  ASN160      0.1653
     10  C         12.2330   36.0820   59.7830 C.2   160  ASN160      0.2266
     11  O         11.8870   37.2080   60.1920 O.2   160  ASN160     -0.2867
     12  CB        11.3500   34.7840   61.7720 C.3   160  ASN160      0.1155
     13  CG        12.6940   34.7950   62.4700 C.2   160  ASN160      0.2627
     14  OD1       13.7580   34.9470   61.8310 O.2   160  ASN160     -0.2716
     15  ND2       12.6580   34.6140   63.8050 N.am  160  ASN160     -0.0877
     16  N         18.5570   37.3910   61.9520 N.3   163  PRO163     -0.2102
     17  CA        19.7120   36.5000   62.0770 C.3   163  PRO163      0.1504
     18  C         19.3660   35.1870   62.7610 C.2   163  PRO163      0.2576
     19  O         18.5150   35.1510   63.6750 O.2   163  PRO163     -0.2718
     20  CB        20.6970   37.2910   62.9390 C.3   163  PRO163      0.0282
     21  CG        19.8490   38.4290   63.5740 C.3   163  PRO163      0.0208
     22  CD        18.7650   38.7000   62.5900 C.3   163  PRO163      0.0893
     23  N         20.0370   34.1190   62.3390 N.am  164  ALA164     -0.1966
     24  CA        19.8950   32.8250   63.0200 C.3   164  ALA164      0.1728
     25  C         20.4060   32.9380   64.4660 C.2   164  ALA164      0.2616
     26  O         21.3830   33.6550   64.7410 O.2   164  ALA164     -0.2715
     27  CB        20.6660   31.7640   62.2890 C.3   164  ALA164      0.0334
     28  N         19.7440   32.2150   65.3730 N.am  165  ASP165     -0.1971
     29  CA        20.0810   32.2490   66.7940 C.3   165  ASP165      0.1709
     30  C         20.8930   30.9760   67.0800 C.2   165  ASP165      0.2293
     31  O         21.0530   30.1390   66.1950 O.2   165  ASP165     -0.2864
     32  CB        18.7860   32.2510   67.6010 C.3   165  ASP165      0.1436
     33  CG        18.9640   32.7740   69.0280 C.2   165  ASP165      0.3671
     34  OD1       20.1150   32.9870   69.4740 O.co2 165  ASP165     -0.2456
     35  OD2       17.9320   32.9440   69.7080 O.co2 165  ASP165     -0.2456
     36  N         20.3670   28.1430   68.5870 N.3   167  ASN167     -0.1225
     37  CA        19.7550   26.8460   68.3230 C.3   167  ASN167      0.1785
     38  C         20.1050   26.3630   66.9180 C.2   167  ASN167      0.2597
     39  O         20.1760   25.1620   66.6630 O.2   167  ASN167     -0.2718
     40  CB        18.2390   26.8940   68.5220 C.3   167  ASN167      0.1169
     41  CG        17.5480   27.7460   67.4820 C.2   167  ASN167      0.2627
     42  OD1       18.0450   28.7960   67.0960 O.2   167  ASN167     -0.2716
     43  ND2       16.3850   27.2940   67.0280 N.am  167  ASN167     -0.0877
     44  N         20.3670   27.3000   66.0110 N.am  168  VAL168     -0.1980
     45  CA        20.7310   26.9500   64.6440 C.3   168  VAL168      0.1595
     46  C         22.2330   27.1000   64.4210 C.2   168  VAL168      0.2287
     47  O         22.8890   26.2080   63.8880 O.2   168  VAL168     -0.2864
     48  CB        19.9830   27.8470   63.6170 C.3   168  VAL168      0.0276
     49  CG1       20.5930   27.7100   62.2220 C.3   168  VAL168      0.0022
     50  CG2       18.4840   27.5370   63.6180 C.3   168  VAL168      0.0022
     51  N         19.5310   40.1780   68.2280 N.3   372  LYS372     -0.1245
     52  CA        18.7110   38.9800   68.3040 C.3   372  LYS372      0.1561
     53  C         17.4640   39.2380   69.1560 C.2   372  LYS372      0.2260
     54  O         16.4140   38.6560   68.9050 O.2   372  LYS372     -0.2867
     55  CB        19.5100   37.8260   68.9260 C.3   372  LYS372      0.0271
     56  CG        19.9630   38.1500   70.3430 C.3   372  LYS372      0.0035
     57  CD        20.7050   36.9950   70.9790 C.3   372  LYS372      0.0206
     58  CE        19.8150   35.7890   71.0420 C.3   372  LYS372      0.1093
     59  NZ        18.4110   36.1240   71.4540 N.3   372  LYS372     -0.1314
     60  N         14.2420   40.5500   67.1370 N.3   375  VAL375     -0.1231
     61  CA        13.7120   39.8110   65.9830 C.3   375  VAL375      0.1692
     62  C         12.2540   39.3600   66.1670 C.2   375  VAL375      0.2592
     63  O         11.3650   39.6800   65.3650 O.2   375  VAL375     -0.2718
     64  CB        14.6640   38.6260   65.6200 C.3   375  VAL375      0.0266
     65  CG1       14.0350   37.7240   64.5630 C.3   375  VAL375      0.0020
     66  CG2       16.0380   39.1780   65.1450 C.3   375  VAL375      0.0020
     67  N         11.9660   38.6490   67.2510 N.am  376  ASP376     -0.1974
     68  CA        10.6060   38.1420   67.4150 C.3   376  ASP376      0.1709
     69  C          9.5540   39.2540   67.5160 C.2   376  ASP376      0.2293
     70  O          8.4440   39.1050   66.9960 O.2   376  ASP376     -0.2864
     71  CB        10.5390   37.1850   68.5910 C.3   376  ASP376      0.1436
     72  CG        11.3190   35.8910   68.3190 C.2   376  ASP376      0.3671
     73  OD1       11.6610   35.6240   67.1360 O.co2 376  ASP376     -0.2456
     74  OD2       11.5920   35.1650   69.3000 O.co2 376  ASP376     -0.2456
@<TRIPOS>BOND
     1     4     3    2
     2     3     2    1
     3     2     1    1
     4     2     5    1
     5     1     7    1
     6     8     9    1
     7    10    11    2
     8    10     9    1
     9     9    12    1
    10     5     6    1
    11     7     6    1
    12    12    13    1
    13    14    13    2
    14    16    17    1
    15    16    22    1
    16    17    18    1
    17    17    20    1
    18    49    48    1
    19    27    24    1
    20    23    18   am
    21    23    24    1
    22    13    15   am
    23    22    21    1
    24    18    19    2
    25    20    21    1
    26    24    25    1
    27    48    50    1
    28    48    45    1
    29    47    46    2
    30    46    45    1
    31    25    26    2
    32    25    28   am
    33    65    64    1
    34    45    44    1
    35    66    64    1
    36    63    62    2
    37    28    29    1
    38    64    61    1
    39    61    62    1
    40    61    60    1
    41    44    38   am
    42    62    67   am
    43    31    30    2
    44    39    38    2
    45    29    30    1
    46    29    32    1
    47    38    37    1
    48    70    69    2
    49    43    41   am
    50    42    41    2
    51    73    72   ar
    52    67    68    1
    53    68    69    1
    54    68    71    1
    55    41    40    1
    56    32    33    1
    57    51    52    1
    58    52    55    1
    59    52    53    1
    60    72    71    1
    61    72    74   ar
    62    37    40    1
    63    37    36    1
    64    54    53    2
    65    55    56    1
    66    33    34   ar
    67    33    35   ar
    68    56    57    1
    69    57    58    1
    70    58    59    1
