@<TRIPOS>MOLECULE
tmp/3nalA00.pdb
 214 202 0 0 0
SMALL
GASTEIGER

@<TRIPOS>ATOM
      1  N         -0.0960   18.1770   97.6810 N.3   249  LEU249     -0.1231
      2  CA        -0.1980   18.4570   96.2570 C.3   249  LEU249      0.1693
      3  C          1.1480   18.2360   95.5550 C.2   249  LEU249      0.2591
      4  O          1.2000   17.7660   94.4170 O.2   249  LEU249     -0.2718
      5  CB        -0.6530   19.8930   96.0700 C.3   249  LEU249      0.0284
      6  CG        -1.0570   20.3430   94.6820 C.3   249  LEU249      0.0019
      7  CD1       -2.2690   19.5790   94.2340 C.3   249  LEU249      0.0001
      8  CD2       -1.3610   21.8190   94.7180 C.3   249  LEU249      0.0001
      9  N          2.2400   18.5850   96.2360 N.am  250  GLN250     -0.1979
     10  CA         3.5890   18.4260   95.6790 C.3   250  GLN250      0.1601
     11  C          3.9080   16.9550   95.5480 C.2   250  GLN250      0.2287
     12  O          4.6550   16.5580   94.6640 O.2   250  GLN250     -0.2864
     13  CB         4.6410   19.0800   96.5760 C.3   250  GLN250      0.0394
     14  CG         4.3610   20.5330   96.9290 C.3   250  GLN250      0.0908
     15  CD         5.4930   21.1850   97.7200 C.2   250  GLN250      0.2608
     16  OE1        5.9770   20.6310   98.7220 O.2   250  GLN250     -0.2717
     17  NE2        5.9130   22.3790   97.2810 N.am  250  GLN250     -0.0878
     18  N          1.5300   14.6130   95.1170 N.3   252  LYS252     -0.1231
     19  CA         0.6810   14.1870   94.0190 C.3   252  LYS252      0.1693
     20  C          1.3190   14.5150   92.6760 C.2   252  LYS252      0.2591
     21  O          1.1820   13.7490   91.7270 O.2   252  LYS252     -0.2718
     22  CB        -0.7230   14.7930   94.1610 C.3   252  LYS252      0.0285
     23  CG        -1.5950   13.9230   95.0730 C.3   252  LYS252      0.0035
     24  CD        -2.9830   14.4820   95.3950 C.3   252  LYS252      0.0206
     25  CE        -2.9520   15.3480   96.6500 C.3   252  LYS252      0.1093
     26  NZ        -4.2890   15.7560   97.1690 N.3   252  LYS252     -0.1314
     27  N          2.0520   15.6240   92.6120 N.am  253  LEU253     -0.1980
     28  CA         2.7270   16.0230   91.3810 C.3   253  LEU253      0.1596
     29  C          3.8110   15.0290   90.9990 C.2   253  LEU253      0.2287
     30  O          3.9780   14.6970   89.8290 O.2   253  LEU253     -0.2864
     31  CB         3.3780   17.3960   91.5420 C.3   253  LEU253      0.0297
     32  CG         3.8930   18.0900   90.2640 C.3   253  LEU253      0.0022
     33  CD1        4.4910   19.4150   90.6690 C.3   253  LEU253      0.0001
     34  CD2        4.9330   17.2660   89.5090 C.3   253  LEU253      0.0001
     35  N          4.0050   11.8940   91.9880 N.3   255  GLU255     -0.1231
     36  CA         3.3370   10.6410   91.6750 C.3   255  GLU255      0.1699
     37  C          2.7600   10.6900   90.2580 C.2   255  GLU255      0.2592
     38  O          2.8370    9.7110   89.5100 O.2   255  GLU255     -0.2718
     39  CB         2.2390   10.4040   92.6970 C.3   255  GLU255      0.0402
     40  CG         1.1670    9.4550   92.2460 C.3   255  GLU255      0.1161
     41  CD        -0.1140    9.6570   93.0300 C.2   255  GLU255      0.3649
     42  OE1       -0.5870   10.8130   93.1110 O.co2 255  GLU255     -0.2457
     43  OE2       -0.6470    8.6640   93.5600 O.co2 255  GLU255     -0.2457
     44  N          2.1880   11.8350   89.9010 N.am  256  PHE256     -0.1976
     45  CA         1.6060   12.0360   88.5800 C.3   256  PHE256      0.1639
     46  C          2.6870   11.9960   87.4950 C.2   256  PHE256      0.2290
     47  O          2.4490   11.5540   86.3730 O.2   256  PHE256     -0.2864
     48  CB         0.8810   13.3850   88.5350 C.3   256  PHE256      0.0560
     49  CG         0.4170   13.7780   87.1610 C.ar  256  PHE256     -0.0200
     50  CD1       -0.8320   13.3860   86.6920 C.ar  256  PHE256     -0.0042
     51  CD2        1.2480   14.5070   86.3190 C.ar  256  PHE256     -0.0042
     52  CE1       -1.2430   13.7150   85.4040 C.ar  256  PHE256     -0.0003
     53  CE2        0.8440   14.8370   85.0330 C.ar  256  PHE256     -0.0003
     54  CZ        -0.4030   14.4410   84.5750 C.ar  256  PHE256     -0.0000
     55  N          3.8090    8.4280   86.7790 N.3   259  GLN259     -0.1231
     56  CA         2.8420    7.7220   85.9590 C.3   259  GLN259      0.1698
     57  C          2.8910    8.1680   84.5080 C.2   259  GLN259      0.2592
     58  O          3.0380    7.3530   83.5920 O.2   259  GLN259     -0.2718
     59  CB         1.4370    7.9070   86.5170 C.3   259  GLN259      0.0381
     60  CG         1.1760    7.0190   87.6590 C.3   259  GLN259      0.0905
     61  CD         1.7890    5.6730   87.4670 C.2   259  GLN259      0.2608
     62  OE1        2.6500    5.2000   88.1250 O.2   259  GLN259     -0.2717
     63  NE2        1.2420    4.9910   86.3710 N.am  259  GLN259     -0.0878
     64  N          2.7480    9.4700   84.3060 N.am  260  LEU260     -0.1980
     65  CA         2.7590   10.0310   82.9770 C.3   260  LEU260      0.1596
     66  C          3.9920    9.5000   82.2670 C.2   260  LEU260      0.2287
     67  O          3.9660    9.2210   81.0690 O.2   260  LEU260     -0.2864
     68  CB         2.7570   11.5600   83.0720 C.3   260  LEU260      0.0297
     69  CG         3.0490   12.4500   81.8610 C.3   260  LEU260      0.0022
     70  CD1        2.6280   11.7910   80.5750 C.3   260  LEU260      0.0001
     71  CD2        2.3220   13.7620   82.0470 C.3   260  LEU260      0.0001
     72  N          2.9980    5.7030   81.2220 N.3   263  VAL263     -0.1231
     73  CA         1.9790    5.6630   80.1870 C.3   263  VAL263      0.1692
     74  C          2.5400    6.0330   78.8180 C.2   263  VAL263      0.2591
     75  O          2.3280    5.3400   77.8210 O.2   263  VAL263     -0.2718
     76  CB         0.8640    6.6440   80.5170 C.3   263  VAL263      0.0266
     77  CG1       -0.2140    6.5680   79.4550 C.3   263  VAL263      0.0020
     78  CG2        0.3260    6.3630   81.9140 C.3   263  VAL263      0.0020
     79  N          3.2350    7.1570   78.7790 N.am  264  ILE264     -0.1980
     80  CA         3.8390    7.6220   77.5470 C.3   264  ILE264      0.1595
     81  C          4.5730    6.4870   76.8550 C.2   264  ILE264      0.2287
     82  O          4.1910    6.0900   75.7680 O.2   264  ILE264     -0.2864
     83  CB         4.8410    8.7460   77.8150 C.3   264  ILE264      0.0276
     84  CG1        4.1070   10.0820   77.8920 C.3   264  ILE264      0.0022
     85  CG2        5.9200    8.7400   76.7490 C.3   264  ILE264      0.0022
     86  CD1        4.9930   11.2250   78.2900 C.3   264  ILE264      0.0001
     87  N          2.5500    3.7850   75.5030 N.3   267  ILE267     -0.1245
     88  CA         1.8680    4.1920   74.2740 C.3   267  ILE267      0.1561
     89  C          2.8020    3.9440   73.0970 C.2   267  ILE267      0.2260
     90  O          2.3790    3.4760   72.0340 O.2   267  ILE267     -0.2867
     91  CB         1.4770    5.6980   74.3130 C.3   267  ILE267      0.0252
     92  CG1        0.1400    5.8650   75.0380 C.3   267  ILE267      0.0019
     93  CG2        1.3970    6.2750   72.8990 C.3   267  ILE267      0.0019
     94  CD1       -0.3930    7.2820   75.0190 C.3   267  ILE267      0.0001
     95  N          1.0440   15.6930   76.6070 N.3   306  ALA306     -0.1245
     96  CA         0.8090   15.0370   77.8930 C.3   306  ALA306      0.1562
     97  C          1.0560   15.8620   79.1390 C.2   306  ALA306      0.2260
     98  O          0.6200   15.4850   80.2140 O.2   306  ALA306     -0.2867
     99  CB         1.6220   13.7480   77.9760 C.3   306  ALA306      0.0290
    100  N         -0.2180   24.9890   83.7380 N.3   311  LEU311     -0.1245
    101  CA        -0.5510   24.8200   85.1380 C.3   311  LEU311      0.1561
    102  C          0.3060   25.6380   86.1160 C.2   311  LEU311      0.2260
    103  O         -0.2230   26.3740   86.9500 O.2   311  LEU311     -0.2867
    104  CB        -0.5080   23.3320   85.4820 C.3   311  LEU311      0.0270
    105  CG        -1.2120   22.8750   86.7640 C.3   311  LEU311      0.0019
    106  CD1       -2.4960   23.6730   87.0010 C.3   311  LEU311      0.0001
    107  CD2       -1.5220   21.3720   86.6440 C.3   311  LEU311      0.0001
    108  N         -1.5610   28.0030   88.7140 N.3   315  ILE315     -0.1245
    109  CA        -1.5000   27.7120   90.1370 C.3   315  ILE315      0.1561
    110  C         -0.8640   28.8490   90.9190 C.2   315  ILE315      0.2260
    111  O         -1.4270   29.3080   91.9020 O.2   315  ILE315     -0.2867
    112  CB        -0.7160   26.4250   90.3960 C.3   315  ILE315      0.0252
    113  CG1       -1.6190   25.2210   90.1350 C.3   315  ILE315      0.0019
    114  CG2       -0.1850   26.4180   91.8000 C.3   315  ILE315      0.0019
    115  CD1       -0.8840   23.8880   90.1010 C.3   315  ILE315      0.0001
    116  N          2.9070   27.3830   98.5680 N.3   337  PRO337     -0.2116
    117  CA         2.4810   25.9870   98.6640 C.3   337  PRO337      0.1372
    118  C          1.8180   25.6620  100.0000 C.2   337  PRO337      0.2244
    119  O          1.2270   24.5940  100.1590 O.2   337  PRO337     -0.2868
    120  CB         3.7870   25.2160   98.4770 C.3   337  PRO337      0.0268
    121  CG         4.5490   26.0820   97.5460 C.3   337  PRO337      0.0207
    122  CD         4.3210   27.4550   98.1670 C.3   337  PRO337      0.0892
    123  N         -7.4000   22.3080   87.9490 N.3   761  ILE761     -0.1245
    124  CA        -6.3420   21.3190   87.7520 C.3   761  ILE761      0.1561
    125  C         -6.9230   20.1570   86.9610 C.2   761  ILE761      0.2260
    126  O         -6.3290   19.6770   85.9960 O.2   761  ILE761     -0.2867
    127  CB        -5.7900   20.7520   89.0870 C.3   761  ILE761      0.0252
    128  CG1       -4.9630   21.8160   89.8120 C.3   761  ILE761      0.0019
    129  CG2       -4.9300   19.5180   88.8190 C.3   761  ILE761      0.0019
    130  CD1       -4.4620   21.3740   91.2110 C.3   761  ILE761      0.0001
    131  N         -5.7030   19.0310   83.3640 N.3   765  ILE765     -0.1245
    132  CA        -5.2440   17.6570   83.2440 C.3   765  ILE765      0.1561
    133  C         -6.1100   16.9020   82.2240 C.2   765  ILE765      0.2260
    134  O         -5.5840   16.2240   81.3440 O.2   765  ILE765     -0.2867
    135  CB        -5.2730   16.9140   84.6190 C.3   765  ILE765      0.0252
    136  CG1       -4.1730   17.4500   85.5500 C.3   765  ILE765      0.0019
    137  CG2       -5.0570   15.4180   84.4040 C.3   765  ILE765      0.0019
    138  CD1       -2.7860   16.9300   85.2290 C.3   765  ILE765      0.0001
    139  N         -5.2840   17.5410   78.6950 N.3   768  ASN768     -0.1225
    140  CA        -4.0700   16.8520   78.2700 C.3   768  ASN768      0.1785
    141  C         -4.4100   15.4160   77.8940 C.2   768  ASN768      0.2597
    142  O         -3.9170   14.8940   76.8930 O.2   768  ASN768     -0.2718
    143  CB        -2.9870   16.9000   79.3640 C.3   768  ASN768      0.1169
    144  CG        -2.3890   18.3010   79.5350 C.2   768  ASN768      0.2627
    145  OD1       -2.5380   18.9340   80.5810 O.2   768  ASN768     -0.2716
    146  ND2       -1.7130   18.7880   78.5000 N.am  768  ASN768     -0.0877
    147  N         -5.2780   14.7810   78.6730 N.am  769  VAL769     -0.1980
    148  CA        -5.6750   13.4100   78.3830 C.3   769  VAL769      0.1595
    149  C         -6.1990   13.3090   76.9480 C.2   769  VAL769      0.2287
    150  O         -5.7910   12.4370   76.1790 O.2   769  VAL769     -0.2864
    151  CB        -6.7960   12.9270   79.3270 C.3   769  VAL769      0.0276
    152  CG1       -7.1500   11.4630   79.0060 C.3   769  VAL769      0.0022
    153  CG2       -6.3690   13.1040   80.7760 C.3   769  VAL769      0.0022
    154  N         -3.7170   13.8760   74.1500 N.3   772  VAL772     -0.1245
    155  CA        -2.9370   12.6750   73.9460 C.3   772  VAL772      0.1561
    156  C         -3.6900   11.6310   73.1400 C.2   772  VAL772      0.2260
    157  O         -3.1130   11.0100   72.2650 O.2   772  VAL772     -0.2867
    158  CB        -2.4760   12.0790   75.2860 C.3   772  VAL772      0.0252
    159  CG1       -1.9800   10.6700   75.0840 C.3   772  VAL772      0.0019
    160  CG2       -1.3590   12.9380   75.8560 C.3   772  VAL772      0.0019
    161  N         -7.0280   11.4780   96.2450 N.3   827  PRO827     -0.2102
    162  CA        -6.6010   11.6800   94.8540 C.3   827  PRO827      0.1504
    163  C         -7.4340   12.7260   94.1420 C.2   827  PRO827      0.2576
    164  O         -8.6310   12.8330   94.3830 O.2   827  PRO827     -0.2718
    165  CB        -6.7700   10.2910   94.2220 C.3   827  PRO827      0.0282
    166  CG        -6.8710    9.3450   95.3840 C.3   827  PRO827      0.0208
    167  CD        -7.6550   10.1550   96.3870 C.3   827  PRO827      0.0893
    168  N         -6.7870   13.5030   93.2790 N.am  828  LEU828     -0.1966
    169  CA        -7.4760   14.5250   92.5020 C.3   828  LEU828      0.1728
    170  C         -8.4370   13.8790   91.5030 C.2   828  LEU828      0.2616
    171  O         -9.4980   14.4370   91.2100 O.2   828  LEU828     -0.2715
    172  CB        -6.4600   15.3800   91.7630 C.3   828  LEU828      0.0311
    173  CG        -6.0890   16.6750   92.4730 C.3   828  LEU828      0.0022
    174  CD1       -4.8930   17.3150   91.7710 C.3   828  LEU828      0.0001
    175  CD2       -7.2970   17.6050   92.4650 C.3   828  LEU828      0.0001
    176  N         -8.0590   12.7120   90.9780 N.am  829  ILE829     -0.1977
    177  CA        -8.9040   11.9710   90.0460 C.3   829  ILE829      0.1596
    178  C         -8.8270   10.4540   90.2160 C.2   829  ILE829      0.2287
    179  O         -7.7560    9.8590   90.1010 O.2   829  ILE829     -0.2864
    180  CB        -8.5640   12.2700   88.6000 C.3   829  ILE829      0.0276
    181  CG1       -8.8010   13.7440   88.2980 C.3   829  ILE829      0.0022
    182  CG2       -9.4500   11.4570   87.7130 C.3   829  ILE829      0.0022
    183  CD1       -8.2610   14.1690   86.9810 C.3   829  ILE829      0.0001
    184  N        -12.6590    9.4950   87.1620 N.3   834  PHE834     -0.1241
    185  CA       -11.5790    9.0500   86.3030 C.3   834  PHE834      0.1605
    186  C        -12.1910    8.6550   84.9750 C.2   834  PHE834      0.2264
    187  O        -11.8870    9.2260   83.9270 O.2   834  PHE834     -0.2867
    188  CB       -10.8690    7.8480   86.9150 C.3   834  PHE834      0.0534
    189  CG        -9.7730    7.3000   86.0540 C.ar  834  PHE834     -0.0203
    190  CD1       -8.5240    7.9100   86.0210 C.ar  834  PHE834     -0.0042
    191  CD2       -9.9940    6.1820   85.2610 C.ar  834  PHE834     -0.0042
    192  CE1       -7.5070    7.4100   85.2110 C.ar  834  PHE834     -0.0003
    193  CE2       -8.9920    5.6740   84.4500 C.ar  834  PHE834     -0.0003
    194  CZ        -7.7440    6.2870   84.4250 C.ar  834  PHE834     -0.0000
    195  N        -13.2870   11.4950   82.6020 N.3   837  TYR837     -0.1227
    196  CA       -12.2150   12.1260   81.8410 C.3   837  TYR837      0.1736
    197  C        -11.6320   11.1160   80.8780 C.2   837  TYR837      0.2595
    198  O        -11.1620   11.4500   79.7920 O.2   837  TYR837     -0.2718
    199  CB       -11.1470   12.6580   82.7960 C.3   837  TYR837      0.0548
    200  CG       -11.6320   13.8580   83.5770 C.ar  837  TYR837     -0.0200
    201  CD1      -12.3630   14.8650   82.9410 C.ar  837  TYR837     -0.0009
    202  CD2      -11.3770   13.9920   84.9390 C.ar  837  TYR837     -0.0009
    203  CE1      -12.8380   15.9780   83.6520 C.ar  837  TYR837      0.0417
    204  CE2      -11.8430   15.1040   85.6580 C.ar  837  TYR837      0.0417
    205  CZ       -12.5740   16.0870   85.0070 C.ar  837  TYR837      0.1957
    206  OH       -13.0490   17.1650   85.7040 O.3   837  TYR837     -0.2866
    207  N        -11.6610    9.8650   81.3080 N.am  838  MET838     -0.1979
    208  CA       -11.1990    8.7680   80.4910 C.3   838  MET838      0.1605
    209  C        -12.0230    8.9190   79.1990 C.2   838  MET838      0.2287
    210  O        -11.4770    9.1550   78.1240 O.2   838  MET838     -0.2864
    211  CB       -11.5290    7.4590   81.2070 C.3   838  MET838      0.0413
    212  CG       -11.1390    6.2450   80.4430 C.3   838  MET838      0.0598
    213  SD        -9.3460    6.0880   80.4020 S.3   838  MET838     -0.1393
    214  CE        -9.2180    4.2320   80.6450 C.3   838  MET838      0.0692
@<TRIPOS>BOND
     1    90    89    2
     2   157   156    2
     3    93    91    1
     4    89    88    1
     5   156   155    1
     6   155   154    1
     7   155   158    1
     8    88    91    1
     9    88    87    1
    10    91    92    1
    11    94    92    1
    12   159   158    1
    13   158   160    1
    14    82    81    2
    15   150   149    2
    16    95    96    1
    17    85    83    1
    18    81    80    1
    19   142   141    2
    20   149   148    1
    21    80    83    1
    22    80    79    1
    23    83    84    1
    24    75    74    2
    25    84    86    1
    26    96    99    1
    27    96    97    1
    28   141   140    1
    29   141   147   am
    30   210   209    2
    31   140   139    1
    32   140   143    1
    33   148   147    1
    34   148   151    1
    35   146   144   am
    36    79    74   am
    37    74    73    1
    38   152   151    1
    39    97    98    2
    40   209   208    1
    41   151   153    1
    42   143   144    1
    43    77    76    1
    44   144   145    2
    45   198   197    2
    46    73    76    1
    47    73    72    1
    48   213   212    1
    49   213   214    1
    50   212   211    1
    51   208   211    1
    52   208   207    1
    53    76    78    1
    54    70    69    1
    55   197   207   am
    56   197   196    1
    57    67    66    2
    58   134   133    2
    59   196   195    1
    60   196   199    1
    61    69    71    1
    62    69    68    1
    63   133   132    1
    64    66    65    1
    65   199   200    1
    66   201   200   ar
    67   201   203   ar
    68    65    68    1
    69    65    64    1
    70   132   131    1
    71   132   135    1
    72   200   202   ar
    73    58    57    2
    74   203   205   ar
    75   100   101    1
    76   187   186    2
    77    64    57   am
    78   137   135    1
    79   194   193   ar
    80   194   192   ar
    81   193   191   ar
    82    57    56    1
    83    54    53   ar
    84    54    52   ar
    85   135   136    1
    86   202   204   ar
    87   186   185    1
    88   205   204   ar
    89   205   206    1
    90    53    51   ar
    91   101   104    1
    92   101   102    1
    93   192   190   ar
    94   138   136    1
    95   191   189   ar
    96    52    50   ar
    97   104   105    1
    98    56    59    1
    99    56    55    1
   100   126   125    2
   101   190   189   ar
   102   189   188    1
   103   102   103    2
   104   185   188    1
   105   185   184    1
   106    51    49   ar
   107    63    61   am
   108    47    46    2
   109    59    60    1
   110   107   105    1
   111    50    49   ar
   112   105   106    1
   113   125   124    1
   114   183   181    1
   115    49    48    1
   116    61    60    1
   117    61    62    2
   118    46    45    1
   119   182   180    1
   120   124   123    1
   121   124   127    1
   122   181   180    1
   123    48    45    1
   124    45    44    1
   125   180   177    1
   126   108   109    1
   127   129   127    1
   128   127   128    1
   129    34    32    1
   130    38    37    2
   131   128   130    1
   132    30    29    2
   133    44    37   am
   134   177   178    1
   135   177   176    1
   136   179   178    2
   137   115   113    1
   138   113   112    1
   139   109   112    1
   140   109   110    1
   141    37    36    1
   142    32    33    1
   143    32    31    1
   144   112   114    1
   145   110   111    2
   146   176   170   am
   147    29    28    1
   148   171   170    2
   149    28    31    1
   150    28    27    1
   151   170   169    1
   152    36    35    1
   153    36    39    1
   154    21    20    2
   155   172   173    1
   156   172   169    1
   157   174   173    1
   158    40    39    1
   159    40    41    1
   160   175   173    1
   161   169   168    1
   162    27    20   am
   163    20    19    1
   164    41    42   ar
   165    41    43   ar
   166   168   163   am
   167    19    22    1
   168    19    18    1
   169   163   164    2
   170   163   162    1
   171    22    23    1
   172   165   162    1
   173   165   166    1
   174     7     6    1
   175     4     3    2
   176    12    11    2
   177     6     8    1
   178     6     5    1
   179   162   161    1
   180    23    24    1
   181   166   167    1
   182    24    25    1
   183    11    10    1
   184     3     9   am
   185     3     2    1
   186    10     9    1
   187    10    13    1
   188     5     2    1
   189   161   167    1
   190     2     1    1
   191    13    14    1
   192    25    26    1
   193    14    15    1
   194    17    15   am
   195   121   122    1
   196   121   120    1
   197    15    16    2
   198   122   116    1
   199   120   117    1
   200   116   117    1
   201   117   118    1
   202   118   119    2
