@<TRIPOS>MOLECULE
tmp/3namA00.pdb
 172 163 0 0 0
SMALL
GASTEIGER

@<TRIPOS>ATOM
      1  N          1.3130   14.8720   95.1390 N.3   252  LYS252     -0.1231
      2  CA         0.4470   14.3810   94.0740 C.3   252  LYS252      0.1693
      3  C          0.9970   14.7840   92.7140 C.2   252  LYS252      0.2591
      4  O          0.5780   14.2690   91.6910 O.2   252  LYS252     -0.2718
      5  CB        -0.9690   14.9200   94.2680 C.3   252  LYS252      0.0285
      6  CG        -1.7120   14.1610   95.3410 C.3   252  LYS252      0.0035
      7  CD        -3.0430   14.7830   95.6900 C.3   252  LYS252      0.0206
      8  CE        -2.9380   15.6100   96.9670 C.3   252  LYS252      0.1093
      9  NZ        -4.2200   16.2840   97.3560 N.3   252  LYS252     -0.1314
     10  N          1.9630   15.6940   92.7260 N.am  253  LEU253     -0.1980
     11  CA         2.6010   16.1920   91.5170 C.3   253  LEU253      0.1596
     12  C          3.7760   15.3210   91.1510 C.2   253  LEU253      0.2287
     13  O          4.1090   15.2000   89.9790 O.2   253  LEU253     -0.2864
     14  CB         3.0740   17.6240   91.7270 C.3   253  LEU253      0.0297
     15  CG         3.6390   18.4420   90.5660 C.3   253  LEU253      0.0022
     16  CD1        3.5770   19.9110   90.9790 C.3   253  LEU253      0.0001
     17  CD2        5.0650   18.0090   90.2030 C.3   253  LEU253      0.0001
     18  N          3.7370   12.2560   91.9770 N.3   255  GLU255     -0.1231
     19  CA         3.0320   11.0340   91.6310 C.3   255  GLU255      0.1699
     20  C          2.5360   11.0860   90.1920 C.2   255  GLU255      0.2592
     21  O          2.6960   10.1320   89.4310 O.2   255  GLU255     -0.2718
     22  CB         1.8520   10.8270   92.5720 C.3   255  GLU255      0.0402
     23  CG         0.9500    9.6800   92.1570 C.3   255  GLU255      0.1161
     24  CD        -0.2810    9.5610   93.0340 C.2   255  GLU255      0.3649
     25  OE1       -0.6400   10.5580   93.7020 O.co2 255  GLU255     -0.2457
     26  OE2       -0.8990    8.4750   93.0470 O.co2 255  GLU255     -0.2457
     27  N          1.9240   12.2030   89.8230 N.am  256  PHE256     -0.1976
     28  CA         1.4170   12.3790   88.4740 C.3   256  PHE256      0.1639
     29  C          2.5360   12.3280   87.4430 C.2   256  PHE256      0.2290
     30  O          2.3310   11.8730   86.3240 O.2   256  PHE256     -0.2864
     31  CB         0.7090   13.7160   88.3530 C.3   256  PHE256      0.0560
     32  CG         0.3360   14.0740   86.9470 C.ar  256  PHE256     -0.0200
     33  CD1       -0.8040   13.5370   86.3630 C.ar  256  PHE256     -0.0042
     34  CD2        1.1250   14.9560   86.2060 C.ar  256  PHE256     -0.0042
     35  CE1       -1.1570   13.8740   85.0670 C.ar  256  PHE256     -0.0003
     36  CE2        0.7830   15.3000   84.9070 C.ar  256  PHE256     -0.0003
     37  CZ        -0.3610   14.7590   84.3350 C.ar  256  PHE256     -0.0000
     38  N          3.7240    8.7230   86.7580 N.3   259  GLN259     -0.1231
     39  CA         2.7030    8.0900   85.9420 C.3   259  GLN259      0.1698
     40  C          2.7080    8.6160   84.5090 C.2   259  GLN259      0.2592
     41  O          2.7910    7.8460   83.5570 O.2   259  GLN259     -0.2718
     42  CB         1.3270    8.3180   86.5560 C.3   259  GLN259      0.0381
     43  CG         1.1230    7.5770   87.8490 C.3   259  GLN259      0.0905
     44  CD         1.3650    6.0910   87.6830 C.2   259  GLN259      0.2608
     45  OE1        0.6100    5.3980   86.9970 O.2   259  GLN259     -0.2717
     46  NE2        2.4350    5.5920   88.3000 N.am  259  GLN259     -0.0878
     47  N          2.6110    9.9310   84.3580 N.am  260  LEU260     -0.1980
     48  CA         2.6080   10.5420   83.0370 C.3   260  LEU260      0.1596
     49  C          3.9000   10.2160   82.3070 C.2   260  LEU260      0.2287
     50  O          4.1540   10.7030   81.2030 O.2   260  LEU260     -0.2864
     51  CB         2.4490   12.0580   83.1480 C.3   260  LEU260      0.0297
     52  CG         2.5420   12.8560   81.8410 C.3   260  LEU260      0.0022
     53  CD1        1.5120   12.3350   80.8410 C.3   260  LEU260      0.0001
     54  CD2        2.3230   14.3330   82.1250 C.3   260  LEU260      0.0001
     55  N          2.9420    6.0240   81.2570 N.3   263  VAL263     -0.1245
     56  CA         1.9330    6.0190   80.2250 C.3   263  VAL263      0.1561
     57  C          2.5240    6.4230   78.8690 C.2   263  VAL263      0.2260
     58  O          2.2740    5.7640   77.8640 O.2   263  VAL263     -0.2867
     59  CB         0.7760    6.9580   80.6040 C.3   263  VAL263      0.0252
     60  CG1        0.0820    7.4790   79.3540 C.3   263  VAL263      0.0019
     61  CG2       -0.2080    6.2080   81.4820 C.3   263  VAL263      0.0019
     62  N          0.9030   15.9710   76.4460 N.3   306  ALA306     -0.1245
     63  CA         0.6580   15.2880   77.7140 C.3   306  ALA306      0.1562
     64  C          0.8800   16.1520   78.9450 C.2   306  ALA306      0.2260
     65  O          0.1470   16.0520   79.9260 O.2   306  ALA306     -0.2867
     66  CB         1.5170   14.0450   77.8040 C.3   306  ALA306      0.0290
     67  N         -0.2680   25.3250   83.6610 N.3   311  LEU311     -0.1245
     68  CA        -0.6010   25.0910   85.0640 C.3   311  LEU311      0.1561
     69  C          0.2410   25.7820   86.1340 C.2   311  LEU311      0.2260
     70  O         -0.3050   26.4820   86.9870 O.2   311  LEU311     -0.2867
     71  CB        -0.6630   23.5920   85.3520 C.3   311  LEU311      0.0270
     72  CG        -1.5500   23.2610   86.5600 C.3   311  LEU311      0.0019
     73  CD1       -2.8860   23.9730   86.3860 C.3   311  LEU311      0.0001
     74  CD2       -1.7630   21.7620   86.6980 C.3   311  LEU311      0.0001
     75  N         -7.5960   22.5880   87.9830 N.3   761  ILE761     -0.1245
     76  CA        -6.5270   21.6220   87.7480 C.3   761  ILE761      0.1561
     77  C         -7.0930   20.4550   86.9660 C.2   761  ILE761      0.2260
     78  O         -6.4600   19.9570   86.0450 O.2   761  ILE761     -0.2867
     79  CB        -5.9300   21.0670   89.0390 C.3   761  ILE761      0.0252
     80  CG1       -5.0450   22.1270   89.6970 C.3   761  ILE761      0.0019
     81  CG2       -5.1540   19.7990   88.7350 C.3   761  ILE761      0.0019
     82  CD1       -4.4810   21.7060   91.0570 C.3   761  ILE761      0.0001
     83  N         -5.9690   19.4530   83.2610 N.3   765  ILE765     -0.1245
     84  CA        -5.4940   18.0860   83.1120 C.3   765  ILE765      0.1561
     85  C         -6.3340   17.3430   82.0550 C.2   765  ILE765      0.2260
     86  O         -5.7870   16.6340   81.2190 O.2   765  ILE765     -0.2867
     87  CB        -5.5510   17.2980   84.4610 C.3   765  ILE765      0.0252
     88  CG1       -4.4430   17.7630   85.4150 C.3   765  ILE765      0.0019
     89  CG2       -5.3980   15.8210   84.1980 C.3   765  ILE765      0.0019
     90  CD1       -3.0260   17.4670   84.9540 C.3   765  ILE765      0.0001
     91  N         -5.5440   18.0140   78.4550 N.3   768  ASN768     -0.1225
     92  CA        -4.2720   17.4290   78.0450 C.3   768  ASN768      0.1785
     93  C         -4.5670   15.9910   77.6460 C.2   768  ASN768      0.2597
     94  O         -3.9880   15.4780   76.6880 O.2   768  ASN768     -0.2718
     95  CB        -3.2390   17.4670   79.1850 C.3   768  ASN768      0.1169
     96  CG        -2.4620   18.7800   79.2380 C.2   768  ASN768      0.2627
     97  OD1       -2.4670   19.4830   80.2470 O.2   768  ASN768     -0.2716
     98  ND2       -1.7860   19.1070   78.1500 N.am  768  ASN768     -0.0877
     99  N         -5.4770   15.3450   78.3770 N.am  769  VAL769     -0.1980
    100  CA        -5.8500   13.9670   78.0640 C.3   769  VAL769      0.1595
    101  C         -6.4030   13.8860   76.6560 C.2   769  VAL769      0.2287
    102  O         -6.1030   12.9530   75.9180 O.2   769  VAL769     -0.2864
    103  CB        -6.9230   13.4100   79.0200 C.3   769  VAL769      0.0276
    104  CG1       -7.5110   12.1220   78.4500 C.3   769  VAL769      0.0022
    105  CG2       -6.3120   13.1330   80.3690 C.3   769  VAL769      0.0022
    106  N         -3.8310   14.1060   73.9390 N.3   772  VAL772     -0.1245
    107  CA        -3.0410   12.8950   73.8170 C.3   772  VAL772      0.1561
    108  C         -3.8100   11.8580   72.9990 C.2   772  VAL772      0.2260
    109  O         -3.2190   11.1600   72.1820 O.2   772  VAL772     -0.2867
    110  CB        -2.6440   12.3380   75.2050 C.3   772  VAL772      0.0252
    111  CG1       -2.1310   10.9090   75.0920 C.3   772  VAL772      0.0019
    112  CG2       -1.5510   13.2080   75.7840 C.3   772  VAL772      0.0019
    113  N         -7.2160   11.8330   96.3500 N.3   827  PRO827     -0.2102
    114  CA        -6.6330   12.0810   95.0350 C.3   827  PRO827      0.1504
    115  C         -7.5400   13.0640   94.3070 C.2   827  PRO827      0.2576
    116  O         -8.7180   13.1790   94.6510 O.2   827  PRO827     -0.2718
    117  CB        -6.6350   10.7010   94.3790 C.3   827  PRO827      0.0282
    118  CG        -7.4330    9.7920   95.3410 C.3   827  PRO827      0.0208
    119  CD        -8.1520   10.7070   96.2760 C.3   827  PRO827      0.0893
    120  N         -7.0000   13.7630   93.3130 N.am  828  LEU828     -0.1966
    121  CA        -7.7800   14.7340   92.5590 C.3   828  LEU828      0.1728
    122  C         -8.7550   14.1120   91.5650 C.2   828  LEU828      0.2616
    123  O         -9.8600   14.6270   91.3740 O.2   828  LEU828     -0.2715
    124  CB        -6.8550   15.7030   91.8300 C.3   828  LEU828      0.0311
    125  CG        -6.3990   16.8700   92.6820 C.3   828  LEU828      0.0022
    126  CD1       -5.5620   17.8310   91.8480 C.3   828  LEU828      0.0001
    127  CD2       -7.6250   17.5560   93.2200 C.3   828  LEU828      0.0001
    128  N         -8.3560   13.0120   90.9350 N.am  829  ILE829     -0.1963
    129  CA        -9.2270   12.3510   89.9720 C.3   829  ILE829      0.1727
    130  C         -9.1930   10.8320   90.1490 C.2   829  ILE829      0.2616
    131  O         -8.1330   10.2010   90.0410 O.2   829  ILE829     -0.2715
    132  CB        -8.8130   12.6790   88.5190 C.3   829  ILE829      0.0290
    133  CG1       -8.7260   14.1920   88.3080 C.3   829  ILE829      0.0022
    134  CG2       -9.8050   12.0700   87.5750 C.3   829  ILE829      0.0023
    135  CD1       -8.1150   14.6040   86.9760 C.3   829  ILE829      0.0001
    136  N        -10.3550   10.2510   90.4260 N.am  830  SER830     -0.1950
    137  CA       -10.4630    8.8090   90.6010 C.3   830  SER830      0.1924
    138  C        -11.9250    8.3960   90.4750 C.2   830  SER830      0.2314
    139  O        -12.8070    9.2500   90.3360 O.2   830  SER830     -0.2863
    140  CB        -9.9160    8.3940   91.9710 C.3   830  SER830      0.2116
    141  OG       -10.6420    9.0080   93.0230 O.3   830  SER830     -0.2180
    142  N        -12.6750    9.8220   87.0940 N.3   834  PHE834     -0.1241
    143  CA       -11.6340    9.3640   86.1980 C.3   834  PHE834      0.1605
    144  C        -12.2820    8.8880   84.9090 C.2   834  PHE834      0.2264
    145  O        -11.7130    9.0050   83.8270 O.2   834  PHE834     -0.2867
    146  CB       -10.8670    8.2130   86.8270 C.3   834  PHE834      0.0534
    147  CG        -9.8310    7.6400   85.9370 C.ar  834  PHE834     -0.0203
    148  CD1       -8.4920    7.9070   86.1570 C.ar  834  PHE834     -0.0042
    149  CD2      -10.1960    6.8560   84.8520 C.ar  834  PHE834     -0.0042
    150  CE1       -7.5310    7.4040   85.3110 C.ar  834  PHE834     -0.0003
    151  CE2       -9.2460    6.3480   83.9980 C.ar  834  PHE834     -0.0003
    152  CZ        -7.9060    6.6220   84.2250 C.ar  834  PHE834     -0.0000
    153  N        -13.4830   12.0110   82.3490 N.3   837  TYR837     -0.1227
    154  CA       -12.3650   12.6200   81.6240 C.3   837  TYR837      0.1736
    155  C        -11.7910   11.5670   80.6830 C.2   837  TYR837      0.2595
    156  O        -11.1800   11.8680   79.6590 O.2   837  TYR837     -0.2718
    157  CB       -11.3030   13.1180   82.6150 C.3   837  TYR837      0.0548
    158  CG       -11.7770   14.2880   83.4560 C.ar  837  TYR837     -0.0200
    159  CD1      -12.4200   15.3750   82.8620 C.ar  837  TYR837     -0.0009
    160  CD2      -11.5980   14.3080   84.8390 C.ar  837  TYR837     -0.0009
    161  CE1      -12.8760   16.4510   83.6150 C.ar  837  TYR837      0.0417
    162  CE2      -12.0520   15.3870   85.6050 C.ar  837  TYR837      0.0417
    163  CZ       -12.6900   16.4510   84.9830 C.ar  837  TYR837      0.1957
    164  OH       -13.1520   17.5170   85.7220 O.3   837  TYR837     -0.2866
    165  N        -12.0030   10.3160   81.0530 N.am  838  MET838     -0.1979
    166  CA       -11.5800    9.1980   80.2450 C.3   838  MET838      0.1605
    167  C        -12.4710    9.2630   78.9910 C.2   838  MET838      0.2287
    168  O        -12.0120    9.0230   77.8800 O.2   838  MET838     -0.2864
    169  CB       -11.8280    7.8990   81.0200 C.3   838  MET838      0.0413
    170  CG       -11.4290    6.6200   80.3090 C.3   838  MET838      0.0598
    171  SD        -9.6380    6.3520   80.3050 S.3   838  MET838     -0.1393
    172  CE        -9.5640    4.6660   79.6210 C.3   838  MET838      0.0692
@<TRIPOS>BOND
     1   109   108    2
     2   108   107    1
     3   107   106    1
     4   107   110    1
     5   111   110    1
     6   110   112    1
     7   102   101    2
     8    62    63    1
     9   101   100    1
    10    94    93    2
    11    93    92    1
    12    93    99   am
    13    63    66    1
    14    63    64    1
    15    58    57    2
    16   168   167    2
    17    92    91    1
    18    92    95    1
    19   100    99    1
    20   100   103    1
    21    98    96   am
    22   104   103    1
    23    57    56    1
    24    64    65    2
    25   167   166    1
    26   103   105    1
    27    95    96    1
    28    96    97    2
    29    60    59    1
    30   172   171    1
    31   156   155    2
    32    56    59    1
    33    56    55    1
    34   166   169    1
    35   166   165    1
    36   171   170    1
    37   170   169    1
    38    59    61    1
    39   155   165   am
    40   155   154    1
    41    53    52    1
    42    50    49    2
    43    86    85    2
    44   154   153    1
    45   154   157    1
    46    52    54    1
    47    52    51    1
    48    85    84    1
    49    49    48    1
    50   157   158    1
    51   159   158   ar
    52   159   161   ar
    53    48    51    1
    54    48    47    1
    55    84    83    1
    56    84    87    1
    57   158   160   ar
    58    41    40    2
    59   161   163   ar
    60    67    68    1
    61   145   144    2
    62   151   152   ar
    63   151   149   ar
    64    89    87    1
    65   152   150   ar
    66    37    36   ar
    67    37    35   ar
    68    47    40   am
    69    87    88    1
    70    40    39    1
    71   160   162   ar
    72   149   147   ar
    73    36    34   ar
    74   144   143    1
    75    90    88    1
    76   163   162   ar
    77   163   164    1
    78    68    71    1
    79    68    69    1
    80    35    33   ar
    81   150   148   ar
    82    71    72    1
    83   147   148   ar
    84   147   146    1
    85    39    42    1
    86    39    38    1
    87    78    77    2
    88    69    70    2
    89   143   146    1
    90   143   142    1
    91    34    32   ar
    92    30    29    2
    93    33    32   ar
    94    73    72    1
    95    42    43    1
    96    72    74    1
    97    32    31    1
    98    77    76    1
    99   135   133    1
   100    45    44    2
   101    29    28    1
   102   134   132    1
   103    44    43    1
   104    44    46   am
   105    76    75    1
   106    76    79    1
   107   133   132    1
   108    31    28    1
   109    28    27    1
   110   132   129    1
   111    81    79    1
   112    79    80    1
   113    21    20    2
   114    80    82    1
   115    27    20   am
   116   129   130    1
   117   129   128    1
   118    13    12    2
   119   131   130    2
   120   130   136   am
   121    20    19    1
   122    17    15    1
   123   139   138    2
   124   136   137    1
   125   138   137    1
   126    15    16    1
   127    15    14    1
   128   137   140    1
   129   128   122   am
   130    12    11    1
   131   123   122    2
   132    11    14    1
   133    11    10    1
   134   122   121    1
   135    19    18    1
   136    19    22    1
   137     4     3    2
   138   124   121    1
   139   124   125    1
   140   126   125    1
   141   140   141    1
   142    23    22    1
   143    23    24    1
   144   121   120    1
   145   125   127    1
   146     3    10   am
   147     3     2    1
   148    24    26   ar
   149    24    25   ar
   150   120   115   am
   151     2     5    1
   152     2     1    1
   153     5     6    1
   154   115   116    2
   155   115   114    1
   156   117   114    1
   157   117   118    1
   158   114   113    1
   159     6     7    1
   160   118   119    1
   161     7     8    1
   162   119   113    1
   163     8     9    1
