@<TRIPOS>MOLECULE
tmp/3nanA01.pdb
 101 92 0 0 0
SMALL
GASTEIGER

@<TRIPOS>ATOM
      1  N         16.4830   22.4470   88.7240 N.3    56  GLN56      -0.1245
      2  CA        15.3250   22.7900   87.9190 C.3    56  GLN56       0.1566
      3  C         15.1120   21.6960   86.8880 C.2    56  GLN56       0.2260
      4  O         13.9770   21.3350   86.5840 O.2    56  GLN56      -0.2867
      5  CB        15.5300   24.1340   87.2120 C.3    56  GLN56       0.0367
      6  CG        15.8300   25.2720   88.1670 C.3    56  GLN56       0.0905
      7  CD        14.9380   25.2500   89.4020 C.2    56  GLN56       0.2608
      8  OE1       13.7130   25.2300   89.2970 O.2    56  GLN56      -0.2717
      9  NE2       15.5520   25.2570   90.5770 N.am   56  GLN56      -0.0878
     10  N         10.2430   27.5590   77.5170 N.3    97  ILE97      -0.1245
     11  CA         9.4270   27.0670   78.6040 C.3    97  ILE97       0.1561
     12  C         10.3800   26.5790   79.6710 C.2    97  ILE97       0.2260
     13  O         10.3170   27.0120   80.8200 O.2    97  ILE97      -0.2867
     14  CB         8.5830   25.8960   78.1610 C.3    97  ILE97       0.0252
     15  CG1        7.5340   26.3710   77.1660 C.3    97  ILE97       0.0019
     16  CG2        7.9510   25.2410   79.3600 C.3    97  ILE97       0.0019
     17  CD1        6.5460   27.3120   77.7560 C.3    97  ILE97       0.0001
     18  N         12.5150   29.4230   80.9660 N.3   100  ALA100     -0.1231
     19  CA        11.6570   30.2140   81.8310 C.3   100  ALA100      0.1694
     20  C         11.5000   29.4780   83.1540 C.2   100  ALA100      0.2592
     21  O         11.8920   29.9730   84.2090 O.2   100  ALA100     -0.2718
     22  CB        10.3050   30.3920   81.1850 C.3   100  ALA100      0.0304
     23  N         10.9200   28.2890   83.0860 N.am  101  ASN101     -0.1974
     24  CA        10.7070   27.4730   84.2700 C.3   101  ASN101      0.1688
     25  C         11.9120   27.4350   85.2040 C.2   101  ASN101      0.2292
     26  O         11.7500   27.4310   86.4240 O.2   101  ASN101     -0.2864
     27  CB        10.3350   26.0450   83.8510 C.3   101  ASN101      0.1181
     28  CG        10.7150   25.0030   84.8950 C.2   101  ASN101      0.2629
     29  OD1       11.8800   24.5900   84.9860 O.2   101  ASN101     -0.2716
     30  ND2        9.7360   24.5770   85.6890 N.am  101  ASN101     -0.0877
     31  N         12.6090   30.8420   86.9130 N.3   104  VAL104     -0.1231
     32  CA        11.6600   31.0440   88.0090 C.3   104  VAL104      0.1692
     33  C         12.1960   30.3870   89.2720 C.2   104  VAL104      0.2592
     34  O         12.4780   31.0550   90.2690 O.2   104  VAL104     -0.2718
     35  CB        10.2820   30.4150   87.7100 C.3   104  VAL104      0.0266
     36  CG1        9.3770   30.5490   88.9240 C.3   104  VAL104      0.0020
     37  CG2        9.6590   31.0630   86.4860 C.3   104  VAL104      0.0020
     38  N         12.3360   29.0650   89.2020 N.am  105  GLY105     -0.1957
     39  CA        12.8120   28.2900   90.3300 C.3   105  GLY105      0.1869
     40  C         14.0170   28.8800   91.0290 C.2   105  GLY105      0.2309
     41  O         14.1220   28.8250   92.2550 O.2   105  GLY105     -0.2863
     42  N         13.1370   32.2070   92.6020 N.3   108  GLN108     -0.1245
     43  CA        12.2750   31.7800   93.6820 C.3   108  GLN108      0.1566
     44  C         13.1320   31.4760   94.9110 C.2   108  GLN108      0.2260
     45  O         12.8140   31.9010   96.0130 O.2   108  GLN108     -0.2867
     46  CB        11.5100   30.5380   93.2250 C.3   108  GLN108      0.0367
     47  CG        10.1680   30.2950   93.8880 C.3   108  GLN108      0.0905
     48  CD         9.2700   29.3900   93.0360 C.2   108  GLN108      0.2608
     49  OE1        9.7160   28.3480   92.5320 O.2   108  GLN108     -0.2717
     50  NE2        8.0000   29.7850   92.8730 N.am  108  GLN108     -0.0878
     51  N          1.7870   15.8640   92.3010 N.3   253  LEU253     -0.1245
     52  CA         2.4470   16.2630   91.0680 C.3   253  LEU253      0.1561
     53  C          3.6370   15.3580   90.7450 C.2   253  LEU253      0.2260
     54  O          3.9880   15.1650   89.5770 O.2   253  LEU253     -0.2867
     55  CB         2.8950   17.7270   91.1420 C.3   253  LEU253      0.0270
     56  CG         3.6150   18.2750   89.9070 C.3   253  LEU253      0.0019
     57  CD1        3.3860   19.7460   89.8280 C.3   253  LEU253      0.0001
     58  CD2        5.0900   17.9650   89.9670 C.3   253  LEU253      0.0001
     59  N          1.6310   22.0430   80.3710 N.3   309  GLU309     -0.1245
     60  CA         2.6020   23.1180   80.5380 C.3   309  GLU309      0.1567
     61  C          2.1230   24.4180   81.1880 C.2   309  GLU309      0.2260
     62  O          2.9420   25.2420   81.5940 O.2   309  GLU309     -0.2867
     63  CB         3.2620   23.4550   79.2000 C.3   309  GLU309      0.0388
     64  CG         3.8700   22.2690   78.4610 C.3   309  GLU309      0.1160
     65  CD         2.8570   21.5550   77.5910 C.2   309  GLU309      0.3649
     66  OE1        1.7290   22.0750   77.4410 O.co2 309  GLU309     -0.2457
     67  OE2        3.1890   20.4800   77.0500 O.co2 309  GLU309     -0.2457
     68  N          1.1660   24.7090   86.3230 N.3   312  PRO312     -0.2102
     69  CA         1.9320   25.3100   87.4150 C.3   312  PRO312      0.1504
     70  C          1.8350   26.8260   87.3230 C.2   312  PRO312      0.2575
     71  O          1.9060   27.5360   88.3230 O.2   312  PRO312     -0.2718
     72  CB         3.3440   24.8130   87.1570 C.3   312  PRO312      0.0282
     73  CG         3.1040   23.4900   86.5340 C.3   312  PRO312      0.0208
     74  CD         2.0290   23.8150   85.5350 C.3   312  PRO312      0.0893
     75  N          1.6930   27.3230   86.1040 N.am  313  ALA313     -0.1980
     76  CA         1.5550   28.7540   85.9150 C.3   313  ALA313      0.1597
     77  C          0.2240   29.1820   86.5260 C.2   313  ALA313      0.2287
     78  O          0.1490   30.2070   87.2080 O.2   313  ALA313     -0.2864
     79  CB         1.5820   29.1000   84.4300 C.3   313  ALA313      0.0319
     80  N          0.1790   28.6560   90.5900 N.3   316  THR316     -0.1203
     81  CA         0.9320   29.7530   91.1900 C.3   316  THR316      0.1994
     82  C          0.1560   31.0670   91.1480 C.2   316  THR316      0.2618
     83  O          0.2020   31.8450   92.0920 O.2   316  THR316     -0.2717
     84  CB         2.3020   29.9940   90.4980 C.3   316  THR316      0.1784
     85  OG1        3.1560   28.8610   90.7030 O.3   316  THR316     -0.2211
     86  CG2        2.9800   31.2280   91.0840 C.3   316  THR316      0.0376
     87  N         -0.5680   31.3280   90.0720 N.am  317  THR317     -0.1952
     88  CA        -1.2870   32.5840   90.0300 C.3   317  THR317      0.1897
     89  C         -2.5740   32.5380   90.8430 C.2   317  THR317      0.2313
     90  O         -3.0490   33.5730   91.2950 O.2   317  THR317     -0.2863
     91  CB        -1.6070   33.0060   88.5900 C.3   317  THR317      0.1794
     92  OG1       -2.4880   32.0440   88.0130 O.3   317  THR317     -0.2208
     93  CG2       -0.3370   33.0790   87.7490 C.3   317  THR317      0.0378
     94  N         -1.0870   26.7860   77.1130 N.3   797  LEU797     -0.1245
     95  CA        -0.6450   27.8770   77.9620 C.3   797  LEU797      0.1561
     96  C         -1.6540   29.0040   77.9560 C.2   797  LEU797      0.2260
     97  O         -1.9280   29.5810   79.0030 O.2   797  LEU797     -0.2867
     98  CB         0.7140   28.4190   77.5170 C.3   797  LEU797      0.0270
     99  CG         1.9400   27.5230   77.6780 C.3   797  LEU797      0.0019
    100  CD1        3.1390   28.2640   77.1580 C.3   797  LEU797      0.0001
    101  CD2        2.1470   27.1470   79.1410 C.3   797  LEU797      0.0001
@<TRIPOS>BOND
     1    67    65   ar
     2    94    95    1
     3   100    99    1
     4    15    17    1
     5    15    14    1
     6    66    65   ar
     7    98    99    1
     8    98    95    1
     9    10    11    1
    10    65    64    1
    11    99   101    1
    12    96    95    1
    13    96    97    2
    14    14    11    1
    15    14    16    1
    16    64    63    1
    17    11    12    1
    18    63    60    1
    19    12    13    2
    20    59    60    1
    21    60    61    1
    22    18    19    1
    23    22    19    1
    24    61    62    2
    25    19    20    1
    26    23    20   am
    27    23    24    1
    28    20    21    2
    29    27    24    1
    30    27    28    1
    31    24    25    1
    32    79    76    1
    33    28    29    2
    34    28    30   am
    35    25    26    2
    36    74    68    1
    37    74    73    1
    38    76    75    1
    39    76    77    1
    40    75    70   am
    41    68    69    1
    42    37    35    1
    43    77    78    2
    44    73    72    1
    45     4     3    2
    46     3     2    1
    47    31    32    1
    48    72    69    1
    49     5     2    1
    50     5     6    1
    51    70    69    1
    52    70    71    2
    53    35    32    1
    54    35    36    1
    55    93    91    1
    56     2     1    1
    57    32    33    1
    58    92    91    1
    59     6     7    1
    60    91    88    1
    61    38    33   am
    62    38    39    1
    63    33    34    2
    64     8     7    2
    65     7     9   am
    66    54    53    2
    67    57    56    1
    68    56    58    1
    69    56    55    1
    70    88    87    1
    71    88    89    1
    72    87    82   am
    73    39    40    1
    74    84    85    1
    75    84    86    1
    76    84    81    1
    77    80    81    1
    78    53    52    1
    79    89    90    2
    80    40    41    2
    81    52    55    1
    82    52    51    1
    83    82    81    1
    84    82    83    2
    85    49    48    2
    86    42    43    1
    87    50    48   am
    88    48    47    1
    89    46    43    1
    90    46    47    1
    91    43    44    1
    92    44    45    2
