@<TRIPOS>MOLECULE
tmp/3nayB00.pdb
 203 191 0 0 0
SMALL
GASTEIGER

@<TRIPOS>ATOM
      1  N          4.0730  -62.5000    0.9290 N.3    11  LYS11      -0.1231
      2  CA         3.8770  -61.0580    0.7520 C.3    11  LYS11       0.1693
      3  C          3.0900  -60.3870    1.8720 C.2    11  LYS11       0.2592
      4  O          2.3060  -61.0480    2.5570 O.2    11  LYS11      -0.2718
      5  CB         3.2520  -60.7350   -0.6320 C.3    11  LYS11       0.0285
      6  CG         1.8160  -61.2400   -0.8570 C.3    11  LYS11       0.0035
      7  CD         1.2150  -60.6940   -2.1540 C.3    11  LYS11       0.0206
      8  CE        -0.0430  -61.4240   -2.5540 C.3    11  LYS11       0.1093
      9  NZ        -0.5910  -60.9440   -3.8520 N.3    11  LYS11      -0.1314
     10  N          3.3130  -59.0690    2.0490 N.am   12  ILE12      -0.1966
     11  CA         2.5740  -58.2350    2.9910 C.3    12  ILE12       0.1727
     12  C          1.3710  -57.7410    2.1810 C.2    12  ILE12       0.2616
     13  O          1.5540  -57.1910    1.0910 O.2    12  ILE12      -0.2715
     14  CB         3.4380  -57.0870    3.6020 C.3    12  ILE12       0.0290
     15  CG1        4.4840  -57.6650    4.5650 C.3    12  ILE12       0.0022
     16  CG2        2.5610  -56.0580    4.3470 C.3    12  ILE12       0.0023
     17  CD1        5.7750  -56.9910    4.5610 C.3    12  ILE12       0.0001
     18  N          0.1510  -58.0170    2.6790 N.am   13  LEU13      -0.1963
     19  CA        -1.1160  -57.6590    2.0370 C.3    13  LEU13       0.1728
     20  C         -1.5850  -56.2610    2.4550 C.2    13  LEU13       0.2617
     21  O         -2.0420  -55.4840    1.6110 O.2    13  LEU13      -0.2715
     22  CB        -2.2140  -58.7100    2.3420 C.3    13  LEU13       0.0311
     23  CG        -1.9140  -60.1950    2.0550 C.3    13  LEU13       0.0022
     24  CD1       -3.0080  -61.0850    2.6140 C.3    13  LEU13       0.0001
     25  CD2       -1.7590  -60.4600    0.5700 C.3    13  LEU13       0.0001
     26  N         -1.4700  -55.9630    3.7480 N.am   14  GLY14      -0.1940
     27  CA        -1.8660  -54.6830    4.3150 C.3    14  GLY14       0.2014
     28  C         -1.2130  -54.3740    5.6470 C.2    14  GLY14       0.2639
     29  O         -0.6910  -55.2660    6.3260 O.2    14  GLY14      -0.2714
     30  N         -1.2510  -53.0910    6.0280 N.am   15  GLU15      -0.1963
     31  CA        -0.7050  -52.6200    7.2890 C.3    15  GLU15       0.1733
     32  C         -1.6920  -51.7600    8.0580 C.2    15  GLU15       0.2616
     33  O         -2.2640  -50.8130    7.5090 O.2    15  GLU15      -0.2715
     34  CB         0.6370  -51.9110    7.0900 C.3    15  GLU15       0.0429
     35  CG         1.8070  -52.8020    7.4590 C.3    15  GLU15       0.1163
     36  CD         3.1630  -52.2820    7.0350 C.2    15  GLU15       0.3649
     37  OE1        3.3570  -52.0560    5.8180 O.co2  15  GLU15      -0.2457
     38  OE2        4.0490  -52.1550    7.9110 O.co2  15  GLU15      -0.2457
     39  N         -1.8930  -52.1340    9.3180 N.am   16  GLY16      -0.1955
     40  CA        -2.7770  -51.4460   10.2470 C.3    16  GLY16       0.1869
     41  C         -2.0370  -50.4360   11.1020 C.2    16  GLY16       0.2309
     42  O         -0.8510  -50.1620   10.8690 O.2    16  GLY16      -0.2863
     43  N         -0.8330  -53.3030   13.4260 N.3    19  SER19      -0.1217
     44  CA        -0.8560  -54.6360   12.8270 C.3    19  SER19       0.1889
     45  C         -0.2580  -54.7260   11.4110 C.2    19  SER19       0.2288
     46  O         -0.0510  -53.7070   10.7450 O.2    19  SER19      -0.2866
     47  CB        -2.2830  -55.1840   12.8270 C.3    19  SER19       0.2089
     48  OG        -3.1660  -54.3790   12.0600 O.3    19  SER19      -0.2183
     49  N         -0.8560  -57.6000    8.0760 N.3    21  VAL21      -0.1245
     50  CA        -1.5360  -58.7530    7.5010 C.3    21  VAL21       0.1561
     51  C         -0.6100  -59.3220    6.4230 C.2    21  VAL21       0.2260
     52  O         -0.3140  -58.6520    5.4360 O.2    21  VAL21      -0.2867
     53  CB        -2.9630  -58.3990    7.0010 C.3    21  VAL21       0.0252
     54  CG1       -3.6240  -59.5850    6.3120 C.3    21  VAL21       0.0019
     55  CG2       -3.8270  -57.9120    8.1560 C.3    21  VAL21       0.0019
     56  N         -4.5110  -65.3120    5.4570 N.3    34  ALA34      -0.1245
     57  CA        -4.0370  -63.9540    5.6500 C.3    34  ALA34       0.1562
     58  C         -3.8230  -63.8510    7.1670 C.2    34  ALA34       0.2260
     59  O         -4.7920  -63.7800    7.9280 O.2    34  ALA34      -0.2867
     60  CB        -5.0860  -62.9640    5.1750 C.3    34  ALA34       0.0290
     61  N         -2.8320  -62.0590   10.5060 N.3    36  LYS36      -0.1245
     62  CA        -2.7090  -60.7320   11.1220 C.3    36  LYS36       0.1561
     63  C         -1.6350  -60.8580   12.2070 C.2    36  LYS36       0.2260
     64  O         -1.7380  -61.7170   13.0920 O.2    36  LYS36      -0.2867
     65  CB        -4.0490  -60.2470   11.6940 C.3    36  LYS36       0.0271
     66  CG        -4.0050  -58.8510   12.3190 C.3    36  LYS36       0.0035
     67  CD        -5.2940  -58.5510   13.0620 C.3    36  LYS36       0.0206
     68  CE        -5.2880  -57.2200   13.7690 C.3    36  LYS36       0.1093
     69  NZ        -6.6370  -56.8740   14.3010 N.3    36  LYS36      -0.1314
     70  N        -11.7690  -57.0450   18.3140 N.3    55  GLU55      -0.1245
     71  CA       -11.5920  -57.6980   17.0200 C.3    55  GLU55       0.1567
     72  C        -11.7030  -59.2320   17.1660 C.2    55  GLU55       0.2260
     73  O        -12.4430  -59.8510   16.4000 O.2    55  GLU55      -0.2867
     74  CB       -10.2630  -57.2530   16.3640 C.3    55  GLU55       0.0388
     75  CG       -10.0100  -57.7990   14.9610 C.3    55  GLU55       0.1160
     76  CD        -9.9430  -56.8120   13.8060 C.2    55  GLU55       0.3649
     77  OE1       -9.2180  -55.7950   13.9160 O.co2  55  GLU55      -0.2457
     78  OE2      -10.5570  -57.1020   12.7540 O.co2  55  GLU55      -0.2457
     79  N        -15.2050  -61.1200   15.4380 N.3    59  MET59      -0.1245
     80  CA       -15.0150  -62.0940   14.3560 C.3    59  MET59       0.1570
     81  C        -15.5700  -63.4660   14.7470 C.2    59  MET59       0.2261
     82  O        -16.0270  -64.2120   13.8760 O.2    59  MET59      -0.2867
     83  CB       -13.5400  -62.2010   13.9650 C.3    59  MET59       0.0387
     84  CG       -13.2520  -61.6380   12.6020 C.3    59  MET59       0.0595
     85  SD       -11.7270  -60.6710   12.5960 S.3    59  MET59      -0.1393
     86  CE       -11.9120  -59.7980   11.0460 C.3    59  MET59       0.0692
     87  N        -14.8370  -61.3970    6.5820 N.3    68  VAL68      -0.1245
     88  CA       -13.5570  -62.0730    6.7520 C.3    68  VAL68       0.1561
     89  C        -13.7440  -62.8740    8.0480 C.2    68  VAL68       0.2260
     90  O        -14.3080  -62.3490    9.0150 O.2    68  VAL68      -0.2867
     91  CB       -12.3750  -61.0560    6.8090 C.3    68  VAL68       0.0252
     92  CG1      -11.1730  -61.6020    7.5770 C.3    68  VAL68       0.0019
     93  CG2      -11.9570  -60.6220    5.4090 C.3    68  VAL68       0.0019
     94  N         -6.8140  -65.5140    9.3230 N.3    84  LEU84      -0.1231
     95  CA        -8.0150  -64.9740    8.6890 C.3    84  LEU84       0.1693
     96  C         -8.2130  -65.4770    7.2640 C.2    84  LEU84       0.2593
     97  O         -7.3280  -66.1230    6.6970 O.2    84  LEU84      -0.2718
     98  CB        -7.9720  -63.4270    8.6860 C.3    84  LEU84       0.0284
     99  CG        -7.6790  -62.7220   10.0100 C.3    84  LEU84       0.0019
    100  CD1       -7.1850  -61.3300    9.7610 C.3    84  LEU84       0.0001
    101  CD2       -8.8990  -62.7080   10.9130 C.3    84  LEU84       0.0001
    102  N         -9.3800  -65.1530    6.6790 N.am   85  SER85      -0.1938
    103  CA        -9.7320  -65.4810    5.3040 C.3    85  SER85       0.2055
    104  C         -8.7920  -64.7170    4.3860 C.2    85  SER85       0.2643
    105  O         -8.3960  -63.5960    4.7190 O.2    85  SER85      -0.2714
    106  CB       -11.1620  -65.0430    5.0010 C.3    85  SER85       0.2130
    107  OG       -12.1100  -65.6660    5.8490 O.3    85  SER85      -0.2179
    108  N         -8.4230  -65.3140    3.2460 N.am   86  TYR86      -0.1959
    109  CA        -7.5930  -64.6210    2.2670 C.3    86  TYR86       0.1771
    110  C         -8.4910  -64.1360    1.1370 C.2    86  TYR86       0.2619
    111  O         -9.2120  -64.9350    0.5320 O.2    86  TYR86      -0.2715
    112  CB        -6.4280  -65.5050    1.7800 C.3    86  TYR86       0.0574
    113  CG        -5.5970  -64.9210    0.6520 C.ar   86  TYR86      -0.0198
    114  CD1       -5.0130  -63.6620    0.7660 C.ar   86  TYR86      -0.0009
    115  CD2       -5.3300  -65.6600   -0.4960 C.ar   86  TYR86      -0.0009
    116  CE1       -4.2560  -63.1200   -0.2720 C.ar   86  TYR86       0.0417
    117  CE2       -4.5370  -65.1460   -1.5210 C.ar   86  TYR86       0.0417
    118  CZ        -4.0090  -63.8710   -1.4110 C.ar   86  TYR86       0.1957
    119  OH        -3.2270  -63.3620   -2.4250 O.3    86  TYR86      -0.2866
    120  N         -8.5240  -62.8100    0.9340 N.am   87  ALA87      -0.1963
    121  CA        -9.2980  -62.1470   -0.1160 C.3    87  ALA87       0.1728
    122  C         -8.2830  -61.7170   -1.1700 C.2    87  ALA87       0.2616
    123  O         -7.7620  -60.6000   -1.1350 O.2    87  ALA87      -0.2715
    124  CB       -10.0430  -60.9530    0.4520 C.3    87  ALA87       0.0334
    125  N         -7.9580  -62.6560   -2.0770 N.am   88  LYS88      -0.1963
    126  CA        -6.9340  -62.5100   -3.1150 C.3    88  LYS88       0.1728
    127  C         -6.9730  -61.2830   -4.0100 C.2    88  LYS88       0.2616
    128  O         -5.9200  -60.8490   -4.4680 O.2    88  LYS88      -0.2715
    129  CB        -6.7060  -63.8230   -3.8900 C.3    88  LYS88       0.0311
    130  CG        -7.4180  -63.9670   -5.2300 C.3    88  LYS88       0.0038
    131  CD        -6.8510  -65.1540   -6.0150 C.3    88  LYS88       0.0206
    132  CE        -5.7080  -64.8250   -6.9460 C.3    88  LYS88       0.1093
    133  NZ        -5.2010  -66.0410   -7.6350 N.3    88  LYS88      -0.1314
    134  N         -8.1570  -60.7100   -4.2330 N.am   89  ASN89      -0.1958
    135  CA        -8.3110  -59.5520   -5.1050 C.3    89  ASN89       0.1819
    136  C         -8.1180  -58.1730   -4.4800 C.2    89  ASN89       0.2622
    137  O         -8.3110  -57.1720   -5.1650 O.2    89  ASN89      -0.2715
    138  CB        -9.5950  -59.6580   -5.9310 C.3    89  ASN89       0.1195
    139  CG        -9.4850  -60.6600   -7.0570 C.2    89  ASN89       0.2630
    140  OD1       -8.4130  -60.8690   -7.6460 O.2    89  ASN89      -0.2716
    141  ND2      -10.5930  -61.3000   -7.3820 N.am   89  ASN89      -0.0877
    142  N         -7.7060  -58.1270   -3.2150 N.am   90  GLY90      -0.1940
    143  CA        -7.4610  -56.8740   -2.5100 C.3    90  GLY90       0.2014
    144  C         -8.6910  -56.0450   -2.1850 C.2    90  GLY90       0.2641
    145  O         -9.8020  -56.5680   -2.1070 O.2    90  GLY90      -0.2714
    146  N         -8.4830  -54.7300   -2.0070 N.am   91  GLU91      -0.1931
    147  CA        -9.4950  -53.7450   -1.6000 C.3    91  GLU91       0.1818
    148  C        -10.3870  -53.2510   -2.7270 C.2    91  GLU91       0.2332
    149  O         -9.9150  -53.0720   -3.8500 O.2    91  GLU91      -0.2860
    150  CB        -8.8390  -52.5240   -0.9160 C.2    91  GLU91       0.0097
    151  CG        -7.5690  -52.8150   -0.1350 C.2    91  GLU91       0.0837
    152  CD        -6.9780  -51.6310    0.6120 C.2    91  GLU91       0.3877
    153  OE1       -6.9400  -50.5160    0.0380 O.co2  91  GLU91      -0.2406
    154  OE2       -6.5230  -51.8290    1.7640 O.co2  91  GLU91      -0.2406
    155  N         -8.9970  -50.1960   -4.5880 N.3    94  LYS94      -0.1245
    156  CA        -8.0640  -50.4440   -5.6870 C.3    94  LYS94       0.1561
    157  C         -8.8030  -50.3500   -7.0290 C.2    94  LYS94       0.2260
    158  O         -8.2620  -49.7980   -7.9860 O.2    94  LYS94      -0.2867
    159  CB        -7.4030  -51.8240   -5.5000 C.3    94  LYS94       0.0271
    160  CG        -6.6400  -52.3710   -6.7130 C.3    94  LYS94       0.0035
    161  CD        -5.7010  -53.5020   -6.3380 C.3    94  LYS94       0.0206
    162  CE        -6.3420  -54.8640   -6.3280 C.3    94  LYS94       0.1093
    163  NZ        -5.5560  -55.8220   -5.4980 N.3    94  LYS94      -0.1314
    164  N        -11.6870  -49.2200    1.5440 N.3   134  GLU134     -0.1231
    165  CA       -10.3940  -49.7800    1.9250 C.3   134  GLU134      0.1699
    166  C        -10.5940  -51.0190    2.8310 C.2   134  GLU134      0.2592
    167  O         -9.7390  -51.9100    2.8630 O.2   134  GLU134     -0.2718
    168  CB        -9.6140  -48.6850    2.6560 C.3   134  GLU134      0.0402
    169  CG        -8.1220  -48.9080    2.7650 C.3   134  GLU134      0.1161
    170  CD        -7.4270  -47.8840    3.6400 C.2   134  GLU134      0.3649
    171  OE1       -7.3490  -46.7010    3.2300 O.co2 134  GLU134     -0.2457
    172  OE2       -6.9540  -48.2670    4.7360 O.co2 134  GLU134     -0.2457
    173  N        -11.7450  -51.0650    3.5410 N.am  135  ASN135     -0.1974
    174  CA       -12.1630  -52.1250    4.4660 C.3   135  ASN135      0.1688
    175  C        -13.0070  -53.2170    3.7940 C.2   135  ASN135      0.2292
    176  O        -13.2270  -54.2700    4.4040 O.2   135  ASN135     -0.2864
    177  CB       -12.9530  -51.5190    5.6400 C.3   135  ASN135      0.1181
    178  CG       -12.1130  -50.9220    6.7270 C.2   135  ASN135      0.2629
    179  OD1      -12.6120  -50.1720    7.5590 O.2   135  ASN135     -0.2716
    180  ND2      -10.8230  -51.2480    6.7680 N.am  135  ASN135     -0.0877
    181  N        -13.0150  -55.8230    1.1080 N.3   137  LEU137     -0.1245
    182  CA       -12.0860  -56.5980    0.2800 C.3   137  LEU137      0.1561
    183  C        -12.8350  -57.4980   -0.7130 C.2   137  LEU137      0.2260
    184  O        -14.0500  -57.6690   -0.5950 O.2   137  LEU137     -0.2867
    185  CB       -11.1240  -57.4460    1.1270 C.3   137  LEU137      0.0270
    186  CG       -10.5990  -56.8730    2.4230 C.3   137  LEU137      0.0019
    187  CD1      -10.0680  -57.9740    3.2750 C.3   137  LEU137      0.0001
    188  CD2       -9.5330  -55.8140    2.1850 C.3   137  LEU137      0.0001
    189  N        -13.8980  -56.4470    6.4120 N.3   147  THR147     -0.1203
    190  CA       -12.9290  -56.6430    7.4980 C.3   147  THR147      0.1994
    191  C        -12.7450  -55.3920    8.3950 C.2   147  THR147      0.2617
    192  O        -13.3880  -54.3690    8.1510 O.2   147  THR147     -0.2717
    193  CB       -11.6120  -57.1740    6.9140 C.3   147  THR147      0.1784
    194  OG1      -10.8950  -57.7800    7.9710 O.3   147  THR147     -0.2211
    195  CG2      -10.7660  -56.0890    6.2390 C.3   147  THR147      0.0376
    196  N        -11.8340  -55.4840    9.4070 N.am  148  ASP148     -0.1973
    197  CA       -11.4420  -54.4300   10.3670 C.3   148  ASP148      0.1709
    198  C        -12.5050  -54.1020   11.4150 C.2   148  ASP148      0.2293
    199  O        -13.1950  -53.0760   11.3380 O.2   148  ASP148     -0.2864
    200  CB       -10.8530  -53.1800    9.6650 C.3   148  ASP148      0.1436
    201  CG       -10.0020  -52.2530   10.5190 C.2   148  ASP148      0.3671
    202  OD1       -9.7070  -52.6120   11.6920 O.co2 148  ASP148     -0.2456
    203  OD2       -9.6190  -51.1740   10.0150 O.co2 148  ASP148     -0.2456
@<TRIPOS>BOND
     1   158   157    2
     2   140   139    2
     3   133   132    1
     4   141   139   am
     5   139   138    1
     6   157   156    1
     7   132   131    1
     8   160   161    1
     9   160   159    1
    10   161   162    1
    11   162   163    1
    12   131   130    1
    13   138   135    1
    14   156   159    1
    15   156   155    1
    16   130   129    1
    17   137   136    2
    18   135   136    1
    19   135   134    1
    20   136   142   am
    21   128   127    2
    22   134   127   am
    23   127   126    1
    24   129   126    1
    25     9     8    1
    26   149   148    2
    27   142   143    1
    28   126   125    1
    29   148   147    1
    30     8     7    1
    31   143   144    1
    32   119   118    1
    33   144   145    2
    34   144   146   am
    35     7     6    1
    36   125   122   am
    37   146   147    1
    38   147   150    1
    39   117   118   ar
    40   117   115   ar
    41   118   116   ar
    42   122   123    2
    43   122   121    1
    44   150   151    2
    45     6     5    1
    46   183   184    2
    47   183   182    1
    48     5     2    1
    49   115   113   ar
    50   116   114   ar
    51   151   152    1
    52   121   124    1
    53   121   120    1
    54   153   152   ar
    55   182   181    1
    56   182   185    1
    57   111   110    2
    58    25    23    1
    59   152   154   ar
    60   113   114   ar
    61   113   112    1
    62     2     1    1
    63     2     3    1
    64   120   110   am
    65    13    12    2
    66   185   186    1
    67   110   109    1
    68   164   165    1
    69    21    20    2
    70   112   109    1
    71     3    10   am
    72     3     4    2
    73   165   168    1
    74   165   166    1
    75    19    22    1
    76    19    20    1
    77    19    18    1
    78    10    11    1
    79    23    22    1
    80    23    24    1
    81    12    18   am
    82    12    11    1
    83   188   186    1
    84   109   108    1
    85   186   187    1
    86    20    26   am
    87   168   169    1
    88   169   170    1
    89   166   167    2
    90   166   173   am
    91    11    14    1
    92   171   170   ar
    93   108   104   am
    94   173   174    1
    95    14    16    1
    96    14    15    1
    97   170   172   ar
    98    26    27    1
    99   175   176    2
   100   175   174    1
   101    27    28    1
   102   104   105    2
   103   104   103    1
   104   174   177    1
   105    17    15    1
   106   106   103    1
   107   106   107    1
   108    60    57    1
   109   103   102    1
   110    93    91    1
   111    52    51    2
   112    56    57    1
   113   177   178    1
   114    28    30   am
   115    28    29    2
   116    57    58    1
   117    37    36   ar
   118    30    31    1
   119   195   193    1
   120    54    53    1
   121   189   190    1
   122    51    50    1
   123    87    88    1
   124   102    96   am
   125    97    96    2
   126   178   180   am
   127   178   179    2
   128    88    91    1
   129    88    89    1
   130    91    92    1
   131   193   190    1
   132   193   194    1
   133    53    50    1
   134    53    55    1
   135    36    35    1
   136    36    38   ar
   137    34    31    1
   138    34    35    1
   139    58    59    2
   140    96    95    1
   141    31    32    1
   142   190   191    1
   143    50    49    1
   144    33    32    2
   145    89    90    2
   146    32    39   am
   147   192   191    2
   148   191   196   am
   149    98    95    1
   150    98    99    1
   151    95    94    1
   152    39    40    1
   153   196   197    1
   154   200   197    1
   155   200   201    1
   156   100    99    1
   157    99   101    1
   158   203   201   ar
   159    40    41    1
   160   197   198    1
   161    61    62    1
   162   201   202   ar
   163    46    45    2
   164    42    41    2
   165    86    85    1
   166    62    65    1
   167    62    63    1
   168   199   198    2
   169    45    44    1
   170    65    66    1
   171    48    47    1
   172    63    64    2
   173    66    67    1
   174    85    84    1
   175    84    83    1
   176    78    76   ar
   177    47    44    1
   178    44    43    1
   179    67    68    1
   180    68    69    1
   181    76    77   ar
   182    76    75    1
   183    82    81    2
   184    83    80    1
   185    80    81    1
   186    80    79    1
   187    75    74    1
   188    74    71    1
   189    73    72    2
   190    71    72    1
   191    71    70    1
