@<TRIPOS>MOLECULE
tmp/3nazD00.pdb
 130 124 0 0 0
SMALL
GASTEIGER

@<TRIPOS>ATOM
      1  N         73.2920   30.8940    2.9700 N.3    19  ARG19      -0.1245
      2  CA        73.7020   30.1010    4.1110 C.3    19  ARG19       0.1563
      3  C         73.8410   28.6440    3.7150 C.2    19  ARG19       0.2260
      4  O         72.8620   27.9450    3.5120 O.2    19  ARG19      -0.2867
      5  CB        72.6970   30.2390    5.2450 C.3    19  ARG19       0.0307
      6  CG        73.2480   29.8080    6.5740 C.3    19  ARG19       0.0489
      7  CD        72.1690   29.8010    7.6090 C.3    19  ARG19       0.2205
      8  NE        71.4010   31.0420    7.5870 N.pl3  19  ARG19      -0.0865
      9  CZ        71.7180   32.1240    8.2920 C.cat  19  ARG19       0.5346
     10  NH1       72.8000   32.1230    9.0670 N.pl3  19  ARG19       0.1354
     11  NH2       70.9580   33.2100    8.2170 N.pl3  19  ARG19       0.1354
     12  N         79.3400   28.0010    7.5620 N.3    22  GLY22      -0.1225
     13  CA        79.4490   28.9570    8.6470 C.3    22  GLY22       0.1811
     14  C         80.1710   30.2110    8.2030 C.2    22  GLY22       0.2280
     15  O         80.1810   31.2230    8.9000 O.2    22  GLY22      -0.2866
     16  N         78.1540   33.1530    8.0380 N.3    25  SER25      -0.1217
     17  CA        78.0660   33.9410    9.2570 C.3    25  SER25       0.1889
     18  C         79.2540   34.8630    9.4220 C.2    25  SER25       0.2288
     19  O         79.1070   35.9940    9.8730 O.2    25  SER25      -0.2866
     20  CB        77.9250   33.0430   10.4800 C.3    25  SER25       0.2089
     21  OG        76.6630   32.4050   10.4820 O.3    25  SER25      -0.2183
     22  N         74.9550   43.1790   18.8210 N.3   272  LYS272     -0.1231
     23  CA        73.7660   42.4180   18.4440 C.3   272  LYS272      0.1693
     24  C         73.3090   41.4530   19.5460 C.2   272  LYS272      0.2592
     25  O         72.2050   40.9020   19.4890 O.2   272  LYS272     -0.2718
     26  CB        74.0200   41.6860   17.1140 C.3   272  LYS272      0.0285
     27  CG        73.3240   40.3350   16.9490 C.3   272  LYS272      0.0035
     28  CD        73.7980   39.6200   15.6740 C.3   272  LYS272      0.0206
     29  CE        73.0090   38.3390   15.4080 C.3   272  LYS272      0.1093
     30  NZ        72.7930   38.1300   13.9480 N.3   272  LYS272     -0.1314
     31  N         74.1620   41.2560   20.5490 N.am  273  PHE273     -0.1976
     32  CA        73.8070   40.4390   21.7020 C.3   273  PHE273      0.1639
     33  C         73.4090   41.3400   22.8710 C.2   273  PHE273      0.2290
     34  O         72.2310   41.4110   23.2420 O.2   273  PHE273     -0.2864
     35  CB        74.9620   39.5160   22.0830 C.3   273  PHE273      0.0560
     36  CG        75.3480   38.5610   20.9920 C.ar  273  PHE273     -0.0200
     37  CD1       76.3020   38.9110   20.0490 C.ar  273  PHE273     -0.0042
     38  CD2       74.7440   37.3180   20.8940 C.ar  273  PHE273     -0.0042
     39  CE1       76.6500   38.0390   19.0320 C.ar  273  PHE273     -0.0003
     40  CE2       75.0920   36.4380   19.8760 C.ar  273  PHE273     -0.0003
     41  CZ        76.0460   36.8020   18.9450 C.ar  273  PHE273     -0.0000
     42  N         75.3260   22.6850   20.2330 N.3   310  GLY310     -0.1210
     43  CA        75.9870   22.7870   18.9450 C.3   310  GLY310      0.1956
     44  C         75.5590   21.6510   18.0410 C.2   310  GLY310      0.2612
     45  O         74.7510   20.8110   18.4390 O.2   310  GLY310     -0.2717
     46  N         76.1000   21.6240   16.8270 N.am  311  ARG311     -0.1965
     47  CA        75.8470   20.5340   15.8960 C.3   311  ARG311      0.1729
     48  C         76.0270   19.1860   16.6000 C.2   311  ARG311      0.2616
     49  O         76.8090   19.0690   17.5330 O.2   311  ARG311     -0.2715
     50  CB        76.8060   20.6380   14.7170 C.3   311  ARG311      0.0348
     51  CG        76.1640   20.4060   13.3680 C.3   311  ARG311      0.0492
     52  CD        77.2100   20.3740   12.2600 C.3   311  ARG311      0.2205
     53  NE        78.4530   21.0510   12.6330 N.pl3 311  ARG311     -0.0865
     54  CZ        78.6390   22.3690   12.6140 C.cat 311  ARG311      0.5346
     55  NH1       77.6550   23.1770   12.2410 N.pl3 311  ARG311      0.1354
     56  NH2       79.8130   22.8780   12.9750 N.pl3 311  ARG311      0.1354
     57  N         75.2950   18.1700   16.1590 N.am  312  TYR312     -0.1974
     58  CA        75.3850   16.8500   16.7720 C.3   312  TYR312      0.1639
     59  C         76.5460   16.0330   16.2140 C.2   312  TYR312      0.2290
     60  O         76.3400   15.0180   15.5540 O.2   312  TYR312     -0.2864
     61  CB        74.0830   16.0880   16.5620 C.3   312  TYR312      0.0560
     62  CG        73.9600   14.7970   17.3490 C.ar  312  TYR312     -0.0198
     63  CD1       75.0590   14.1960   17.9320 C.ar  312  TYR312     -0.0009
     64  CD2       72.7310   14.1650   17.4830 C.ar  312  TYR312     -0.0009
     65  CE1       74.9290   13.0150   18.6360 C.ar  312  TYR312      0.0417
     66  CE2       72.6020   12.9880   18.1800 C.ar  312  TYR312      0.0417
     67  CZ        73.7000   12.4210   18.7500 C.ar  312  TYR312      0.1957
     68  OH        73.5570   11.2500   19.4360 O.3   312  TYR312     -0.2866
     69  N         70.5040   18.9930   18.3310 N.3   349  PRO349     -0.2116
     70  CA        69.4320   18.6040   17.4150 C.3   349  PRO349      0.1372
     71  C         69.6720   17.2510   16.7780 C.2   349  PRO349      0.2244
     72  O         70.6900   17.0660   16.1110 O.2   349  PRO349     -0.2868
     73  CB        69.4900   19.6950   16.3560 C.3   349  PRO349      0.0268
     74  CG        69.9200   20.8860   17.1050 C.3   349  PRO349      0.0207
     75  CD        70.9410   20.3750   18.0830 C.3   349  PRO349      0.0892
     76  N         66.4540   22.1820   18.4470 N.3   459  PHE459     -0.1227
     77  CA        66.7420   23.5880   18.6560 C.3   459  PHE459      0.1736
     78  C         65.7860   24.1680   19.6790 C.2   459  PHE459      0.2595
     79  O         64.6250   23.7580   19.7680 O.2   459  PHE459     -0.2718
     80  CB        66.5900   24.3560   17.3520 C.3   459  PHE459      0.0547
     81  CG        67.5440   23.9270   16.2850 C.ar  459  PHE459     -0.0202
     82  CD1       68.7850   24.5390   16.1660 C.ar  459  PHE459     -0.0042
     83  CD2       67.1990   22.9180   15.3850 C.ar  459  PHE459     -0.0042
     84  CE1       69.6720   24.1510   15.1700 C.ar  459  PHE459     -0.0003
     85  CE2       68.0800   22.5180   14.3860 C.ar  459  PHE459     -0.0003
     86  CZ        69.3180   23.1360   14.2780 C.ar  459  PHE459     -0.0000
     87  N         66.2720   25.1380   20.4440 N.am  460  LEU460     -0.1980
     88  CA        65.4350   25.7980   21.4350 C.3   460  LEU460      0.1596
     89  C         64.6510   26.9700   20.8410 C.2   460  LEU460      0.2287
     90  O         65.2060   27.8190   20.1320 O.2   460  LEU460     -0.2864
     91  CB        66.2690   26.2650   22.6320 C.3   460  LEU460      0.0297
     92  CG        66.9360   25.1660   23.4570 C.3   460  LEU460      0.0022
     93  CD1       68.0450   25.7370   24.3070 C.3   460  LEU460      0.0001
     94  CD2       65.9220   24.4260   24.3090 C.3   460  LEU460      0.0001
     95  N         67.5010   29.9690   22.2350 N.3   471  TYR471     -0.1241
     96  CA        68.8650   29.6150   22.5870 C.3   471  TYR471      0.1605
     97  C         69.4950   30.7030   23.4470 C.2   471  TYR471      0.2264
     98  O         69.9640   30.4310   24.5420 O.2   471  TYR471     -0.2867
     99  CB        69.7010   29.3880   21.3310 C.3   471  TYR471      0.0534
    100  CG        71.0940   28.9180   21.6200 C.ar  471  TYR471     -0.0201
    101  CD1       71.3360   27.6040   21.9880 C.ar  471  TYR471     -0.0009
    102  CD2       72.1680   29.7870   21.5300 C.ar  471  TYR471     -0.0009
    103  CE1       72.6110   27.1670   22.2600 C.ar  471  TYR471      0.0417
    104  CE2       73.4480   29.3570   21.7960 C.ar  471  TYR471      0.0417
    105  CZ        73.6640   28.0430   22.1640 C.ar  471  TYR471      0.1957
    106  OH        74.9390   27.6090   22.4330 O.3   471  TYR471     -0.2866
    107  N         80.0410   28.4630   18.8240 N.3   493  THR493     -0.1218
    108  CA        79.1560   28.2340   19.9670 C.3   493  THR493      0.1862
    109  C         79.7930   28.6540   21.2940 C.2   493  THR493      0.2287
    110  O         79.1870   29.4210   22.0450 O.2   493  THR493     -0.2866
    111  CB        78.6400   26.7930   20.0250 C.3   493  THR493      0.1770
    112  OG1       79.7320   25.9030   19.7920 O.3   493  THR493     -0.2211
    113  CG2       77.6210   26.5640   18.9380 C.3   493  THR493      0.0375
    114  N         80.3240   32.5750   21.2190 N.3   496  GLU496     -0.1245
    115  CA        79.1840   33.4440   21.4380 C.3   496  GLU496      0.1567
    116  C         78.6840   33.2480   22.8510 C.2   496  GLU496      0.2260
    117  O         78.1340   34.1610   23.4590 O.2   496  GLU496     -0.2867
    118  CB        78.0880   33.2260   20.3850 C.3   496  GLU496      0.0388
    119  CG        77.1760   32.0310   20.6010 C.3   496  GLU496      0.1160
    120  CD        76.0410   31.9730   19.5760 C.2   496  GLU496      0.3649
    121  OE1       74.9100   31.5880   19.9650 O.co2 496  GLU496     -0.2457
    122  OE2       76.2820   32.3220   18.3940 O.co2 496  GLU496     -0.2457
    123  N         78.1470   36.3800   25.7070 N.3   500  MET500     -0.1245
    124  CA        76.9150   36.5680   26.4710 C.3   500  MET500      0.1570
    125  C         77.1440   36.5300   27.9800 C.2   500  MET500      0.2261
    126  O         76.1930   36.5040   28.7600 O.2   500  MET500     -0.2867
    127  CB        75.8800   35.5170   26.0880 C.3   500  MET500      0.0387
    128  CG        75.2860   35.7000   24.7200 C.3   500  MET500      0.0595
    129  SD        73.9680   34.5070   24.4630 S.3   500  MET500     -0.1393
    130  CE        73.7780   34.5810   22.6780 C.3   500  MET500      0.0692
@<TRIPOS>BOND
     1     1     2    1
     2     4     3    2
     3     3     2    1
     4     2     5    1
     5     5     6    1
     6     6     7    1
     7    12    13    1
     8     8     7    1
     9     8     9    2
    10    16    17    1
    11    14    13    1
    12    14    15    2
    13    11     9    1
    14     9    10    1
    15    17    18    1
    16    17    20    1
    17    18    19    2
    18    20    21    1
    19    55    54    1
    20    52    53    1
    21    52    51    1
    22    54    53    2
    23    54    56    1
    24    51    50    1
    25    30    29    1
    26    86    85   ar
    27    86    84   ar
    28    85    83   ar
    29    50    47    1
    30    84    82   ar
    31    83    81   ar
    32    29    28    1
    33    60    59    2
    34    28    27    1
    35    47    48    1
    36    47    46    1
    37    72    71    2
    38    57    48   am
    39    57    58    1
    40    82    81   ar
    41    59    58    1
    42    81    80    1
    43    73    74    1
    44    73    70    1
    45    61    58    1
    46    61    62    1
    47    48    49    2
    48    71    70    1
    49    46    44   am
    50    27    26    1
    51    74    75    1
    52    26    23    1
    53    62    64   ar
    54    62    63   ar
    55    80    77    1
    56    70    69    1
    57    64    66   ar
    58    63    65   ar
    59    44    45    2
    60    44    43    1
    61    75    69    1
    62    66    67   ar
    63   122   120   ar
    64    23    22    1
    65    23    24    1
    66    76    77    1
    67    65    67   ar
    68    77    78    1
    69    67    68    1
    70   107   108    1
    71   113   111    1
    72    43    42    1
    73    41    39   ar
    74    41    40   ar
    75    39    37   ar
    76    25    24    2
    77    24    31   am
    78   120   121   ar
    79   120   119    1
    80    78    79    2
    81    78    87   am
    82   112   111    1
    83    40    38   ar
    84   108   111    1
    85   108   109    1
    86    37    36   ar
    87    90    89    2
    88   118   119    1
    89   118   115    1
    90    87    88    1
    91    31    32    1
    92    89    88    1
    93    38    36   ar
    94    36    35    1
    95   114   115    1
    96   109   110    2
    97    99   100    1
    98    99    96    1
    99    88    91    1
   100   115   116    1
   101   102   100   ar
   102   102   104   ar
   103   100   101   ar
   104    32    35    1
   105    32    33    1
   106   104   105   ar
   107   101   103   ar
   108   105   103   ar
   109   105   106    1
   110    95    96    1
   111    96    97    1
   112    91    92    1
   113   130   129    1
   114   116   117    2
   115    33    34    2
   116    97    98    2
   117    92    93    1
   118    92    94    1
   119   129   128    1
   120   128   127    1
   121   123   124    1
   122   127   124    1
   123   124   125    1
   124   125   126    2
