@<TRIPOS>MOLECULE
tmp/3nb0C01.pdb
 92 87 0 0 0
SMALL
GASTEIGER

@<TRIPOS>ATOM
      1  N         47.4510   22.4340   57.8460 N.3   282  GLN282     -0.1231
      2  CA        47.1560   21.6560   59.0390 C.3   282  GLN282      0.1698
      3  C         46.9530   20.1760   58.6980 C.2   282  GLN282      0.2592
      4  O         47.4180   19.2850   59.4150 O.2   282  GLN282     -0.2718
      5  CB        45.9060   22.2190   59.7030 C.3   282  GLN282      0.0381
      6  CG        45.7810   21.8800   61.1560 C.3   282  GLN282      0.0905
      7  CD        46.6880   22.7130   62.0340 C.2   282  GLN282      0.2608
      8  OE1       47.4050   22.1760   62.8780 O.2   282  GLN282     -0.2717
      9  NE2       46.6620   24.0270   61.8460 N.am  282  GLN282     -0.0878
     10  N         46.2440   19.9180   57.6030 N.am  283  ASN283     -0.1974
     11  CA        46.0640   18.5580   57.1180 C.3   283  ASN283      0.1688
     12  C         47.4010   17.9880   56.6660 C.2   283  ASN283      0.2292
     13  O         47.6330   16.7820   56.7400 O.2   283  ASN283     -0.2864
     14  CB        45.0630   18.5250   55.9620 C.3   283  ASN283      0.1181
     15  CG        43.6530   18.8720   56.3990 C.2   283  ASN283      0.2629
     16  OD1       42.8510   19.3630   55.6050 O.2   283  ASN283     -0.2716
     17  ND2       43.3450   18.6250   57.6680 N.am  283  ASN283     -0.0877
     18  N         50.3510   18.8030   58.0320 N.3   285  HIS285     -0.1226
     19  CA        51.0520   18.4580   59.2580 C.3   285  HIS285      0.1752
     20  C         50.7120   17.0370   59.7230 C.2   285  HIS285      0.2595
     21  O         51.6100   16.2180   59.9350 O.2   285  HIS285     -0.2718
     22  CB        50.7310   19.4530   60.3680 C.3   285  HIS285      0.0759
     23  CG        51.0470   18.9390   61.7390 C.ar  285  HIS285      0.0818
     24  ND1       52.3390   18.7350   62.1760 N.ar  285  HIS285     -0.2268
     25  CD2       50.2400   18.5790   62.7650 C.ar  285  HIS285      0.1154
     26  CE1       52.3130   18.2750   63.4150 C.ar  285  HIS285      0.1986
     27  NE2       51.0530   18.1680   63.7960 N.ar  285  HIS285     -0.2212
     28  N         49.4190   16.7570   59.8760 N.am  286  ALA286     -0.1980
     29  CA        48.9420   15.4550   60.3380 C.3   286  ALA286      0.1597
     30  C         49.3980   14.3270   59.4220 C.2   286  ALA286      0.2287
     31  O         49.8320   13.2760   59.8830 O.2   286  ALA286     -0.2864
     32  CB        47.4130   15.4590   60.4510 C.3   286  ALA286      0.0319
     33  N         53.0840   13.8400   59.7170 N.3   289  LYS289     -0.1245
     34  CA        53.4110   13.3260   61.0380 C.3   289  LYS289      0.1561
     35  C         53.2600   11.8080   61.0640 C.2   289  LYS289      0.2260
     36  O         53.9880   11.1260   61.7790 O.2   289  LYS289     -0.2867
     37  CB        52.5450   13.9710   62.1230 C.3   289  LYS289      0.0271
     38  CG        53.0190   13.6510   63.5350 C.3   289  LYS289      0.0035
     39  CD        52.1400   14.2790   64.6030 C.3   289  LYS289      0.0206
     40  CE        50.7110   13.7840   64.5050 C.3   289  LYS289      0.1093
     41  NZ        49.8970   14.2180   65.6720 N.3   289  LYS289     -0.1314
     42  N         56.5960   19.2720   65.5320 N.3   499  HIS499     -0.1241
     43  CA        55.8270   20.1700   66.3840 C.3   499  HIS499      0.1621
     44  C         56.5810   21.4410   66.7490 C.2   499  HIS499      0.2264
     45  O         55.9690   22.4650   67.0420 O.2   499  HIS499     -0.2867
     46  CB        55.4190   19.4620   67.6730 C.3   499  HIS499      0.0745
     47  CG        54.4970   18.3070   67.4600 C.ar  499  HIS499      0.0817
     48  ND1       54.9470   17.0100   67.3320 N.ar  499  HIS499     -0.2268
     49  CD2       53.1490   18.2520   67.3550 C.ar  499  HIS499      0.1154
     50  CE1       53.9140   16.2080   67.1560 C.ar  499  HIS499      0.1986
     51  NE2       52.8120   16.9340   67.1710 N.ar  499  HIS499     -0.2212
     52  N         46.6030   19.6910   72.6080 N.3   579  ARG579     -0.1245
     53  CA        46.5350   19.6290   71.1550 C.3   579  ARG579      0.1563
     54  C         45.8340   20.8730   70.6170 C.2   579  ARG579      0.2260
     55  O         46.2430   21.4500   69.6110 O.2   579  ARG579     -0.2867
     56  CB        45.7890   18.3710   70.7170 C.3   579  ARG579      0.0307
     57  CG        45.4190   18.3370   69.2460 C.3   579  ARG579      0.0489
     58  CD        45.0650   16.9210   68.8380 C.3   579  ARG579      0.2205
     59  NE        46.2280   16.0460   68.9290 N.pl3 579  ARG579     -0.0865
     60  CZ        46.1840   14.7720   69.3070 C.cat 579  ARG579      0.5346
     61  NH1       45.0280   14.2160   69.6460 N.pl3 579  ARG579      0.1354
     62  NH2       47.3010   14.0570   69.3570 N.pl3 579  ARG579      0.1354
     63  N         48.2120   23.7480   70.7170 N.3   582  ARG582     -0.1231
     64  CA        49.2050   23.5280   69.6700 C.3   582  ARG582      0.1694
     65  C         48.6540   23.8760   68.2930 C.2   582  ARG582      0.2591
     66  O         49.3540   24.4610   67.4700 O.2   582  ARG582     -0.2718
     67  CB        49.7140   22.0830   69.6820 C.3   582  ARG582      0.0321
     68  CG        50.6320   21.7430   70.8430 C.3   582  ARG582      0.0489
     69  CD        51.3930   20.4490   70.5910 C.3   582  ARG582      0.2205
     70  NE        50.5070   19.3560   70.1980 N.pl3 582  ARG582     -0.0865
     71  CZ        49.9160   18.5260   71.0520 C.cat 582  ARG582      0.5346
     72  NH1       50.1120   18.6610   72.3570 N.pl3 582  ARG582      0.1354
     73  NH2       49.1240   17.5610   70.6030 N.pl3 582  ARG582      0.1354
     74  N         47.3990   23.5140   68.0460 N.am  583  ILE583     -0.1980
     75  CA        46.7670   23.7700   66.7550 C.3   583  ILE583      0.1595
     76  C         46.5640   25.2640   66.5200 C.2   583  ILE583      0.2287
     77  O         46.8710   25.7810   65.4460 O.2   583  ILE583     -0.2864
     78  CB        45.4140   23.0310   66.6260 C.3   583  ILE583      0.0276
     79  CG1       45.6400   21.5240   66.5120 C.3   583  ILE583      0.0022
     80  CG2       44.6330   23.5400   65.4240 C.3   583  ILE583      0.0022
     81  CD1       44.3600   20.7060   66.5520 C.3   583  ILE583      0.0001
     82  N         49.9390   26.9950   65.8270 N.3   586  ARG586     -0.1245
     83  CA        50.3750   26.7740   64.4490 C.3   586  ARG586      0.1563
     84  C         49.6260   27.6730   63.4690 C.2   586  ARG586      0.2260
     85  O         50.2040   28.1610   62.5010 O.2   586  ARG586     -0.2867
     86  CB        50.2530   25.2970   64.0420 C.3   586  ARG586      0.0307
     87  CG        51.3400   24.3970   64.6280 C.3   586  ARG586      0.0489
     88  CD        51.5010   23.0990   63.8440 C.3   586  ARG586      0.2205
     89  NE        50.2660   22.3220   63.8130 N.pl3 586  ARG586     -0.0865
     90  CZ        49.9010   21.4590   64.7560 C.cat 586  ARG586      0.5346
     91  NH1       50.6790   21.2520   65.8100 N.pl3 586  ARG586      0.1354
     92  NH2       48.7550   20.7990   64.6480 N.pl3 586  ARG586      0.1354
@<TRIPOS>BOND
     1    16    15    2
     2    14    15    1
     3    14    11    1
     4    15    17   am
     5    12    13    2
     6    12    11    1
     7    11    10    1
     8    10     3   am
     9     1     2    1
    10    18    19    1
    11     3     2    1
    12     3     4    2
    13     2     5    1
    14    19    20    1
    15    19    22    1
    16    30    31    2
    17    30    29    1
    18     5     6    1
    19    33    34    1
    20    20    28   am
    21    20    21    2
    22    28    29    1
    23    29    32    1
    24    22    23    1
    25    34    35    1
    26    34    37    1
    27    35    36    2
    28     6     7    1
    29    23    24   ar
    30    23    25   ar
    31     9     7   am
    32     7     8    2
    33    37    38    1
    34    24    26   ar
    35    85    84    2
    36    25    27   ar
    37    26    27   ar
    38    84    83    1
    39    38    39    1
    40    89    88    1
    41    89    90    2
    42    88    87    1
    43    86    83    1
    44    86    87    1
    45    83    82    1
    46    40    39    1
    47    40    41    1
    48    92    90    1
    49    90    91    1
    50    80    78    1
    51    77    76    2
    52    42    43    1
    53    43    44    1
    54    43    46    1
    55    79    81    1
    56    79    78    1
    57    76    75    1
    58    78    75    1
    59    44    45    2
    60    75    74    1
    61    50    51   ar
    62    50    48   ar
    63    51    49   ar
    64    48    47   ar
    65    49    47   ar
    66    47    46    1
    67    66    65    2
    68    74    65   am
    69    65    64    1
    70    58    59    1
    71    58    57    1
    72    59    60    2
    73    57    56    1
    74    60    62    1
    75    60    61    1
    76    55    54    2
    77    64    67    1
    78    64    63    1
    79    67    68    1
    80    70    69    1
    81    70    71    2
    82    69    68    1
    83    73    71    1
    84    54    53    1
    85    56    53    1
    86    71    72    1
    87    53    52    1
