@<TRIPOS>MOLECULE
tmp/3nb5A00.pdb
 149 146 0 0 0
SMALL
GASTEIGER

@<TRIPOS>ATOM
      1  N          7.2360   10.0300   12.7520 N.3    88  ILE88      -0.1231
      2  CA         8.1060   10.4590   11.6690 C.3    88  ILE88       0.1692
      3  C          8.4000    9.3090   10.7050 C.2    88  ILE88       0.2591
      4  O          8.4940    9.5210    9.4950 O.2    88  ILE88      -0.2718
      5  CB         9.4350   11.0620   12.2170 C.3    88  ILE88       0.0266
      6  CG1       10.3420   11.4640   11.0530 C.3    88  ILE88       0.0019
      7  CG2       10.1360   10.0700   13.1330 C.3    88  ILE88       0.0020
      8  CD1       11.5220   12.3110   11.4700 C.3    88  ILE88       0.0001
      9  N          8.5130    8.0930   11.2360 N.am   89  GLN89      -0.1979
     10  CA         8.7900    6.9150   10.4110 C.3    89  GLN89       0.1601
     11  C          8.6340    5.6170   11.1950 C.2    89  GLN89       0.2287
     12  O          8.5120    5.6310   12.4170 O.2    89  GLN89      -0.2864
     13  CB        10.2290    6.9710    9.8680 C.3    89  GLN89       0.0394
     14  CG        11.3190    7.0860   10.9620 C.3    89  GLN89       0.0908
     15  CD        12.1490    5.8140   11.1490 C.2    89  GLN89       0.2608
     16  OE1       11.6130    4.7090   11.2170 O.2    89  GLN89      -0.2717
     17  NE2       13.4660    5.9760   11.2490 N.am   89  GLN89      -0.0878
     18  N          9.9930    1.2560   10.9700 N.3    91  HIS91      -0.1241
     19  CA        10.8650    0.3020   10.3140 C.3    91  HIS91       0.1621
     20  C         10.8510   -0.9770   11.1290 C.2    91  HIS91       0.2264
     21  O         10.2000   -1.0460   12.1700 O.2    91  HIS91      -0.2867
     22  CB        12.2930    0.8460   10.2440 C.3    91  HIS91       0.0745
     23  CG        12.8770    1.1630   11.5840 C.ar   91  HIS91       0.0817
     24  ND1       12.6450    2.3560   12.2340 N.ar   91  HIS91      -0.2268
     25  CD2       13.6510    0.4260   12.4150 C.ar   91  HIS91       0.1154
     26  CE1       13.2490    2.3410   13.4080 C.ar   91  HIS91       0.1986
     27  NE2       13.8660    1.1810   13.5420 N.ar   91  HIS91      -0.2212
     28  N         13.2310   -4.7500   12.3650 N.3    93  HIS93      -0.1241
     29  CA        14.4910   -5.4290   12.6300 C.3    93  HIS93       0.1621
     30  C         14.0490   -6.8810   12.5320 C.2    93  HIS93       0.2264
     31  O         13.0170   -7.2480   13.0950 O.2    93  HIS93      -0.2867
     32  CB        14.9920   -5.1240   14.0420 C.3    93  HIS93       0.0745
     33  CG        15.3800   -3.6950   14.2420 C.ar   93  HIS93       0.0817
     34  ND1       16.6330   -3.2130   13.9280 N.ar   93  HIS93      -0.2268
     35  CD2       14.6650   -2.6310   14.6760 C.ar   93  HIS93       0.1154
     36  CE1       16.6730   -1.9140   14.1620 C.ar   93  HIS93       0.1986
     37  NE2       15.4910   -1.5360   14.6150 N.ar   93  HIS93      -0.2212
     38  N          9.2340   -0.8710   14.7930 N.3   116  HIS116     -0.1241
     39  CA         9.4860    0.3370   15.5640 C.3   116  HIS116      0.1621
     40  C          8.8170    1.5520   14.9220 C.2   116  HIS116      0.2264
     41  O          9.1820    1.9640   13.8180 O.2   116  HIS116     -0.2867
     42  CB        10.9960    0.5870   15.6900 C.3   116  HIS116      0.0745
     43  CG        11.6930   -0.3680   16.6120 C.ar  116  HIS116      0.0817
     44  ND1       13.0580   -0.5610   16.5920 N.ar  116  HIS116     -0.2268
     45  CD2       11.2160   -1.1710   17.5910 C.ar  116  HIS116      0.1154
     46  CE1       13.3920   -1.4440   17.5170 C.ar  116  HIS116      0.1986
     47  NE2       12.2910   -1.8290   18.1380 N.ar  116  HIS116     -0.2212
     48  N          8.5580    5.2560   15.2330 N.3   118  VAL118     -0.1245
     49  CA         9.3270    6.3470   15.8350 C.3   118  VAL118      0.1561
     50  C          8.5760    7.6800   15.8790 C.2   118  VAL118      0.2260
     51  O          8.0600    8.1370   14.8590 O.2   118  VAL118     -0.2867
     52  CB        10.6560    6.5320   15.0500 C.3   118  VAL118      0.0252
     53  CG1       11.5900    7.4880   15.7810 C.3   118  VAL118      0.0019
     54  CG2       11.3180    5.1790   14.8410 C.3   118  VAL118      0.0019
     55  N         12.0470   19.9850   16.0980 N.3   126  ASP126     -0.1225
     56  CA        12.3990   19.0840   15.0050 C.3   126  ASP126      0.1805
     57  C         13.0850   17.8280   15.5380 C.2   126  ASP126      0.2598
     58  O         13.5580   17.8050   16.6760 O.2   126  ASP126     -0.2718
     59  CB        13.2770   19.7970   13.9530 C.3   126  ASP126      0.1424
     60  CG        14.6270   20.2460   14.4940 C.2   126  ASP126      0.3668
     61  OD1       15.4870   19.3870   14.7810 O.co2 126  ASP126     -0.2456
     62  OD2       14.8340   21.4710   14.6250 O.co2 126  ASP126     -0.2456
     63  N         13.1090   16.7810   14.7180 N.am  127  PHE127     -0.1962
     64  CA        13.7050   15.5040   15.0990 C.3   127  PHE127      0.1771
     65  C         15.1570   15.6320   15.5500 C.2   127  PHE127      0.2620
     66  O         15.5510   15.0430   16.5570 O.2   127  PHE127     -0.2715
     67  CB        13.6120   14.5180   13.9270 C.3   127  PHE127      0.0574
     68  CG        14.0700   13.1270   14.2650 C.ar  127  PHE127     -0.0200
     69  CD1       13.2250   12.2430   14.9340 C.ar  127  PHE127     -0.0042
     70  CD2       15.3520   12.7020   13.9280 C.ar  127  PHE127     -0.0042
     71  CE1       13.6540   10.9540   15.2610 C.ar  127  PHE127     -0.0003
     72  CE2       15.7890   11.4170   14.2500 C.ar  127  PHE127     -0.0003
     73  CZ        14.9380   10.5430   14.9170 C.ar  127  PHE127     -0.0000
     74  N         15.9470   16.3970   14.7980 N.am  128  GLY128     -0.1954
     75  CA        17.3500   16.5810   15.1350 C.3   128  GLY128      0.1869
     76  C         17.5850   17.1290   16.5310 C.2   128  GLY128      0.2309
     77  O         18.5280   16.7260   17.2180 O.2   128  GLY128     -0.2863
     78  N         16.5110   14.3450   19.4510 N.3   131  VAL131     -0.1245
     79  CA        17.4270   13.2520   19.8050 C.3   131  VAL131      0.1561
     80  C         18.5020   13.6560   20.8230 C.2   131  VAL131      0.2260
     81  O         19.2150   12.8000   21.3540 O.2   131  VAL131     -0.2867
     82  CB        18.1230   12.6410   18.5490 C.3   131  VAL131      0.0252
     83  CG1       17.0840   11.9820   17.6400 C.3   131  VAL131      0.0019
     84  CG2       18.8820   13.7110   17.7890 C.3   131  VAL131      0.0019
     85  N          9.4050    5.6120   21.1080 N.3   139  VAL139     -0.1245
     86  CA         9.3310    4.5810   20.0840 C.3   139  VAL139      0.1561
     87  C          8.3850    3.4840   20.5500 C.2   139  VAL139      0.2260
     88  O          8.5290    2.9580   21.6530 O.2   139  VAL139     -0.2867
     89  CB        10.7230    3.9620   19.7740 C.3   139  VAL139      0.0252
     90  CG1       10.5910    2.9240   18.6620 C.3   139  VAL139      0.0019
     91  CG2       11.6960    5.0520   19.3440 C.3   139  VAL139      0.0019
     92  N         18.4950    4.8490   21.2220 N.3   194  LEU194     -0.1231
     93  CA        18.2890    4.3970   19.8500 C.3   194  LEU194      0.1693
     94  C         19.0490    3.0700   19.8470 C.2   194  LEU194      0.2593
     95  O         20.0710    2.9500   20.5280 O.2   194  LEU194     -0.2718
     96  CB        18.9520    5.3570   18.8610 C.3   194  LEU194      0.0284
     97  CG        18.4730    6.8070   18.8160 C.3   194  LEU194      0.0019
     98  CD1       19.3940    7.6120   17.8940 C.3   194  LEU194      0.0001
     99  CD2       17.0290    6.8570   18.3230 C.3   194  LEU194      0.0001
    100  N         18.5760    2.0790   19.0980 N.am  195  THR195     -0.1939
    101  CA        19.2540    0.7830   19.0680 C.3   195  THR195      0.2028
    102  C         20.3410    0.6650   18.0000 C.2   195  THR195      0.2643
    103  O         20.9350   -0.4020   17.8230 O.2   195  THR195     -0.2714
    104  CB        18.2550   -0.3640   18.8780 C.3   195  THR195      0.1808
    105  OG1       17.5820   -0.1990   17.6280 O.3   195  THR195     -0.2208
    106  CG2       17.2270   -0.3730   20.0210 C.3   195  THR195      0.0379
    107  N         20.5850    1.7550   17.2790 N.am  196  THR196     -0.1937
    108  CA        21.6310    1.7810   16.2600 C.3   196  THR196      0.2013
    109  C         22.4260    3.0600   16.4540 C.2   196  THR196      0.2484
    110  O         21.9570    3.9980   17.0950 O.2   196  THR196     -0.2729
    111  CB        21.0760    1.8560   14.8230 C.3   196  THR196      0.1807
    112  OG1       20.5560    3.1730   14.5880 O.3   196  THR196     -0.2208
    113  CG2       19.9790    0.8290   14.6020 C.3   196  THR196      0.0379
    114  N         23.6530    3.1060   15.9230 N.am  197  PRO197     -0.2715
    115  CA        24.4330    4.3350   16.0760 C.3   197  PRO197      0.1521
    116  C         23.5490    5.4590   15.5230 C.2   197  PRO197      0.2440
    117  O         22.7720    5.2310   14.5790 O.2   197  PRO197     -0.2731
    118  CB        25.6540    4.0570   15.2090 C.3   197  PRO197      0.0310
    119  CG        25.8860    2.5890   15.4680 C.3   197  PRO197      0.0237
    120  CD        24.4790    2.0080   15.3840 C.3   197  PRO197      0.0939
    121  N         23.6530    6.6820   16.0720 N.am  198  PRO198     -0.2727
    122  CA        24.5070    7.1720   17.1600 C.3   198  PRO198      0.1402
    123  C         24.1670    6.7200   18.5840 C.2   198  PRO198      0.2269
    124  O         24.7670    7.2060   19.5410 O.2   198  PRO198     -0.2865
    125  CB        24.4180    8.6840   16.9980 C.3   198  PRO198      0.0296
    126  CG        22.9990    8.8700   16.5700 C.3   198  PRO198      0.0237
    127  CD        22.8290    7.7800   15.5300 C.3   198  PRO198      0.0939
    128  N         21.9620    7.4450   20.7000 N.3   200  LEU200     -0.1245
    129  CA        21.6050    8.5130   21.6350 C.3   200  LEU200      0.1561
    130  C         20.5830    8.0650   22.6860 C.2   200  LEU200      0.2260
    131  O         19.6270    7.3500   22.3780 O.2   200  LEU200     -0.2867
    132  CB        21.0830    9.7260   20.8530 C.3   200  LEU200      0.0270
    133  CG        22.1080   10.2770   19.8500 C.3   200  LEU200      0.0019
    134  CD1       21.4920   11.3860   19.0050 C.3   200  LEU200      0.0001
    135  CD2       23.3320   10.7820   20.5990 C.3   200  LEU200      0.0001
    136  N         10.8990    4.1070   25.7170 N.3   205  TRP205     -0.1241
    137  CA        10.4100    2.9190   25.0360 C.3   205  TRP205      0.1605
    138  C          9.0530    2.4640   25.5520 C.2   205  TRP205      0.2264
    139  O          8.8020    2.4410   26.7600 O.2   205  TRP205     -0.2867
    140  CB        11.4130    1.7630   25.1620 C.3   205  TRP205      0.0550
    141  CG        12.5460    1.8760   24.1980 C.ar  205  TRP205      0.0003
    142  CD1       13.7670    2.4430   24.4240 C.ar  205  TRP205      0.0946
    143  CD2       12.5330    1.4800   22.8230 C.ar  205  TRP205      0.0152
    144  NE1       14.5150    2.4270   23.2690 N.ar  205  TRP205     -0.2442
    145  CE2       13.7790    1.8420   22.2720 C.ar  205  TRP205      0.0810
    146  CE3       11.5830    0.8550   22.0000 C.ar  205  TRP205      0.0012
    147  CZ2       14.1040    1.6010   20.9320 C.ar  205  TRP205      0.0191
    148  CZ3       11.9060    0.6150   20.6690 C.ar  205  TRP205      0.0001
    149  CH2       13.1570    0.9880   20.1500 C.ar  205  TRP205      0.0015
@<TRIPOS>BOND
     1     4     3    2
     2    13    10    1
     3    13    14    1
     4    22    19    1
     5    22    23    1
     6    19    18    1
     7    19    20    1
     8    10    11    1
     9    10     9    1
    10     3     9   am
    11     3     2    1
    12    14    15    1
    13     6     8    1
    14     6     5    1
    15    20    21    2
    16    15    16    2
    17    15    17   am
    18    11    12    2
    19    23    24   ar
    20    23    25   ar
    21     2     5    1
    22     2     1    1
    23     5     7    1
    24    24    26   ar
    25    28    29    1
    26    25    27   ar
    27    30    29    1
    28    30    31    2
    29    29    32    1
    30    26    27   ar
    31    41    40    2
    32    67    68    1
    33    67    64    1
    34    34    36   ar
    35    34    33   ar
    36    70    72   ar
    37    70    68   ar
    38    59    60    1
    39    59    56    1
    40    32    33    1
    41    36    37   ar
    42    33    35   ar
    43    72    73   ar
    44    68    69   ar
    45    60    62   ar
    46    60    61   ar
    47   117   116    2
    48   112   111    1
    49   113   111    1
    50    37    35   ar
    51    63    64    1
    52    63    57   am
    53    38    39    1
    54    74    75    1
    55    74    65   am
    56   111   108    1
    57    54    52    1
    58    51    50    2
    59    73    71   ar
    60    40    39    1
    61    69    71   ar
    62    56    57    1
    63    56    55    1
    64    52    53    1
    65    52    49    1
    66    64    65    1
    67    75    76    1
    68   118   119    1
    69   118   115    1
    70    48    49    1
    71   120   119    1
    72   120   114    1
    73   116   121   am
    74   116   115    1
    75   127   121    1
    76   127   126    1
    77    57    58    2
    78    65    66    2
    79    39    42    1
    80    42    43    1
    81    49    50    1
    82   114   115    1
    83   114   109   am
    84   121   122    1
    85   108   109    1
    86   108   107    1
    87   109   110    2
    88    76    77    2
    89   126   125    1
    90    44    43   ar
    91    44    46   ar
    92    43    45   ar
    93   125   122    1
    94   122   123    1
    95   107   102   am
    96    46    47   ar
    97    45    47   ar
    98   105   104    1
    99    83    82    1
   100    84    82    1
   101   103   102    2
   102    98    97    1
   103   102   101    1
   104    99    97    1
   105    82    79    1
   106   123   124    2
   107    90    89    1
   108    97    96    1
   109    96    93    1
   110   104   101    1
   111   104   106    1
   112   134   133    1
   113   101   100    1
   114   100    94   am
   115    91    89    1
   116    78    79    1
   117    89    86    1
   118    79    80    1
   119    94    93    1
   120    94    95    2
   121   133   135    1
   122   133   132    1
   123    93    92    1
   124    86    87    1
   125    86    85    1
   126   149   148   ar
   127   149   147   ar
   128    87    88    2
   129   148   146   ar
   130   128   129    1
   131    80    81    2
   132   132   129    1
   133   147   145   ar
   134   129   130    1
   135   146   143   ar
   136   145   143   ar
   137   145   144   ar
   138   131   130    2
   139   143   141   ar
   140   144   142   ar
   141   141   142   ar
   142   141   140    1
   143   137   140    1
   144   137   138    1
   145   137   136    1
   146   138   139    2
