@<TRIPOS>MOLECULE
tmp/3nbaB00.pdb
 180 176 0 0 0
SMALL
GASTEIGER

@<TRIPOS>ATOM
      1  N         22.2220  -57.9650  -60.3560 N.3     6  CYS6       -0.1221
      2  CA        20.7890  -57.6400  -60.3470 C.3     6  CYS6        0.1794
      3  C         20.2140  -57.9370  -61.7240 C.2     6  CYS6        0.2443
      4  O         20.3180  -57.1030  -62.6080 O.2     6  CYS6       -0.2733
      5  CB        20.5440  -56.1530  -60.0460 C.3     6  CYS6        0.0970
      6  SG        20.6670  -55.6000  -58.3250 S.3     6  CYS6       -0.0800
      7  N         19.6130  -59.1300  -61.9140 N.am    7  PRO7       -0.2718
      8  CA        18.9950  -59.4770  -63.1940 C.3     7  PRO7        0.1535
      9  C         17.6130  -58.8690  -63.3430 C.2     7  PRO7        0.2599
     10  O         16.9790  -58.5890  -62.3370 O.2     7  PRO7       -0.2715
     11  CB        18.8920  -60.9990  -63.1390 C.3     7  PRO7        0.0310
     12  CG        18.9790  -61.3830  -61.6990 C.3     7  PRO7        0.0237
     13  CD        19.5570  -60.2440  -60.9390 C.3     7  PRO7        0.0939
     14  N         17.1520  -58.6840  -64.5810 N.am    8  GLY8       -0.1941
     15  CA        15.8300  -58.1650  -64.8430 C.3     8  GLY8        0.2014
     16  C         15.6100  -57.7910  -66.2950 C.2     8  GLY8        0.2640
     17  O         16.5580  -57.7920  -67.0820 O.2     8  GLY8       -0.2714
     18  N         14.3670  -57.4460  -66.6470 N.am    9  SER9       -0.1935
     19  CA        14.0390  -57.0190  -68.0130 C.3     9  SER9        0.2055
     20  C         14.1410  -55.5170  -68.1250 C.2     9  SER9        0.2643
     21  O         14.4690  -54.9770  -69.1870 O.2     9  SER9       -0.2714
     22  CB        12.6160  -57.3990  -68.4010 C.3     9  SER9        0.2130
     23  OG        12.1640  -58.4600  -67.5940 O.3     9  SER9       -0.2179
     24  N         13.8040  -54.8350  -67.0420 N.am   10  PHE10      -0.1959
     25  CA        13.8390  -53.3850  -67.0340 C.3    10  PHE10       0.1771
     26  C         13.1490  -52.8030  -68.2750 C.2    10  PHE10       0.2619
     27  O         13.7570  -52.0980  -69.0840 O.2    10  PHE10      -0.2715
     28  CB        15.2820  -52.9280  -66.8320 C.3    10  PHE10       0.0574
     29  CG        15.9420  -53.6010  -65.6600 C.ar   10  PHE10      -0.0200
     30  CD1       15.6360  -53.2130  -64.3450 C.ar   10  PHE10      -0.0042
     31  CD2       16.8210  -54.6640  -65.8490 C.ar   10  PHE10      -0.0042
     32  CE1       16.2200  -53.8400  -63.2730 C.ar   10  PHE10      -0.0003
     33  CE2       17.4250  -55.3050  -64.7400 C.ar   10  PHE10      -0.0003
     34  CZ        17.1210  -54.8960  -63.4690 C.ar   10  PHE10      -0.0000
     35  N         11.8560  -53.0900  -68.4060 N.am   11  ASP11      -0.1971
     36  CA        11.1100  -52.6670  -69.6010 C.3    11  ASP11       0.1709
     37  C          9.8290  -51.8990  -69.2200 C.2    11  ASP11       0.2293
     38  O          8.7230  -52.4310  -69.3980 O.2    11  ASP11      -0.2864
     39  CB        10.7860  -53.9020  -70.4580 C.3    11  ASP11       0.1436
     40  CG         9.9520  -53.5810  -71.6920 C.2    11  ASP11       0.3671
     41  OD1       10.1570  -52.5320  -72.3270 O.co2  11  ASP11      -0.2456
     42  OD2        9.0850  -54.4070  -72.0560 O.co2  11  ASP11      -0.2456
     43  N         11.8930  -48.5090  -63.2350 N.3    14  THR14      -0.1218
     44  CA        10.9690  -47.7840  -62.3870 C.3    14  THR14       0.1862
     45  C         11.7250  -47.2930  -61.1820 C.2    14  THR14       0.2287
     46  O         12.8150  -47.7870  -60.8670 O.2    14  THR14      -0.2866
     47  CB         9.8730  -48.7560  -61.8650 C.3    14  THR14       0.1770
     48  OG1       10.4440  -49.6150  -60.8640 O.3    14  THR14      -0.2211
     49  CG2        9.3080  -49.6380  -63.0150 C.3    14  THR14       0.0375
     50  N         11.0780  -48.1950  -58.3870 N.3    16  GLY16      -0.1210
     51  CA        11.3150  -49.4500  -57.6730 C.3    16  GLY16       0.1956
     52  C         12.6710  -50.0810  -57.9540 C.2    16  GLY16       0.2611
     53  O         13.3650  -50.5170  -57.0460 O.2    16  GLY16      -0.2717
     54  N         13.0580  -50.1300  -59.2220 N.am   17  HIS17      -0.1975
     55  CA        14.3440  -50.6960  -59.6030 C.3    17  HIS17       0.1656
     56  C         15.4870  -49.8440  -59.0830 C.2    17  HIS17       0.2291
     57  O         16.4760  -50.3770  -58.5400 O.2    17  HIS17      -0.2864
     58  CB        14.4540  -50.7830  -61.1070 C.3    17  HIS17       0.0771
     59  CG        13.4620  -51.7130  -61.7330 C.ar   17  HIS17       0.0820
     60  ND1       12.7030  -51.3580  -62.8260 N.ar   17  HIS17      -0.2267
     61  CD2       13.1060  -52.9870  -61.4190 C.ar   17  HIS17       0.1154
     62  CE1       11.9540  -52.3900  -63.1810 C.ar   17  HIS17       0.1986
     63  NE2       12.1600  -53.3790  -62.3290 N.ar   17  HIS17      -0.2212
     64  N         15.5900  -47.9720  -56.4620 N.3    19  ASP19      -0.1225
     65  CA        15.7060  -48.2450  -55.0340 C.3    19  ASP19       0.1805
     66  C         16.5050  -49.5440  -54.7710 C.2    19  ASP19       0.2598
     67  O         17.4130  -49.5830  -53.9590 O.2    19  ASP19      -0.2718
     68  CB        14.3140  -48.3510  -54.4240 C.3    19  ASP19       0.1424
     69  CG        14.3470  -48.3350  -52.9070 C.2    19  ASP19       0.3668
     70  OD1       13.9540  -49.3340  -52.2620 O.co2  19  ASP19      -0.2456
     71  OD2       14.8210  -47.3130  -52.3600 O.co2  19  ASP19      -0.2456
     72  N         16.1690  -50.6040  -55.4860 N.am   20  ILE20      -0.1966
     73  CA        16.8840  -51.8410  -55.3740 C.3    20  ILE20       0.1727
     74  C         18.3590  -51.6500  -55.7290 C.2    20  ILE20       0.2616
     75  O         19.2360  -52.1890  -55.0690 O.2    20  ILE20      -0.2715
     76  CB        16.2460  -52.8900  -56.3090 C.3    20  ILE20       0.0290
     77  CG1       14.7600  -53.0230  -55.9720 C.3    20  ILE20       0.0022
     78  CG2       16.9310  -54.2800  -56.1950 C.3    20  ILE20       0.0023
     79  CD1       14.5450  -53.4070  -54.4910 C.3    20  ILE20       0.0001
     80  N         18.6150  -50.8840  -56.7820 N.am   21  PHE21      -0.1974
     81  CA        19.9660  -50.6490  -57.2570 C.3    21  PHE21       0.1639
     82  C         20.7840  -49.9320  -56.1770 C.2    21  PHE21       0.2290
     83  O         21.9240  -50.3410  -55.8900 O.2    21  PHE21      -0.2864
     84  CB        19.9500  -49.8060  -58.5160 C.3    21  PHE21       0.0560
     85  CG        19.3830  -50.4890  -59.7200 C.ar   21  PHE21      -0.0200
     86  CD1       18.8820  -49.7280  -60.7730 C.ar   21  PHE21      -0.0042
     87  CD2       19.3440  -51.8730  -59.8230 C.ar   21  PHE21      -0.0042
     88  CE1       18.3600  -50.3270  -61.9190 C.ar   21  PHE21      -0.0003
     89  CE2       18.8110  -52.4920  -60.9610 C.ar   21  PHE21      -0.0003
     90  CZ        18.3310  -51.7100  -62.0000 C.ar   21  PHE21      -0.0000
     91  N         17.6750  -59.5540  -55.7640 N.3    87  LYS87      -0.1231
     92  CA        16.3400  -59.2890  -56.3150 C.3    87  LYS87       0.1693
     93  C         15.4640  -58.5790  -55.2880 C.2    87  LYS87       0.2593
     94  O         15.6690  -58.6940  -54.0490 O.2    87  LYS87      -0.2718
     95  CB        15.7050  -60.6160  -56.7590 C.3    87  LYS87       0.0285
     96  CG        16.2880  -61.1550  -58.0460 C.3    87  LYS87       0.0035
     97  CD        16.0600  -62.6050  -58.2520 C.3    87  LYS87       0.0206
     98  CE        14.9960  -62.8780  -59.3100 C.3    87  LYS87       0.1093
     99  NZ        14.8030  -61.7950  -60.3010 N.3    87  LYS87      -0.1314
    100  N         14.4880  -57.8420  -55.7920 N.am   88  GLY88      -0.1942
    101  CA        13.4860  -57.2220  -54.9150 C.3    88  GLY88       0.2014
    102  C         12.2640  -58.1200  -54.8020 C.2    88  GLY88       0.2639
    103  O         12.0000  -58.9120  -55.7040 O.2    88  GLY88      -0.2714
    104  N         11.5480  -58.0190  -53.6830 N.am   89  LEU89      -0.1963
    105  CA        10.3060  -58.7400  -53.4600 C.3    89  LEU89       0.1728
    106  C          9.2240  -57.7600  -53.0170 C.2    89  LEU89       0.2616
    107  O          9.4280  -57.0300  -52.0620 O.2    89  LEU89      -0.2715
    108  CB        10.4920  -59.8270  -52.3760 C.3    89  LEU89       0.0311
    109  CG        11.3340  -61.0700  -52.7030 C.3    89  LEU89       0.0022
    110  CD1       11.3970  -62.0150  -51.5440 C.3    89  LEU89       0.0001
    111  CD2       10.8330  -61.8010  -53.9410 C.3    89  LEU89       0.0001
    112  N          8.0790  -57.7430  -53.7090 N.am   90  ARG90      -0.1977
    113  CA         6.9080  -56.9680  -53.2640 C.3    90  ARG90       0.1597
    114  C          5.9780  -57.7620  -52.3060 C.2    90  ARG90       0.2287
    115  O          5.5630  -57.2590  -51.2590 O.2    90  ARG90      -0.2864
    116  CB         6.1360  -56.4070  -54.4590 C.3    90  ARG90       0.0334
    117  CG         6.9350  -55.3850  -55.2950 C.3    90  ARG90       0.0492
    118  CD         6.1650  -54.8190  -56.4930 C.3    90  ARG90       0.2205
    119  NE         5.9050  -55.7930  -57.5670 N.pl3  90  ARG90      -0.0865
    120  CZ         6.6710  -55.9810  -58.6580 C.cat  90  ARG90       0.5346
    121  NH1        7.7910  -55.2830  -58.8640 N.pl3  90  ARG90       0.1354
    122  NH2        6.3140  -56.8860  -59.5640 N.pl3  90  ARG90       0.1354
    123  N          9.8990  -66.8010  -56.4610 N.3    98  GLU98      -0.1245
    124  CA        11.3240  -66.5250  -56.5020 C.3    98  GLU98       0.1567
    125  C         12.1490  -67.5090  -55.7070 C.2    98  GLU98       0.2260
    126  O         13.2800  -67.7740  -56.0870 O.2    98  GLU98      -0.2867
    127  CB        11.6360  -65.0850  -56.0730 C.3    98  GLU98       0.0388
    128  CG        11.1000  -64.0180  -57.0210 C.3    98  GLU98       0.1160
    129  CD        11.8580  -63.9410  -58.3240 C.2    98  GLU98       0.3649
    130  OE1       11.3280  -63.4000  -59.3060 O.co2  98  GLU98      -0.2457
    131  OE2       12.9920  -64.4300  -58.3870 O.co2  98  GLU98      -0.2457
    132  N         10.6510  -54.4480  -50.8210 N.3   118  THR118     -0.1203
    133  CA        10.2870  -53.1860  -51.4200 C.3   118  THR118      0.1994
    134  C         10.1760  -52.0440  -50.4170 C.2   118  THR118      0.2617
    135  O          9.8620  -52.2330  -49.2460 O.2   118  THR118     -0.2717
    136  CB         8.9600  -53.3190  -52.2130 C.3   118  THR118      0.1784
    137  OG1        8.6600  -52.0840  -52.8670 O.3   118  THR118     -0.2211
    138  CG2        7.8010  -53.7020  -51.3200 C.3   118  THR118      0.0376
    139  N         10.4590  -50.8560  -50.8880 N.am  119  ALA119     -0.1979
    140  CA        10.1910  -49.6830  -50.1010 C.3   119  ALA119      0.1597
    141  C          8.6740  -49.4660  -50.1390 C.2   119  ALA119      0.2287
    142  O          8.0520  -49.6350  -51.1870 O.2   119  ALA119     -0.2864
    143  CB        10.9800  -48.4490  -50.6510 C.3   119  ALA119      0.0319
    144  N          6.9560  -47.6720  -53.0780 N.3   122  TYR122     -0.1241
    145  CA         6.9890  -48.3130  -54.4100 C.3   122  TYR122      0.1605
    146  C          6.3880  -49.7140  -54.4250 C.2   122  TYR122      0.2264
    147  O          6.5080  -50.4480  -55.3850 O.2   122  TYR122     -0.2867
    148  CB         8.4080  -48.3110  -55.0160 C.3   122  TYR122      0.0534
    149  CG         9.0230  -46.9450  -55.0320 C.ar  122  TYR122     -0.0201
    150  CD1       10.2600  -46.7120  -54.4320 C.ar  122  TYR122     -0.0009
    151  CD2        8.3520  -45.8770  -55.6280 C.ar  122  TYR122     -0.0009
    152  CE1       10.8160  -45.4540  -54.4330 C.ar  122  TYR122      0.0417
    153  CE2        8.8950  -44.6200  -55.6500 C.ar  122  TYR122      0.0417
    154  CZ        10.1190  -44.4120  -55.0430 C.ar  122  TYR122      0.1957
    155  OH        10.6380  -43.1520  -55.0400 O.3   122  TYR122     -0.2866
    156  N          4.4750  -50.6150  -57.5450 N.3   125  VAL125     -0.1231
    157  CA         4.9910  -50.2420  -58.8300 C.3   125  VAL125      0.1692
    158  C          5.6120  -51.4590  -59.4910 C.2   125  VAL125      0.2593
    159  O          6.3890  -52.2000  -58.8700 O.2   125  VAL125     -0.2718
    160  CB         6.0380  -49.1180  -58.7170 C.3   125  VAL125      0.0266
    161  CG1        6.4620  -48.6510  -60.0970 C.3   125  VAL125      0.0020
    162  CG2        5.4910  -47.9790  -57.8980 C.3   125  VAL125      0.0020
    163  N          5.2520  -51.6570  -60.7480 N.am  126  SER126     -0.1938
    164  CA         5.8310  -52.6930  -61.5550 C.3   126  SER126      0.2055
    165  C          5.9040  -52.2050  -63.0220 C.2   126  SER126      0.2644
    166  O          5.0890  -51.3780  -63.4510 O.2   126  SER126     -0.2714
    167  CB         5.0090  -53.9830  -61.4110 C.3   126  SER126      0.2130
    168  OG         3.7340  -53.8610  -62.0170 O.3   126  SER126     -0.2179
    169  N          6.8470  -52.7170  -63.7970 N.am  127  SER127     -0.1935
    170  CA         6.9240  -52.2760  -65.1630 C.3   127  SER127      0.2055
    171  C          5.6020  -52.5330  -65.8740 C.2   127  SER127      0.2643
    172  O          5.0350  -51.6140  -66.4900 O.2   127  SER127     -0.2714
    173  CB         8.0890  -52.9360  -65.9210 C.3   127  SER127      0.2130
    174  OG         9.3170  -52.6630  -65.2840 O.3   127  SER127     -0.2179
    175  N          5.0960  -53.7670  -65.8150 N.am  128  SER128     -0.1949
    176  CA         3.8820  -54.0470  -66.5940 C.3   128  SER128      0.1924
    177  C          2.7290  -53.1680  -66.1370 C.2   128  SER128      0.2314
    178  O          2.1000  -52.5180  -66.9610 O.2   128  SER128     -0.2863
    179  CB         3.5140  -55.5210  -66.6530 C.3   128  SER128      0.2116
    180  OG         3.6060  -56.0830  -65.3800 O.3   128  SER128     -0.2180
@<TRIPOS>BOND
     1    41    40   ar
     2    42    40   ar
     3    40    39    1
     4    39    36    1
     5    36    37    1
     6    36    35    1
     7    38    37    2
     8    21    20    2
     9    27    26    2
    10    35    26   am
    11    22    19    1
    12    22    23    1
    13    26    25    1
    14    20    19    1
    15    20    24   am
    16    19    18    1
    17    17    16    2
    18    24    25    1
    19    25    28    1
    20   178   177    2
    21    28    29    1
    22   179   176    1
    23   179   180    1
    24    18    16   am
    25   176   177    1
    26   176   175    1
    27   172   171    2
    28    16    15    1
    29   173   174    1
    30   173   170    1
    31   171   175   am
    32   171   170    1
    33    31    29   ar
    34    31    33   ar
    35    29    30   ar
    36   170   169    1
    37    15    14    1
    38    33    34   ar
    39    14     9   am
    40    30    32   ar
    41   169   165   am
    42    34    32   ar
    43   166   165    2
    44     9     8    1
    45     9    10    2
    46    43    44    1
    47     8    11    1
    48     8     7    1
    49    62    60   ar
    50    62    63   ar
    51    11    12    1
    52   165   164    1
    53    49    47    1
    54    60    59   ar
    55     4     3    2
    56    44    47    1
    57    44    45    1
    58    63    61   ar
    59   168   167    1
    60    90    88   ar
    61    90    89   ar
    62    88    86   ar
    63     7     3   am
    64     7    13    1
    65    47    48    1
    66    59    61   ar
    67    59    58    1
    68     3     2    1
    69    12    13    1
    70   164   167    1
    71   164   163    1
    72    45    46    2
    73    58    55    1
    74    89    87   ar
    75    86    85   ar
    76   163   158   am
    77     1     2    1
    78     2     5    1
    79    99    98    1
    80   161   160    1
    81     5     6    1
    82    87    85   ar
    83    85    84    1
    84    55    54    1
    85    55    56    1
    86   122   120    1
    87   158   159    2
    88   158   157    1
    89    98    97    1
    90   130   129   ar
    91    54    52   am
    92    56    57    2
    93   121   120    1
    94   157   160    1
    95   157   156    1
    96   160   162    1
    97   120   119    2
    98    84    81    1
    99   131   129   ar
   100    50    51    1
   101   129   128    1
   102    97    96    1
   103    96    95    1
   104    52    51    1
   105    52    53    2
   106   119   118    1
   107    81    80    1
   108    81    82    1
   109   128   127    1
   110    80    74   am
   111    95    92    1
   112   124   123    1
   113   124   127    1
   114   124   125    1
   115   118   117    1
   116    64    65    1
   117    92    91    1
   118    92    93    1
   119    76    78    1
   120    76    77    1
   121    76    73    1
   122    82    83    2
   123   126   125    2
   124    77    79    1
   125   100    93   am
   126   100   101    1
   127    74    73    1
   128    74    75    2
   129   103   102    2
   130   153   151   ar
   131   153   154   ar
   132   151   149   ar
   133    72    73    1
   134    72    66   am
   135   147   146    2
   136   117   116    1
   137    93    94    2
   138   154   155    1
   139   154   152   ar
   140    65    66    1
   141    65    68    1
   142   149   148    1
   143   149   150   ar
   144   148   145    1
   145   101   102    1
   146   102   104   am
   147    66    67    2
   148   116   113    1
   149   152   150   ar
   150   146   145    1
   151    68    69    1
   152   145   144    1
   153   111   109    1
   154   112   113    1
   155   112   106   am
   156   104   105    1
   157   105   106    1
   158   105   108    1
   159   113   114    1
   160   106   107    2
   161    69    71   ar
   162    69    70   ar
   163   137   136    1
   164   109   108    1
   165   109   110    1
   166   114   115    2
   167   136   133    1
   168   136   138    1
   169   133   132    1
   170   133   134    1
   171   142   141    2
   172   139   134   am
   173   139   140    1
   174   143   140    1
   175   134   135    2
   176   141   140    1
