@<TRIPOS>MOLECULE
tmp/3nbdA00.pdb
 77 71 0 0 0
SMALL
GASTEIGER

@<TRIPOS>ATOM
      1  N         12.5630   17.8630    6.3250 N.3    20  ASP20      -0.1239
      2  CA        13.1190   19.2580    6.1480 C.3    20  ASP20       0.1674
      3  C         11.9550   20.2990    6.3250 C.2    20  ASP20       0.2266
      4  O         10.8480   20.1340    5.7250 O.2    20  ASP20      -0.2867
      5  CB        13.7520   19.3060    4.6660 C.3    20  ASP20       0.1410
      6  CG        14.2490   20.6960    4.1540 C.2    20  ASP20       0.3668
      7  OD1       13.4350   21.7000    4.2750 O.co2  20  ASP20      -0.2456
      8  OD2       15.3950   20.7300    3.5700 O.co2  20  ASP20      -0.2456
      9  N         10.5400   23.7350    5.2730 N.3    22  THR22      -0.1203
     10  CA        10.7050   24.5970    4.0380 C.3    22  THR22       0.1994
     11  C         11.3700   26.0010    4.3690 C.2    22  THR22       0.2618
     12  O         10.7950   26.7990    5.1680 O.2    22  THR22      -0.2717
     13  CB         9.3460   24.8990    3.2970 C.3    22  THR22       0.1784
     14  OG1        8.7180   23.6430    2.8370 O.3    22  THR22      -0.2211
     15  CG2        9.5020   25.8480    2.0810 C.3    22  THR22       0.0376
     16  N         12.5390   26.2930    3.7110 N.am   23  GLY23      -0.1942
     17  CA        13.1340   27.6620    3.7760 C.3    23  GLY23       0.2014
     18  C         13.6350   28.1190    5.1490 C.2    23  GLY23       0.2639
     19  O         13.9080   29.3360    5.3500 O.2    23  GLY23      -0.2714
     20  N         13.7460   27.1700    6.1400 N.am   24  SER24      -0.1949
     21  CA        14.0210   27.5870    7.5640 C.3    24  SER24       0.1924
     22  C         12.9740   28.6540    8.0580 C.2    24  SER24       0.2314
     23  O         13.2890   29.5190    8.9350 O.2    24  SER24      -0.2863
     24  CB        15.5000   28.0800    7.7870 C.3    24  SER24       0.2116
     25  OG        16.4480   27.0220    7.4290 O.3    24  SER24      -0.2180
     26  N          8.7320   18.7230    4.2280 N.3    33  ILE33      -0.1245
     27  CA         8.9790   18.1240    2.9040 C.3    33  ILE33       0.1561
     28  C         10.1510   17.0740    2.9770 C.2    33  ILE33       0.2260
     29  O         10.9790   17.0670    3.9260 O.2    33  ILE33      -0.2867
     30  CB         9.3230   19.2450    1.8310 C.3    33  ILE33       0.0252
     31  CG1       10.7030   19.9680    2.1650 C.3    33  ILE33       0.0019
     32  CG2        8.1480   20.3050    1.7130 C.3    33  ILE33       0.0019
     33  CD1       11.1100   21.1500    1.2230 C.3    33  ILE33       0.0001
     34  N         13.7860   16.3190    1.1560 N.3    35  HIS35      -0.1241
     35  CA        14.7470   17.1880    0.3980 C.3    35  HIS35       0.1621
     36  C         16.2040   16.6360    0.5310 C.2    35  HIS35       0.2264
     37  O         16.5850   15.9830    1.5450 O.2    35  HIS35      -0.2867
     38  CB        14.7060   18.6690    0.9930 C.3    35  HIS35       0.0745
     39  CG        15.3800   19.7580    0.1700 C.ar   35  HIS35       0.0817
     40  ND1       16.7780   20.0520    0.1940 N.ar   35  HIS35      -0.2268
     41  CD2       14.8460   20.7050   -0.7130 C.ar   35  HIS35       0.1154
     42  CE1       16.9920   21.0820   -0.6850 C.ar   35  HIS35       0.1986
     43  NE2       15.8520   21.5270   -1.2100 N.ar   35  HIS35      -0.2212
     44  N         21.4540   19.4300    2.8940 N.3    38  ASN38      -0.1240
     45  CA        21.7180   20.8320    2.4620 C.3    38  ASN38       0.1653
     46  C         23.0970   21.4420    2.9230 C.2    38  ASN38       0.2266
     47  O         23.4270   22.6120    2.5460 O.2    38  ASN38      -0.2867
     48  CB        20.5060   21.7870    2.7890 C.3    38  ASN38       0.1155
     49  CG        20.2770   22.0090    4.3320 C.2    38  ASN38       0.2627
     50  OD1       21.1470   21.6090    5.1640 O.2    38  ASN38      -0.2716
     51  ND2       19.1170   22.6570    4.6810 N.am   38  ASN38      -0.0877
     52  N         21.9070   22.1690    7.8980 N.3    44  TYR44      -0.1298
     53  CA        21.5340   23.3250    8.7210 C.3    44  TYR44       0.1290
     54  C         20.4610   22.8820    9.8040 C.3    44  TYR44       0.2013
     55  O         19.9740   21.6920    9.8200 O.3    44  TYR44      -0.2188
     56  CB        21.0150   24.4980    7.8250 C.3    44  TYR44       0.0480
     57  CG        22.0500   25.0600    6.8070 C.ar   44  TYR44      -0.0204
     58  CD1       23.3510   25.4250    7.1900 C.ar   44  TYR44      -0.0009
     59  CD2       21.7790   25.1370    5.4400 C.ar   44  TYR44      -0.0009
     60  CE1       24.3270   25.9350    6.2570 C.ar   44  TYR44       0.0417
     61  CE2       22.7310   25.6750    4.4910 C.ar   44  TYR44       0.0417
     62  CZ        23.9480   26.1480    4.9020 C.ar   44  TYR44       0.1957
     63  OH        24.9150   26.6930    4.0240 O.3    44  TYR44      -0.2866
     64  N         17.3130   23.3260   10.1470 N.3    46  ASN46      -0.1240
     65  CA        15.9580   22.9260    9.6160 C.3    46  ASN46       0.1653
     66  C         15.9000   21.4290    9.1460 C.2    46  ASN46       0.2266
     67  O         14.8010   20.9530    8.7320 O.2    46  ASN46      -0.2867
     68  CB        15.5090   23.8980    8.4590 C.3    46  ASN46       0.1155
     69  CG        16.3110   23.6930    7.1480 C.2    46  ASN46       0.2627
     70  OD1       17.5800   23.5430    7.1970 O.2    46  ASN46      -0.2716
     71  ND2       15.5860   23.6630    5.9710 N.am   46  ASN46      -0.0877
     72  N         11.7260   18.2270   -2.8430 N.3   123  SER123     -0.1217
     73  CA        10.7100   19.1630   -2.2660 C.3   123  SER123      0.1889
     74  C          9.2610   18.5930   -2.2810 C.2   123  SER123      0.2288
     75  O          8.2820   19.3590   -2.1410 O.2   123  SER123     -0.2866
     76  CB        10.7920   20.6260   -2.8730 C.3   123  SER123      0.2089
     77  OG        12.0470   21.2140   -2.4860 O.3   123  SER123     -0.2183
@<TRIPOS>BOND
     1    76    77    1
     2    76    73    1
     3    72    73    1
     4    74    73    1
     5    74    75    2
     6    43    41   ar
     7    43    42   ar
     8    41    39   ar
     9    42    40   ar
    10    39    40   ar
    11    39    38    1
    12    35    36    1
    13    35    38    1
    14    35    34    1
    15    36    37    2
    16    33    31    1
    17    32    30    1
    18    30    31    1
    19    30    27    1
    20    15    13    1
    21    45    48    1
    22    45    44    1
    23    45    46    1
    24    47    46    2
    25    48    49    1
    26    14    13    1
    27    27    28    1
    28    27    26    1
    29    28    29    2
    30    13    10    1
    31     8     6   ar
    32    16    17    1
    33    16    11   am
    34    17    18    1
    35    63    62    1
    36    10    11    1
    37    10     9    1
    38     6     7   ar
    39     6     5    1
    40    49    51   am
    41    49    50    2
    42    11    12    2
    43    61    62   ar
    44    61    59   ar
    45     5     2    1
    46    62    60   ar
    47    18    19    2
    48    18    20   am
    49    59    57   ar
    50     4     3    2
    51    71    69   am
    52    20    21    1
    53     2     1    1
    54     2     3    1
    55    60    58   ar
    56    57    58   ar
    57    57    56    1
    58    69    70    2
    59    69    68    1
    60    25    24    1
    61    21    24    1
    62    21    22    1
    63    56    53    1
    64    52    53    1
    65    22    23    2
    66    68    65    1
    67    53    54    1
    68    67    66    2
    69    66    65    1
    70    65    64    1
    71    54    55    1
