@<TRIPOS>MOLECULE
tmp/3nbeA00.pdb
 85 79 0 0 0
SMALL
GASTEIGER

@<TRIPOS>ATOM
      1  N         12.4120   17.1060    6.1510 N.3    20  ASP20      -0.1239
      2  CA        12.9430   18.4320    5.9560 C.3    20  ASP20       0.1674
      3  C         11.7320   19.4620    6.0970 C.2    20  ASP20       0.2266
      4  O         10.6650   19.2440    5.4750 O.2    20  ASP20      -0.2867
      5  CB        13.4590   18.4280    4.4960 C.3    20  ASP20       0.1410
      6  CG        13.9260   19.8570    4.0070 C.2    20  ASP20       0.3668
      7  OD1       13.1220   20.8900    4.0190 O.co2  20  ASP20      -0.2456
      8  OD2       15.1180   19.8390    3.5380 O.co2  20  ASP20      -0.2456
      9  N         10.3280   22.6640    4.9860 N.3    22  THR22      -0.1203
     10  CA        10.5250   23.5240    3.8000 C.3    22  THR22       0.1994
     11  C         11.1160   24.8990    4.1120 C.2    22  THR22       0.2618
     12  O         10.5450   25.7100    4.9110 O.2    22  THR22      -0.2717
     13  CB         9.1600   23.7710    3.1020 C.3    22  THR22       0.1784
     14  OG1        8.6070   22.5110    2.6080 O.3    22  THR22      -0.2211
     15  CG2        9.4020   24.7400    1.8130 C.3    22  THR22       0.0376
     16  N         12.2370   25.1660    3.4390 N.am   23  GLY23      -0.1942
     17  CA        12.8480   26.5330    3.4070 C.3    23  GLY23       0.2014
     18  C         13.3100   27.0130    4.8110 C.2    23  GLY23       0.2640
     19  O         13.4960   28.2050    5.0180 O.2    23  GLY23      -0.2714
     20  N         13.5050   26.0960    5.7440 N.am   24  SER24      -0.1935
     21  CA        13.7680   26.4200    7.2660 C.3    24  SER24       0.2055
     22  C         12.6900   27.5260    7.6980 C.2    24  SER24       0.2643
     23  O         13.0030   28.4850    8.4450 O.2    24  SER24      -0.2714
     24  CB        15.1620   27.0070    7.3680 C.3    24  SER24       0.2130
     25  OG        16.0560   25.9490    6.9930 O.3    24  SER24      -0.2179
     26  N         11.4650   27.3790    7.2550 N.am   25  ASN25      -0.1971
     27  CA        10.5050   28.5250    7.4500 C.3    25  ASN25       0.1688
     28  C          9.7900   28.3060    8.7610 C.2    25  ASN25       0.2292
     29  O          9.1720   27.2400    8.9450 O.2    25  ASN25      -0.2864
     30  CB         9.4860   28.5670    6.2440 C.3    25  ASN25       0.1181
     31  CG         8.6660   29.8130    6.1760 C.2    25  ASN25       0.2629
     32  OD1        8.3200   30.4600    7.2040 O.2    25  ASN25      -0.2716
     33  ND2        8.4720   30.2700    4.9320 N.am   25  ASN25      -0.0877
     34  N          8.5440   17.8720    4.1030 N.3    33  ILE33      -0.1245
     35  CA         8.7980   17.1260    2.8230 C.3    33  ILE33       0.1561
     36  C          9.9600   16.1480    2.8750 C.2    33  ILE33       0.2260
     37  O         10.7160   16.1300    3.8140 O.2    33  ILE33      -0.2867
     38  CB         9.1630   18.2070    1.6510 C.3    33  ILE33       0.0252
     39  CG1       10.4240   19.0390    2.0630 C.3    33  ILE33       0.0019
     40  CG2        8.0280   19.2600    1.5670 C.3    33  ILE33       0.0019
     41  CD1       10.9630   20.2440    1.0270 C.3    33  ILE33       0.0001
     42  N         13.4870   15.4000    1.1910 N.3    35  HIS35      -0.1241
     43  CA        14.3980   16.2820    0.4020 C.3    35  HIS35       0.1621
     44  C         15.8430   15.7500    0.5490 C.2    35  HIS35       0.2264
     45  O         16.1780   15.1170    1.5350 O.2    35  HIS35      -0.2867
     46  CB        14.2730   17.7610    0.9280 C.3    35  HIS35       0.0745
     47  CG        14.9170   18.8100    0.0410 C.ar   35  HIS35       0.0817
     48  ND1       16.3060   19.0640    0.1510 N.ar   35  HIS35      -0.2268
     49  CD2       14.4700   19.6940   -0.8510 C.ar   35  HIS35       0.1154
     50  CE1       16.6460   19.9970   -0.6990 C.ar   35  HIS35       0.1986
     51  NE2       15.5560   20.4160   -1.3270 N.ar   35  HIS35      -0.2212
     52  N         20.8450   18.5690    2.7360 N.3    38  ASN38      -0.1240
     53  CA        21.1610   19.8840    2.3340 C.3    38  ASN38       0.1653
     54  C         22.4710   20.4910    2.8430 C.2    38  ASN38       0.2266
     55  O         22.8500   21.5990    2.4070 O.2    38  ASN38      -0.2867
     56  CB        19.9460   20.7730    2.6340 C.3    38  ASN38       0.1155
     57  CG        19.7830   21.1090    4.1120 C.2    38  ASN38       0.2627
     58  OD1       20.5230   20.6400    5.0140 O.2    38  ASN38      -0.2716
     59  ND2       18.6500   21.7380    4.3660 N.am   38  ASN38      -0.0877
     60  N         21.4070   21.3200    7.6170 N.3    44  TYR44      -0.1241
     61  CA        21.0780   22.5150    8.3860 C.3    44  TYR44       0.1605
     62  C         20.0310   22.0540    9.4600 C.2    44  TYR44       0.2264
     63  O         19.5850   20.8790    9.3830 O.2    44  TYR44      -0.2867
     64  CB        20.3920   23.5340    7.4630 C.3    44  TYR44       0.0534
     65  CG        21.5020   24.1930    6.5160 C.ar   44  TYR44      -0.0201
     66  CD1       22.4260   24.9910    6.9860 C.ar   44  TYR44      -0.0009
     67  CD2       21.4970   23.9130    5.1530 C.ar   44  TYR44      -0.0009
     68  CE1       23.4410   25.5970    6.1030 C.ar   44  TYR44       0.0417
     69  CE2       22.4270   24.4560    4.2930 C.ar   44  TYR44       0.0417
     70  CZ        23.4080   25.2960    4.7450 C.ar   44  TYR44       0.1957
     71  OH        24.3130   25.9510    3.9060 O.3    44  TYR44      -0.2866
     72  N         16.8280   22.5070    9.7650 N.3    46  ASN46      -0.1240
     73  CA        15.5640   22.0490    9.2590 C.3    46  ASN46       0.1653
     74  C         15.5650   20.5740    8.8400 C.2    46  ASN46       0.2266
     75  O         14.5330   20.1200    8.3780 O.2    46  ASN46      -0.2867
     76  CB        15.1280   23.0360    8.1060 C.3    46  ASN46       0.1155
     77  CG        15.9450   22.8140    6.8190 C.2    46  ASN46       0.2627
     78  OD1       17.1680   22.7600    6.8240 O.2    46  ASN46      -0.2716
     79  ND2       15.2380   22.6310    5.6980 N.am   46  ASN46      -0.0877
     80  N         11.4720   17.1920   -2.7770 N.3   123  SER123     -0.1217
     81  CA        10.4570   18.0740   -2.2310 C.3   123  SER123      0.1889
     82  C          9.0040   17.5250   -2.1210 C.2   123  SER123      0.2288
     83  O          8.0700   18.3560   -1.9640 O.2   123  SER123     -0.2866
     84  CB        10.4990   19.4510   -2.8760 C.3   123  SER123      0.2089
     85  OG        11.6970   20.1680   -2.5280 O.3   123  SER123     -0.2183
@<TRIPOS>BOND
     1    84    85    1
     2    84    81    1
     3    80    81    1
     4    81    82    1
     5    82    83    2
     6    51    49   ar
     7    51    50   ar
     8    49    47   ar
     9    50    48   ar
    10    47    48   ar
    11    47    46    1
    12    43    44    1
    13    43    46    1
    14    43    42    1
    15    44    45    2
    16    41    39    1
    17    40    38    1
    18    38    39    1
    19    38    35    1
    20    15    13    1
    21    53    56    1
    22    53    52    1
    23    53    54    1
    24    55    54    2
    25    14    13    1
    26    56    57    1
    27    35    36    1
    28    35    34    1
    29    36    37    2
    30    13    10    1
    31    17    16    1
    32    17    18    1
    33    16    11   am
    34     8     6   ar
    35    10    11    1
    36    10     9    1
    37    71    70    1
    38     6     7   ar
    39     6     5    1
    40    57    59   am
    41    57    58    2
    42    11    12    2
    43    69    70   ar
    44    69    67   ar
    45     5     2    1
    46    70    68   ar
    47    18    19    2
    48    18    20   am
    49    33    31   am
    50    67    65   ar
    51     4     3    2
    52    79    77   am
    53    20    21    1
    54     2     3    1
    55     2     1    1
    56    68    66   ar
    57    31    30    1
    58    31    32    2
    59    30    27    1
    60    65    66   ar
    61    65    64    1
    62    77    78    2
    63    77    76    1
    64    25    24    1
    65    26    27    1
    66    26    22   am
    67    21    24    1
    68    21    22    1
    69    27    28    1
    70    64    61    1
    71    60    61    1
    72    22    23    2
    73    76    73    1
    74    75    74    2
    75    61    62    1
    76    28    29    2
    77    74    73    1
    78    73    72    1
    79    63    62    2
