@<TRIPOS>MOLECULE
tmp/3nbfA00.pdb
 125 120 0 0 0
SMALL
GASTEIGER

@<TRIPOS>ATOM
      1  N        -34.6110  -10.6610   -9.1700 N.3     3  PHE3       -0.1241
      2  CA       -34.9670   -9.4100   -8.5110 C.3     3  PHE3        0.1605
      3  C        -34.4640   -9.3320   -7.0780 C.2     3  PHE3        0.2264
      4  O        -34.0310   -8.2620   -6.6290 O.2     3  PHE3       -0.2867
      5  CB       -36.4680   -9.1350   -8.6140 C.3     3  PHE3        0.0534
      6  CG       -36.8850   -8.7080  -10.0000 C.ar    3  PHE3       -0.0203
      7  CD1      -36.4380   -7.4970  -10.5250 C.ar    3  PHE3       -0.0042
      8  CD2      -37.6610   -9.5310  -10.7990 C.ar    3  PHE3       -0.0042
      9  CE1      -36.7860   -7.1080  -11.8170 C.ar    3  PHE3       -0.0003
     10  CE2      -38.0100   -9.1300  -12.1010 C.ar    3  PHE3       -0.0003
     11  CZ       -37.5750   -7.9240  -12.5880 C.ar    3  PHE3       -0.0000
     12  N        -44.9310  -13.5770   -8.6270 N.3    20  GLY20      -0.1210
     13  CA       -44.0990  -14.4860   -9.3990 C.3    20  GLY20       0.1956
     14  C        -43.1910  -13.7680  -10.3900 C.2    20  GLY20       0.2612
     15  O        -42.7080  -14.3650  -11.3540 O.2    20  GLY20      -0.2717
     16  N        -42.9730  -12.4760  -10.1700 N.am   21  LEU21      -0.1965
     17  CA       -41.9360  -11.7540  -10.9070 C.3    21  LEU21       0.1728
     18  C        -40.5880  -12.0470  -10.2660 C.2    21  LEU21       0.2617
     19  O        -40.2760  -11.5160   -9.2010 O.2    21  LEU21      -0.2715
     20  CB       -42.2030  -10.2530  -10.8980 C.3    21  LEU21       0.0311
     21  CG       -43.4850   -9.8220  -11.6060 C.3    21  LEU21       0.0022
     22  CD1      -43.7580   -8.3600  -11.3430 C.3    21  LEU21       0.0001
     23  CD2      -43.3940  -10.0960  -13.0950 C.3    21  LEU21       0.0001
     24  N        -39.7890  -12.8930  -10.9120 N.am   22  THR22      -0.1937
     25  CA       -38.5240  -13.3290  -10.3380 C.3    22  THR22       0.2028
     26  C        -37.2980  -12.9110  -11.1420 C.2    22  THR22       0.2643
     27  O        -36.2230  -12.6770  -10.5800 O.2    22  THR22      -0.2714
     28  CB       -38.4740  -14.8550  -10.2550 C.3    22  THR22       0.1808
     29  OG1      -38.3980  -15.3880  -11.5810 O.3    22  THR22      -0.2208
     30  CG2      -39.7190  -15.3930   -9.5710 C.3    22  THR22       0.0379
     31  N        -37.4670  -12.8420  -12.4600 N.am   23  THR23      -0.1937
     32  CA       -36.3470  -12.7670  -13.3900 C.3    23  THR23       0.2013
     33  C        -36.4240  -11.5210  -14.2870 C.2    23  THR23       0.2484
     34  O        -37.3330  -11.4020  -15.1170 O.2    23  THR23      -0.2729
     35  CB       -36.3230  -14.0280  -14.2850 C.3    23  THR23       0.1807
     36  OG1      -36.4440  -15.2040  -13.4670 O.3    23  THR23      -0.2208
     37  CG2      -35.0330  -14.0990  -15.0940 C.3    23  THR23       0.0379
     38  N        -35.4820  -10.5750  -14.1150 N.am   24  PRO24      -0.2715
     39  CA       -35.4940   -9.4110  -15.0170 C.3    24  PRO24       0.1536
     40  C        -35.1830   -9.8370  -16.4460 C.2    24  PRO24       0.2599
     41  O        -34.3620  -10.7180  -16.6470 O.2    24  PRO24      -0.2715
     42  CB       -34.3620   -8.5300  -14.4760 C.3    24  PRO24       0.0310
     43  CG       -33.5110   -9.4340  -13.6480 C.3    24  PRO24       0.0237
     44  CD       -34.4640  -10.4470  -13.0620 C.3    24  PRO24       0.0939
     45  N        -35.8390   -9.2320  -17.4280 N.am   25  THR25      -0.1951
     46  CA       -35.4900   -9.4820  -18.8160 C.3    25  THR25       0.1897
     47  C        -34.0650   -8.9530  -19.0420 C.2    25  THR25       0.2313
     48  O        -33.5140   -8.2710  -18.1820 O.2    25  THR25      -0.2863
     49  CB       -36.4380   -8.7230  -19.7090 C.3    25  THR25       0.1794
     50  OG1      -36.2700   -7.3270  -19.4580 O.3    25  THR25      -0.2208
     51  CG2      -37.8880   -9.0950  -19.3880 C.3    25  THR25       0.0378
     52  N        -33.7890   -5.2160  -18.5210 N.3    28  GLU28      -0.1245
     53  CA       -33.9720   -4.8940  -17.1030 C.3    28  GLU28       0.1567
     54  C        -32.7170   -5.2480  -16.3070 C.2    28  GLU28       0.2260
     55  O        -32.2500   -4.4650  -15.4830 O.2    28  GLU28      -0.2867
     56  CB       -35.2220   -5.5710  -16.5230 C.3    28  GLU28       0.0388
     57  CG       -36.5050   -5.0840  -17.1650 C.3    28  GLU28       0.1160
     58  CD       -37.7020   -5.9560  -16.8380 C.2    28  GLU28       0.3649
     59  OE1      -37.5010   -7.1270  -16.4390 O.co2  28  GLU28      -0.2457
     60  OE2      -38.8420   -5.4650  -16.9830 O.co2  28  GLU28      -0.2457
     61  N        -41.6000   -3.4520  -27.6430 N.3    48  GLY48      -0.1210
     62  CA       -42.6450   -4.1850  -26.9510 C.3    48  GLY48       0.1956
     63  C        -42.1880   -5.1810  -25.9000 C.2    48  GLY48       0.2613
     64  O        -42.9090   -5.4190  -24.9200 O.2    48  GLY48      -0.2717
     65  N        -41.0100   -5.7780  -26.0910 N.am   49  THR49      -0.1938
     66  CA       -40.5300   -6.7800  -25.1340 C.3    49  THR49       0.2028
     67  C        -40.4980   -6.1790  -23.7380 C.2    49  THR49       0.2643
     68  O        -40.5700   -4.9580  -23.5810 O.2    49  THR49      -0.2714
     69  CB       -39.1450   -7.3560  -25.4890 C.3    49  THR49       0.1808
     70  OG1      -38.1190   -6.4090  -25.1620 O.3    49  THR49      -0.2208
     71  CG2      -39.0860   -7.7080  -26.9610 C.3    49  THR49       0.0379
     72  N        -40.3930   -7.0380  -22.7300 N.am   50  GLY50      -0.1939
     73  CA       -40.5840   -6.6130  -21.3580 C.3    50  GLY50       0.2014
     74  C        -39.4480   -5.7510  -20.8640 C.2    50  GLY50       0.2639
     75  O        -38.2760   -6.1180  -20.9840 O.2    50  GLY50      -0.2714
     76  N        -39.7830   -4.5460  -20.4420 N.am   51  LYS51      -0.1963
     77  CA       -38.8090   -3.6420  -19.8700 C.3    51  LYS51       0.1728
     78  C        -39.4230   -2.7580  -18.7970 C.2    51  LYS51       0.2617
     79  O        -38.7880   -1.8310  -18.3310 O.2    51  LYS51      -0.2715
     80  CB       -38.2240   -2.7750  -20.9740 C.3    51  LYS51       0.0311
     81  CG       -39.2000   -1.7700  -21.5050 C.3    51  LYS51       0.0038
     82  CD       -39.1030   -1.6300  -22.9970 C.3    51  LYS51       0.0206
     83  CE       -40.1170   -0.6310  -23.4920 C.3    51  LYS51       0.1093
     84  NZ       -40.3260   -0.7360  -24.9580 N.3    51  LYS51      -0.1314
     85  N        -40.6620   -3.0320  -18.4140 N.am   52  THR52      -0.1937
     86  CA       -41.3630   -2.1040  -17.5400 C.3    52  THR52       0.2028
     87  C        -40.7010   -1.9670  -16.1750 C.2    52  THR52       0.2642
     88  O        -40.6630   -0.8770  -15.5980 O.2    52  THR52      -0.2714
     89  CB       -42.8710   -2.4560  -17.4060 C.3    52  THR52       0.1808
     90  OG1      -43.4930   -2.3420  -18.6940 O.3    52  THR52      -0.2208
     91  CG2      -43.5530   -1.4970  -16.4470 C.3    52  THR52       0.0379
     92  N        -40.1650   -3.0620  -15.6580 N.am   53  LEU53      -0.1977
     93  CA       -39.5590   -3.0240  -14.3300 C.3    53  LEU53       0.1596
     94  C        -38.2510   -2.2400  -14.3150 C.2    53  LEU53       0.2287
     95  O        -37.7830   -1.8610  -13.2520 O.2    53  LEU53      -0.2864
     96  CB       -39.3620   -4.4360  -13.7750 C.3    53  LEU53       0.0297
     97  CG       -40.6950   -5.1870  -13.6200 C.3    53  LEU53       0.0022
     98  CD1      -40.4730   -6.5650  -13.0700 C.3    53  LEU53       0.0001
     99  CD2      -41.6500   -4.4080  -12.7150 C.3    53  LEU53       0.0001
    100  N        -50.8560    1.1850  -23.6890 N.3    84  LEU84      -0.1245
    101  CA       -49.5810    1.0780  -22.9840 C.3    84  LEU84       0.1561
    102  C        -49.5800    1.8940  -21.6840 C.2    84  LEU84       0.2260
    103  O        -49.0510    1.4390  -20.6580 O.2    84  LEU84      -0.2867
    104  CB       -48.3980    1.4460  -23.8930 C.3    84  LEU84       0.0270
    105  CG       -47.0260    1.1290  -23.3080 C.3    84  LEU84       0.0019
    106  CD1      -46.8830   -0.3890  -23.0960 C.3    84  LEU84       0.0001
    107  CD2      -45.9100    1.6740  -24.2080 C.3    84  LEU84       0.0001
    108  N        -51.4630   -0.4580  -19.2120 N.3    87  GLN87      -0.1245
    109  CA       -50.5890   -1.5490  -18.8030 C.3    87  GLN87       0.1566
    110  C        -49.5360   -1.1230  -17.7870 C.2    87  GLN87       0.2260
    111  O        -49.3790   -1.7470  -16.7280 O.2    87  GLN87      -0.2867
    112  CB       -49.8800   -2.1450  -20.0130 C.3    87  GLN87       0.0367
    113  CG       -50.7070   -3.0920  -20.8230 C.3    87  GLN87       0.0905
    114  CD       -49.8550   -3.8130  -21.8360 C.2    87  GLN87       0.2608
    115  OE1      -49.7330   -5.0370  -21.8070 O.2    87  GLN87      -0.2717
    116  NE2      -49.2290   -3.0540  -22.7220 N.am   87  GLN87      -0.0878
    117  N        -48.9670   -2.0690  -13.7250 N.3    91  GLU91      -0.1245
    118  CA       -47.6930   -2.6530  -13.3170 C.3    91  GLU91       0.1567
    119  C        -47.0080   -1.8380  -12.2250 C.2    91  GLU91       0.2260
    120  O        -46.5950   -2.3790  -11.1880 O.2    91  GLU91      -0.2867
    121  CB       -46.7620   -2.7570  -14.5170 C.3    91  GLU91       0.0388
    122  CG       -45.7980   -3.9010  -14.4420 C.3    91  GLU91       0.1160
    123  CD       -46.4660   -5.2080  -14.7900 C.2    91  GLU91       0.3649
    124  OE1      -46.4880   -6.1070  -13.9230 O.co2  91  GLU91      -0.2457
    125  OE2      -46.9770   -5.3260  -15.9280 O.co2  91  GLU91      -0.2457
@<TRIPOS>BOND
     1    61    62    1
     2    71    69    1
     3    62    63    1
     4    65    63   am
     5    65    66    1
     6    63    64    2
     7    69    70    1
     8    69    66    1
     9    66    67    1
    10    84    83    1
    11   107   105    1
    12   104   105    1
    13   104   101    1
    14    67    68    2
    15    67    72   am
    16   100   101    1
    17    83    82    1
    18   105   106    1
    19    82    81    1
    20   101   102    1
    21    72    73    1
    22   116   114   am
    23   114   115    2
    24   114   113    1
    25   102   103    2
    26    81    80    1
    27    73    74    1
    28    75    74    2
    29    80    77    1
    30    74    76   am
    31   113   112    1
    32    76    77    1
    33   112   109    1
    34    77    78    1
    35    49    50    1
    36    49    51    1
    37    49    46    1
    38   108   109    1
    39    47    46    1
    40    47    48    2
    41    46    45    1
    42   109   110    1
    43    78    85   am
    44    78    79    2
    45    90    89    1
    46    52    53    1
    47    85    86    1
    48   110   111    2
    49    86    89    1
    50    86    87    1
    51    45    40   am
    52    89    91    1
    53    57    58    1
    54    57    56    1
    55    53    56    1
    56    53    54    1
    57    60    58   ar
    58    58    59   ar
    59    41    40    2
    60    40    39    1
    61    54    55    2
    62    87    92   am
    63    87    88    2
    64   125   123   ar
    65    92    93    1
    66    34    33    2
    67    37    35    1
    68    39    42    1
    69    39    38    1
    70   123   122    1
    71   123   124   ar
    72   121   122    1
    73   121   118    1
    74    42    43    1
    75    93    94    1
    76    93    96    1
    77    94    95    2
    78    33    38   am
    79    33    32    1
    80    35    36    1
    81    35    32    1
    82    38    44    1
    83    96    97    1
    84   117   118    1
    85    43    44    1
    86    97    98    1
    87    97    99    1
    88    32    31    1
    89   118   119    1
    90    23    21    1
    91    11    10   ar
    92    11     9   ar
    93    31    26   am
    94   119   120    2
    95    10     8   ar
    96     9     7   ar
    97    21    22    1
    98    21    20    1
    99    29    28    1
   100    15    14    2
   101    26    27    2
   102    26    25    1
   103    24    25    1
   104    24    18   am
   105    17    20    1
   106    17    18    1
   107    17    16    1
   108     8     6   ar
   109     7     6   ar
   110    14    16   am
   111    14    13    1
   112    25    28    1
   113    18    19    2
   114    28    30    1
   115     6     5    1
   116    13    12    1
   117     1     2    1
   118     5     2    1
   119     2     3    1
   120     3     4    2
