@<TRIPOS>MOLECULE
tmp/3nbfA01.pdb
 103 98 0 0 0
SMALL
GASTEIGER

@<TRIPOS>ATOM
      1  N        -46.6460    6.0230  -25.8290 N.3    80  PRO80      -0.2102
      2  CA       -47.2650    6.4020  -27.1050 C.3    80  PRO80       0.1504
      3  C        -48.7650    6.0860  -27.2000 C.2    80  PRO80       0.2576
      4  O        -49.5060    6.8450  -27.8220 O.2    80  PRO80      -0.2718
      5  CB       -46.4690    5.5880  -28.1330 C.3    80  PRO80       0.0282
      6  CG       -45.8550    4.4700  -27.3570 C.3    80  PRO80       0.0208
      7  CD       -45.5900    5.0110  -25.9930 C.3    80  PRO80       0.0893
      8  N        -49.2100    4.9940  -26.5870 N.am   81  THR81      -0.1939
      9  CA       -50.6050    4.5650  -26.7300 C.3    81  THR81       0.2028
     10  C        -51.3660    4.5090  -25.4090 C.2    81  THR81       0.2642
     11  O        -50.7630    4.3710  -24.3440 O.2    81  THR81      -0.2714
     12  CB       -50.6690    3.1760  -27.3750 C.3    81  THR81       0.1808
     13  OG1      -50.0190    2.2240  -26.5150 O.3    81  THR81      -0.2208
     14  CG2      -49.9700    3.2000  -28.7440 C.3    81  THR81       0.0379
     15  N        -52.6970    4.6090  -25.4920 N.am   82  ARG82      -0.1963
     16  CA       -53.5580    4.4830  -24.3280 C.3    82  ARG82       0.1729
     17  C        -53.4040    3.1040  -23.6730 C.2    82  ARG82       0.2616
     18  O        -53.2970    2.9930  -22.4400 O.2    82  ARG82      -0.2715
     19  CB       -55.0110    4.7240  -24.7370 C.3    82  ARG82       0.0348
     20  CG       -55.2480    6.0980  -25.3420 C.3    82  ARG82       0.0492
     21  CD       -56.6570    6.1920  -25.9420 C.3    82  ARG82       0.2205
     22  NE       -56.8570    7.4410  -26.6610 N.pl3  82  ARG82      -0.0865
     23  CZ       -57.8260    7.6470  -27.5490 C.cat  82  ARG82       0.5346
     24  NH1      -57.9320    8.8200  -28.1570 N.pl3  82  ARG82       0.1354
     25  NH2      -58.6840    6.6790  -27.8430 N.pl3  82  ARG82       0.1354
     26  N        -53.3710    2.0530  -24.4910 N.am   83  GLU83      -0.1977
     27  CA       -53.2410    0.7060  -23.9420 C.3    83  GLU83       0.1602
     28  C        -51.9140    0.5240  -23.2200 C.2    83  GLU83       0.2287
     29  O        -51.8480   -0.1880  -22.2270 O.2    83  GLU83      -0.2864
     30  CB       -53.4990   -0.3970  -24.9910 C.3    83  GLU83       0.0415
     31  CG       -52.5300   -0.4630  -26.1710 C.3    83  GLU83       0.1163
     32  CD       -52.9790    0.3750  -27.3630 C.2    83  GLU83       0.3649
     33  OE1      -53.5910    1.4560  -27.1570 O.co2  83  GLU83      -0.2457
     34  OE2      -52.7080   -0.0480  -28.5130 O.co2  83  GLU83      -0.2457
     35  N        -56.0240    9.6380  -23.4650 N.3   106  GLY106     -0.1210
     36  CA       -57.1550   10.1570  -24.2110 C.3   106  GLY106      0.1956
     37  C        -58.2880    9.1650  -24.3990 C.2   106  GLY106      0.2612
     38  O        -58.2260    8.0240  -23.9260 O.2   106  GLY106     -0.2717
     39  N        -59.3350    9.6200  -25.0850 N.am  107  GLY107     -0.1956
     40  CA       -60.4350    8.7680  -25.4960 C.3   107  GLY107      0.1869
     41  C        -61.5320    8.5520  -24.4750 C.2   107  GLY107      0.2309
     42  O        -62.5570    7.9520  -24.7880 O.2   107  GLY107     -0.2863
     43  N        -62.3460   12.8700  -19.2660 N.3   110  TYR110     -0.1241
     44  CA       -61.6310   14.1040  -18.9460 C.3   110  TYR110      0.1605
     45  C        -61.7270   14.4450  -17.4620 C.2   110  TYR110      0.2264
     46  O        -60.7320   14.7880  -16.8310 O.2   110  TYR110     -0.2867
     47  CB       -62.1910   15.2740  -19.7520 C.3   110  TYR110      0.0534
     48  CG       -61.5100   15.5070  -21.0760 C.ar  110  TYR110     -0.0201
     49  CD1      -61.8110   14.7180  -22.1800 C.ar  110  TYR110     -0.0009
     50  CD2      -60.5810   16.5300  -21.2300 C.ar  110  TYR110     -0.0009
     51  CE1      -61.1960   14.9330  -23.4020 C.ar  110  TYR110      0.0417
     52  CE2      -59.9590   16.7540  -22.4490 C.ar  110  TYR110      0.0417
     53  CZ       -60.2700   15.9500  -23.5310 C.ar  110  TYR110      0.1957
     54  OH       -59.6570   16.1620  -24.7460 O.3   110  TYR110     -0.2866
     55  N        -50.2080    9.4130  -21.8890 N.3   127  THR127     -0.1218
     56  CA       -50.0190    9.6060  -23.3230 C.3   127  THR127      0.1862
     57  C        -49.8150   11.1080  -23.5280 C.2   127  THR127      0.2287
     58  O        -50.3390   11.9100  -22.7630 O.2   127  THR127     -0.2866
     59  CB       -51.2090    9.0850  -24.1350 C.3   127  THR127      0.1770
     60  OG1      -52.4190    9.6580  -23.6310 O.3   127  THR127     -0.2211
     61  CG2      -51.3080    7.5650  -24.0010 C.3   127  THR127      0.0375
     62  N        -50.6120   13.4760  -25.7720 N.3   129  GLY129     -0.1210
     63  CA       -51.6970   14.3620  -26.1530 C.3   129  GLY129      0.1956
     64  C        -52.5360   14.7670  -24.9560 C.2   129  GLY129      0.2611
     65  O        -52.6190   15.9380  -24.6110 O.2   129  GLY129     -0.2717
     66  N        -53.1630   13.7870  -24.3180 N.am  130  ARG130     -0.1979
     67  CA       -53.9460   14.0510  -23.1160 C.3   130  ARG130      0.1597
     68  C        -53.1210   14.7990  -22.0610 C.2   130  ARG130      0.2287
     69  O        -53.5870   15.7830  -21.5060 O.2   130  ARG130     -0.2864
     70  CB       -54.5340   12.7500  -22.5550 C.3   130  ARG130      0.0334
     71  CG       -55.3390   12.9190  -21.2850 C.3   130  ARG130      0.0492
     72  CD       -56.3970   14.0210  -21.4200 C.3   130  ARG130      0.2205
     73  NE       -57.5200   13.6190  -22.2560 N.pl3 130  ARG130     -0.0865
     74  CZ       -58.5230   12.8510  -21.8390 C.cat 130  ARG130      0.5346
     75  NH1      -58.5320   12.3830  -20.5960 N.pl3 130  ARG130      0.1354
     76  NH2      -59.5150   12.5370  -22.6700 N.pl3 130  ARG130      0.1354
     77  N        -52.7380   18.4570  -22.8020 N.3   133  ASP133     -0.1239
     78  CA       -54.0220   19.0970  -22.5220 C.3   133  ASP133      0.1674
     79  C        -54.0450   19.5210  -21.0650 C.2   133  ASP133      0.2266
     80  O        -54.2860   20.6820  -20.7570 O.2   133  ASP133     -0.2867
     81  CB       -55.2010   18.1520  -22.7920 C.3   133  ASP133      0.1410
     82  CG       -55.5490   18.0410  -24.2680 C.2   133  ASP133      0.3668
     83  OD1      -54.7870   18.5710  -25.1050 O.co2 133  ASP133     -0.2456
     84  OD2      -56.5870   17.4190  -24.5900 O.co2 133  ASP133     -0.2456
     85  N        -46.0990    8.2170  -33.8200 N.3   159  MET159     -0.1245
     86  CA       -47.4750    8.6490  -33.5390 C.3   159  MET159      0.1570
     87  C        -47.6890   10.1730  -33.5840 C.2   159  MET159      0.2261
     88  O        -48.7920   10.6580  -33.3290 O.2   159  MET159     -0.2867
     89  CB       -47.9500    8.0960  -32.1840 C.3   159  MET159      0.0387
     90  CG       -48.0550    6.5780  -32.1340 C.3   159  MET159      0.0595
     91  SD       -49.7660    6.0080  -32.0860 S.3   159  MET159     -0.1393
     92  CE       -49.5300    4.2310  -32.0990 C.3   159  MET159      0.0692
     93  N        -46.0970   12.6810  -31.7280 N.3   161  PHE161     -0.1241
     94  CA       -46.0360   13.4000  -30.4500 C.3   161  PHE161      0.1605
     95  C        -44.6660   14.0120  -30.1810 C.2   161  PHE161      0.2264
     96  O        -44.3280   14.3090  -29.0380 O.2   161  PHE161     -0.2867
     97  CB       -46.4040   12.4840  -29.2810 C.3   161  PHE161      0.0534
     98  CG       -47.8300   12.0270  -29.2860 C.ar  161  PHE161     -0.0203
     99  CD1      -48.8670   12.9430  -29.3860 C.ar  161  PHE161     -0.0042
    100  CD2      -48.1380   10.6770  -29.1600 C.ar  161  PHE161     -0.0042
    101  CE1      -50.1800   12.5230  -29.3790 C.ar  161  PHE161     -0.0003
    102  CE2      -49.4460   10.2480  -29.1440 C.ar  161  PHE161     -0.0003
    103  CZ       -50.4720   11.1700  -29.2570 C.ar  161  PHE161     -0.0000
@<TRIPOS>BOND
     1    85    86    1
     2    87    86    1
     3    87    88    2
     4    86    89    1
     5    89    90    1
     6    90    91    1
     7    92    91    1
     8    93    94    1
     9    94    95    1
    10    94    97    1
    11    95    96    2
    12    99   101   ar
    13    99    98   ar
    14   101   103   ar
    15    98    97    1
    16    98   100   ar
    17   103   102   ar
    18   100   102   ar
    19    14    12    1
    20    34    32   ar
    21    24    23    1
    22     5     6    1
    23     5     2    1
    24    25    23    1
    25     4     3    2
    26    23    22    2
    27    12     9    1
    28    12    13    1
    29    32    33   ar
    30    32    31    1
    31     6     7    1
    32     3     2    1
    33     3     8   am
    34     2     1    1
    35     9     8    1
    36     9    10    1
    37    22    21    1
    38    31    30    1
    39    63    62    1
    40    63    64    1
    41     7     1    1
    42    21    20    1
    43    40    39    1
    44    40    41    1
    45    15    10   am
    46    15    16    1
    47    10    11    2
    48    20    19    1
    49    83    82   ar
    50    39    37   am
    51    30    27    1
    52    64    65    2
    53    64    66   am
    54    42    41    2
    55    54    53    1
    56    19    16    1
    57    84    82   ar
    58    26    27    1
    59    26    17   am
    60    37    36    1
    61    37    38    2
    62    16    17    1
    63    66    67    1
    64    82    81    1
    65    36    35    1
    66    59    61    1
    67    59    60    1
    68    59    56    1
    69    27    28    1
    70    17    18    2
    71    53    51   ar
    72    53    52   ar
    73    57    56    1
    74    57    58    2
    75    51    49   ar
    76    56    55    1
    77    28    29    2
    78    67    70    1
    79    67    68    1
    80    77    78    1
    81    81    78    1
    82    76    74    1
    83    70    71    1
    84    78    79    1
    85    52    50   ar
    86    73    74    2
    87    73    72    1
    88    49    48   ar
    89    68    69    2
    90    74    75    1
    91    72    71    1
    92    50    48   ar
    93    48    47    1
    94    79    80    2
    95    47    44    1
    96    43    44    1
    97    44    45    1
    98    45    46    2
