@<TRIPOS>MOLECULE
tmp/3nbkD00.pdb
 144 137 0 0 0
SMALL
GASTEIGER

@<TRIPOS>ATOM
      1  N         60.2530   12.7940   62.6930 N.3    13  PRO13      -0.2102
      2  CA        60.3790   13.4110   64.0110 C.3    13  PRO13       0.1504
      3  C         59.3070   14.4540   64.2760 C.2    13  PRO13       0.2576
      4  O         58.8150   15.0960   63.3360 O.2    13  PRO13      -0.2718
      5  CB        61.7550   14.0790   63.9420 C.3    13  PRO13       0.0282
      6  CG        61.8820   14.4920   62.4910 C.3    13  PRO13       0.0208
      7  CD        61.0820   13.4800   61.6780 C.3    13  PRO13       0.0893
      8  N         58.9510   14.6260   65.5460 N.am   14  GLY14      -0.1943
      9  CA        57.9920   15.6530   65.9290 C.3    14  GLY14       0.2014
     10  C         57.5910   15.5950   67.3840 C.2    14  GLY14       0.2640
     11  O         57.9820   14.6770   68.1060 O.2    14  GLY14      -0.2714
     12  N         56.8120   16.5820   67.8170 N.am   15  SER15      -0.1935
     13  CA        56.2840   16.6020   69.1750 C.3    15  SER15       0.2055
     14  C         54.9460   15.8610   69.2680 C.2    15  SER15       0.2643
     15  O         54.5590   15.4010   70.3430 O.2    15  SER15      -0.2714
     16  CB        56.1510   18.0420   69.6850 C.3    15  SER15       0.2130
     17  OG        55.4850   18.8600   68.7380 O.3    15  SER15      -0.2179
     18  N         54.2350   15.7660   68.1400 N.am   16  PHE16      -0.1973
     19  CA        52.9590   15.0460   68.0440 C.3    16  PHE16       0.1639
     20  C         52.0200   15.2570   69.2280 C.2    16  PHE16       0.2290
     21  O         51.6230   14.3130   69.9120 O.2    16  PHE16      -0.2864
     22  CB        53.2120   13.5560   67.7570 C.3    16  PHE16       0.0560
     23  CG        54.0840   13.3310   66.5600 C.ar   16  PHE16      -0.0200
     24  CD1       53.6050   13.6050   65.2720 C.ar   16  PHE16      -0.0042
     25  CD2       55.4000   12.8880   66.7070 C.ar   16  PHE16      -0.0042
     26  CE1       54.4080   13.4290   64.1560 C.ar   16  PHE16      -0.0003
     27  CE2       56.2140   12.6990   65.6040 C.ar   16  PHE16      -0.0003
     28  CZ        55.7210   12.9680   64.3030 C.ar   16  PHE16      -0.0000
     29  N         49.7730   14.2540   59.9330 N.3    23  HIS23      -0.1241
     30  CA        50.9260   13.4300   60.2990 C.3    23  HIS23       0.1621
     31  C         50.7880   12.0050   59.7760 C.2    23  HIS23       0.2264
     32  O         51.7390   11.4650   59.2220 O.2    23  HIS23      -0.2867
     33  CB        51.1100   13.3820   61.8190 C.3    23  HIS23       0.0745
     34  CG        51.4640   14.6980   62.4340 C.ar   23  HIS23       0.0817
     35  ND1       50.8080   15.2010   63.5360 N.ar   23  HIS23      -0.2268
     36  CD2       52.4060   15.6160   62.1030 C.ar   23  HIS23       0.1154
     37  CE1       51.3400   16.3660   63.8690 C.ar   23  HIS23       0.1986
     38  NE2       52.3040   16.6460   63.0100 N.ar   23  HIS23      -0.2212
     39  N         59.8990   13.6480   70.0040 N.3    42  LEU42      -0.1245
     40  CA        60.8900   14.4890   70.6550 C.3    42  LEU42       0.1561
     41  C         60.1600   15.6170   71.3790 C.2    42  LEU42       0.2260
     42  O         59.6810   16.5620   70.7430 O.2    42  LEU42      -0.2867
     43  CB        61.8660   15.0360   69.6100 C.3    42  LEU42       0.0270
     44  CG        62.8240   14.0050   69.0080 C.3    42  LEU42       0.0019
     45  CD1       62.9120   14.0940   67.4950 C.3    42  LEU42       0.0001
     46  CD2       64.2040   14.1310   69.6370 C.3    42  LEU42       0.0001
     47  N         59.6740   18.8390   73.9990 N.3    44  ASN44      -0.1240
     48  CA        60.4270   20.0400   74.3400 C.3    44  ASN44       0.1653
     49  C         60.4890   20.2740   75.8460 C.2    44  ASN44       0.2266
     50  O         59.4850   20.1410   76.5470 O.2    44  ASN44      -0.2867
     51  CB        59.8300   21.2630   73.6420 C.3    44  ASN44       0.1155
     52  CG        60.8920   22.1820   73.0690 C.2    44  ASN44       0.2627
     53  OD1       61.4220   23.0470   73.7660 O.2    44  ASN44      -0.2716
     54  ND2       61.2070   21.9990   71.7920 N.am   44  ASN44      -0.0877
     55  N         58.3750   23.9430   76.0070 N.3    47  LYS47      -0.1245
     56  CA        56.9530   24.0790   75.8900 C.3    47  LYS47       0.1561
     57  C         56.4440   22.8620   76.5680 C.2    47  LYS47       0.2260
     58  O         56.8460   21.7910   76.2140 O.2    47  LYS47      -0.2867
     59  CB        56.5110   24.0070   74.4350 C.3    47  LYS47       0.0271
     60  CG        57.0960   22.9270   73.5380 C.3    47  LYS47       0.0035
     61  CD        56.5370   23.1850   72.1380 C.3    47  LYS47       0.0206
     62  CE        57.0690   22.3040   71.0340 C.3    47  LYS47       0.1093
     63  NZ        56.5870   20.8800   71.1100 N.3    47  LYS47      -0.1314
     64  N         67.8100   13.6850   72.0310 N.3    77  GLY77      -0.1210
     65  CA        68.8340   14.6500   71.6280 C.3    77  GLY77       0.1956
     66  C         68.6200   15.1500   70.2150 C.2    77  GLY77       0.2612
     67  O         67.5130   15.5420   69.8460 O.2    77  GLY77      -0.2717
     68  N         69.6860   15.1250   69.4250 N.am   78  LEU78      -0.1965
     69  CA        69.6130   15.5420   68.0230 C.3    78  LEU78       0.1728
     70  C         68.8210   14.5210   67.2260 C.2    78  LEU78       0.2616
     71  O         69.0350   13.3080   67.3810 O.2    78  LEU78      -0.2715
     72  CB        71.0110   15.6430   67.4250 C.3    78  LEU78       0.0311
     73  CG        71.9060   16.7860   67.9100 C.3    78  LEU78       0.0022
     74  CD1       73.3090   16.5720   67.3890 C.3    78  LEU78       0.0001
     75  CD2       71.3490   18.1410   67.4800 C.3    78  LEU78       0.0001
     76  N         67.9390   15.0090   66.3560 N.am   79  VAL79      -0.1977
     77  CA        67.2670   14.1100   65.4050 C.3    79  VAL79       0.1596
     78  C         68.2600   13.2720   64.5970 C.2    79  VAL79       0.2287
     79  O         68.0190   12.0820   64.3730 O.2    79  VAL79      -0.2864
     80  CB        66.2270   14.8260   64.4820 C.3    79  VAL79       0.0276
     81  CG1       66.8770   15.8440   63.5690 C.3    79  VAL79       0.0022
     82  CG2       65.4460   13.7900   63.6350 C.3    79  VAL79       0.0022
     83  N         59.7610   14.7860   56.3300 N.3    93  LYS93      -0.1245
     84  CA        58.9750   15.8570   56.9410 C.3    93  LYS93       0.1561
     85  C         57.7980   16.2330   56.0530 C.2    93  LYS93       0.2260
     86  O         57.9550   16.4060   54.8350 O.2    93  LYS93      -0.2867
     87  CB        59.8440   17.1090   57.1670 C.3    93  LYS93       0.0271
     88  CG        61.0770   16.9280   58.0560 C.3    93  LYS93       0.0035
     89  CD        60.7340   16.4490   59.4690 C.3    93  LYS93       0.0206
     90  CE        60.1570   17.5330   60.3740 C.3    93  LYS93       0.1093
     91  NZ        61.1360   18.6550   60.5970 N.3    93  LYS93      -0.1314
     92  N         62.4150   27.6390   57.6250 N.3   103  TYR103     -0.1227
     93  CA        63.0530   27.0290   58.7730 C.3   103  TYR103      0.1736
     94  C         63.2720   25.5290   58.5760 C.2   103  TYR103      0.2595
     95  O         64.2970   24.9850   58.9860 O.2   103  TYR103     -0.2718
     96  CB        62.2770   27.2990   60.0580 C.3   103  TYR103      0.0548
     97  CG        63.0230   26.8260   61.2850 C.ar  103  TYR103     -0.0200
     98  CD1       64.3040   27.3100   61.5610 C.ar  103  TYR103     -0.0009
     99  CD2       62.4720   25.8880   62.1500 C.ar  103  TYR103     -0.0009
    100  CE1       65.0080   26.8850   62.6660 C.ar  103  TYR103      0.0417
    101  CE2       63.1790   25.4430   63.2740 C.ar  103  TYR103      0.0417
    102  CZ        64.4470   25.9580   63.5210 C.ar  103  TYR103      0.1957
    103  OH        65.1760   25.5530   64.6120 O.3   103  TYR103     -0.2866
    104  N         62.3100   24.8540   57.9520 N.am  104  GLU104     -0.1979
    105  CA        62.5240   23.4520   57.6070 C.3   104  GLU104      0.1602
    106  C         63.7460   23.3010   56.6940 C.2   104  GLU104      0.2287
    107  O         64.5330   22.3640   56.8540 O.2   104  GLU104     -0.2864
    108  CB        61.2870   22.8720   56.9120 C.3   104  GLU104      0.0415
    109  CG        60.0800   22.6850   57.8300 C.3   104  GLU104      0.1163
    110  CD        60.1330   21.4130   58.6680 C.2   104  GLU104      0.3649
    111  OE1       59.1800   21.1970   59.4390 O.co2 104  GLU104     -0.2457
    112  OE2       61.0880   20.6160   58.5560 O.co2 104  GLU104     -0.2457
    113  N         66.9150   23.7380   58.8430 N.3   107  MET107     -0.1245
    114  CA        67.1780   22.5170   59.6040 C.3   107  MET107      0.1570
    115  C         67.6870   21.3930   58.6950 C.2   107  MET107      0.2261
    116  O         68.5930   20.6400   59.0650 O.2   107  MET107     -0.2867
    117  CB        65.9330   22.0480   60.3590 C.3   107  MET107      0.0387
    118  CG        65.5490   22.9240   61.5340 C.3   107  MET107      0.0595
    119  SD        64.3690   22.0700   62.6110 S.3   107  MET107     -0.1393
    120  CE        62.9290   21.9560   61.5320 C.3   107  MET107      0.0692
    121  N         71.2520   22.0930   57.8710 N.3   110  MET110     -0.1230
    122  CA        72.0440   21.8780   59.0870 C.3   110  MET110      0.1702
    123  C         72.2230   20.3950   59.3940 C.2   110  MET110      0.2592
    124  O         73.3360   19.9490   59.6900 O.2   110  MET110     -0.2718
    125  CB        71.4220   22.5960   60.2920 C.3   110  MET110      0.0401
    126  CG        72.2330   22.4230   61.5840 C.3   110  MET110      0.0596
    127  SD        73.8650   23.2310   61.5630 S.3   110  MET110     -0.1393
    128  CE        73.3730   24.9260   61.8680 C.3   110  MET110      0.0692
    129  N         71.1310   19.6370   59.2960 N.am  111  ASN111     -0.1974
    130  CA        71.1680   18.1940   59.5530 C.3   111  ASN111      0.1688
    131  C         72.0630   17.4560   58.5600 C.2   111  ASN111      0.2292
    132  O         72.7990   16.5340   58.9420 O.2   111  ASN111     -0.2864
    133  CB        69.7400   17.6200   59.5800 C.3   111  ASN111      0.1181
    134  CG        69.0010   17.9740   60.8660 C.2   111  ASN111      0.2629
    135  OD1       69.6220   18.1920   61.9150 O.2   111  ASN111     -0.2716
    136  ND2       67.6760   18.0330   60.8020 N.am  111  ASN111     -0.0877
    137  N         75.8170   18.4310   59.6120 N.3   114  ILE114     -0.1245
    138  CA        76.3750   17.8720   60.8540 C.3   114  ILE114      0.1561
    139  C         76.4860   16.3460   60.8590 C.2   114  ILE114      0.2260
    140  O         77.3140   15.7900   61.5900 O.2   114  ILE114     -0.2867
    141  CB        75.6560   18.3920   62.1300 C.3   114  ILE114      0.0252
    142  CG1       74.2140   17.8810   62.2230 C.3   114  ILE114      0.0019
    143  CG2       75.7460   19.9170   62.2070 C.3   114  ILE114      0.0019
    144  CD1       73.4780   18.3320   63.4980 C.3   114  ILE114      0.0001
@<TRIPOS>BOND
     1    86    85    2
     2    85    84    1
     3    83    84    1
     4   106   107    2
     5   106   105    1
     6   108   105    1
     7   108   109    1
     8    84    87    1
     9    87    88    1
    10   105   104    1
    11    92    93    1
    12   109   110    1
    13   121   122    1
    14   104    94   am
    15    88    89    1
    16   112   110   ar
    17   131   132    2
    18   131   130    1
    19    94    93    1
    20    94    95    2
    21   110   111   ar
    22   115   116    2
    23   115   114    1
    24    93    96    1
    25   113   114    1
    26   122   123    1
    27   122   125    1
    28    32    31    2
    29   129   123   am
    30   129   130    1
    31   123   124    2
    32    89    90    1
    33   130   133    1
    34   133   134    1
    35   114   117    1
    36   137   138    1
    37    31    30    1
    38    29    30    1
    39    96    97    1
    40   125   126    1
    41    30    33    1
    42   117   118    1
    43    90    91    1
    44   136   134   am
    45   138   139    1
    46   138   141    1
    47   139   140    2
    48   134   135    2
    49    97    98   ar
    50    97    99   ar
    51   120   119    1
    52   118   119    1
    53    98   100   ar
    54   127   126    1
    55   127   128    1
    56     7     6    1
    57     7     1    1
    58    33    34    1
    59    36    34   ar
    60    36    38   ar
    61   141   143    1
    62   141   142    1
    63    99   101   ar
    64   142   144    1
    65    34    35   ar
    66     6     5    1
    67   100   102   ar
    68     1     2    1
    69    38    37   ar
    70   101   102   ar
    71     4     3    2
    72   102   103    1
    73    35    37   ar
    74    81    80    1
    75    82    80    1
    76     5     2    1
    77     2     3    1
    78    26    28   ar
    79    26    24   ar
    80     3     8   am
    81    28    27   ar
    82    79    78    2
    83    80    77    1
    84    78    77    1
    85    24    23   ar
    86    77    76    1
    87     8     9    1
    88    27    25   ar
    89     9    10    1
    90    76    70   am
    91    23    25   ar
    92    23    22    1
    93    70    71    2
    94    70    69    1
    95    10    12   am
    96    10    11    2
    97    74    73    1
    98    72    73    1
    99    72    69    1
   100    75    73    1
   101    45    44    1
   102    22    19    1
   103    12    13    1
   104    69    68    1
   105    19    18    1
   106    19    20    1
   107    18    14   am
   108    17    16    1
   109    44    43    1
   110    44    46    1
   111    13    14    1
   112    13    16    1
   113    20    21    2
   114    14    15    2
   115    68    66   am
   116    43    40    1
   117    67    66    2
   118    39    40    1
   119    66    65    1
   120    40    41    1
   121    42    41    2
   122    62    63    1
   123    62    61    1
   124    65    64    1
   125    54    52   am
   126    61    60    1
   127    52    51    1
   128    52    53    2
   129    60    59    1
   130    51    48    1
   131    47    48    1
   132    48    49    1
   133    59    56    1
   134    49    50    2
   135    56    55    1
   136    56    57    1
   137    58    57    2
