@<TRIPOS>MOLECULE
tmp/3nblA00.pdb
 129 120 0 0 0
SMALL
GASTEIGER

@<TRIPOS>ATOM
      1  N        -17.6610  -12.4790    3.9850 N.3    41  CYS41      -0.1221
      2  CA       -16.2050  -12.3770    4.0320 C.3    41  CYS41       0.1808
      3  C        -15.8220  -12.0370    5.4740 C.2    41  CYS41       0.2601
      4  O        -16.4550  -12.5450    6.4050 O.2    41  CYS41      -0.2717
      5  CB       -15.6870  -11.3700    2.9940 C.3    41  CYS41       0.0970
      6  SG       -16.2280  -11.7630    1.2840 S.3    41  CYS41      -0.0800
      7  N        -14.8270  -11.2030    5.6700 N.am   42  SER42      -0.1952
      8  CA       -14.3070  -10.9020    6.9670 C.3    42  SER42       0.1924
      9  C        -15.2360   -9.9940    7.8650 C.2    42  SER42       0.2314
     10  O        -14.8870   -9.7430    8.9680 O.2    42  SER42      -0.2863
     11  CB       -12.8320  -10.4190    6.9290 C.3    42  SER42       0.2116
     12  OG       -11.9260  -11.3480    6.4410 O.3    42  SER42      -0.2180
     13  N        -16.2760  -10.6800   11.6000 N.3    45  LYS45      -0.1245
     14  CA       -15.3230  -10.5420   12.7160 C.3    45  LYS45       0.1561
     15  C        -15.7000   -9.4710   13.7420 C.2    45  LYS45       0.2260
     16  O        -15.3370   -9.5780   14.9120 O.2    45  LYS45      -0.2867
     17  CB       -13.8930  -10.3130   12.1990 C.3    45  LYS45       0.0271
     18  CG       -13.3420  -11.5500   11.4840 C.3    45  LYS45       0.0035
     19  CD       -12.0960  -11.2490   10.6830 C.3    45  LYS45       0.0206
     20  CE       -11.8090  -12.4030    9.7320 C.3    45  LYS45       0.1093
     21  NZ       -10.5930  -12.1420    8.9120 N.3    45  LYS45      -0.1314
     22  N         -4.7540  -18.9920    6.3620 N.3    74  SER74      -0.1202
     23  CA        -5.3810  -17.8610    5.6730 C.3    74  SER74       0.2020
     24  C         -4.5850  -16.6010    5.9740 C.2    74  SER74       0.2618
     25  O         -3.6770  -16.6380    6.7980 O.2    74  SER74      -0.2717
     26  CB        -6.8280  -17.7010    6.1430 C.3    74  SER74       0.2103
     27  OG        -6.8790  -17.4530    7.5410 O.3    74  SER74      -0.2182
     28  N         -4.9270  -15.4920    5.3130 N.am   75  ILE75      -0.1979
     29  CA        -4.2240  -14.2220    5.5090 C.3    75  ILE75       0.1595
     30  C         -4.3300  -13.8220    6.9780 C.2    75  ILE75       0.2287
     31  O         -5.4390  -13.6570    7.5100 O.2    75  ILE75      -0.2864
     32  CB        -4.7480  -13.1000    4.5710 C.3    75  ILE75       0.0276
     33  CG1       -4.3790  -13.4110    3.1140 C.3    75  ILE75       0.0022
     34  CG2       -4.1850  -11.7220    4.9880 C.3    75  ILE75       0.0022
     35  CD1       -5.1590  -12.5930    2.0800 C.3    75  ILE75       0.0001
     36  N         -6.7790   -5.7850   11.5230 N.3    99  TYR99      -0.1227
     37  CA        -5.9670   -6.3440   10.4330 C.3    99  TYR99       0.1736
     38  C         -6.7090   -7.4450    9.6830 C.2    99  TYR99       0.2596
     39  O         -6.1520   -8.0840    8.7860 O.2    99  TYR99      -0.2718
     40  CB        -4.6180   -6.8550   10.9610 C.3    99  TYR99       0.0548
     41  CG        -3.6790   -5.7100   11.2970 C.ar   99  TYR99      -0.0200
     42  CD1       -3.5620   -5.2430   12.6040 C.ar   99  TYR99      -0.0009
     43  CD2       -2.9580   -5.0600   10.2930 C.ar   99  TYR99      -0.0009
     44  CE1       -2.7100   -4.1770   12.9170 C.ar   99  TYR99       0.0417
     45  CE2       -2.1090   -3.9880   10.5910 C.ar   99  TYR99       0.0417
     46  CZ        -1.9920   -3.5550   11.9060 C.ar   99  TYR99       0.1957
     47  OH        -1.1680   -2.4920   12.2110 O.3    99  TYR99      -0.2866
     48  N         -7.9720   -7.6450   10.0540 N.am  100  SER100     -0.1952
     49  CA        -8.8090   -8.6880    9.4760 C.3   100  SER100      0.1924
     50  C         -8.0660  -10.0250    9.4310 C.2   100  SER100      0.2314
     51  O         -8.0730  -10.7210    8.4130 O.2   100  SER100     -0.2863
     52  CB        -9.2800   -8.2840    8.0830 C.3   100  SER100      0.2116
     53  OG       -10.4380   -9.0120    7.7350 O.3   100  SER100     -0.2180
     54  N         -7.1400  -13.7190    9.7710 N.3   102  GLY102     -0.1225
     55  CA        -7.9320  -14.9380    9.5780 C.3   102  GLY102      0.1811
     56  C         -7.7750  -15.9590   10.6900 C.2   102  GLY102      0.2280
     57  O         -8.7570  -16.5150   11.1860 O.2   102  GLY102     -0.2866
     58  N        -12.3340  -19.4880    8.0470 N.3   140  ALA140     -0.1231
     59  CA       -11.3050  -19.1140    7.0780 C.3   140  ALA140      0.1679
     60  C        -10.3400  -20.3010    6.9270 C.2   140  ALA140      0.2434
     61  O         -9.9980  -20.9390    7.9280 O.2   140  ALA140     -0.2733
     62  CB       -10.5630  -17.8660    7.5500 C.3   140  ALA140      0.0304
     63  N         -9.8950  -20.6120    5.6870 N.am  141  PRO141     -0.2729
     64  CA       -10.1500  -19.9290    4.4090 C.3   141  PRO141      0.1401
     65  C        -11.5630  -20.1600    3.8620 C.2   141  PRO141      0.2269
     66  O        -12.1010  -19.2860    3.1730 O.2   141  PRO141     -0.2865
     67  CB        -9.1140  -20.5560    3.4690 C.3   141  PRO141      0.0296
     68  CG        -8.8970  -21.9240    4.0140 C.3   141  PRO141      0.0237
     69  CD        -9.0140  -21.7860    5.5090 C.3   141  PRO141      0.0939
     70  N         -7.6420   -1.3560    7.6150 N.3   186  THR186     -0.1218
     71  CA        -7.9340   -1.9140    6.2870 C.3   186  THR186      0.1862
     72  C         -8.9640   -1.1400    5.4540 C.2   186  THR186      0.2287
     73  O         -9.2160   -1.5080    4.3010 O.2   186  THR186     -0.2866
     74  CB        -8.4300   -3.3610    6.3960 C.3   186  THR186      0.1770
     75  OG1       -9.7010   -3.3670    7.0560 O.3   186  THR186     -0.2211
     76  CG2       -7.4240   -4.2270    7.1640 C.3   186  THR186      0.0375
     77  N        -12.4570    2.6200    1.3470 N.3   190  ARG190     -0.1245
     78  CA       -13.8310    2.2000    1.1800 C.3   190  ARG190      0.1563
     79  C        -14.8120    3.2580    1.6990 C.2   190  ARG190      0.2260
     80  O        -14.8510    4.3650    1.1500 O.2   190  ARG190     -0.2867
     81  CB       -14.0380    0.7740    1.7220 C.3   190  ARG190      0.0307
     82  CG       -13.2090   -0.2560    0.9220 C.3   190  ARG190      0.0489
     83  CD       -13.1880   -1.6460    1.5540 C.3   190  ARG190      0.2205
     84  NE       -12.1810   -2.4960    0.9140 N.pl3 190  ARG190     -0.0865
     85  CZ       -12.2440   -3.8230    0.8340 C.cat 190  ARG190      0.5346
     86  NH1      -11.2640   -4.4880    0.2370 N.pl3 190  ARG190      0.1354
     87  NH2      -13.2790   -4.4870    1.3430 N.pl3 190  ARG190      0.1354
     88  N        -13.9950   -4.2540    7.2780 N.3   205  THR205     -0.1218
     89  CA       -13.9770   -4.6250    5.8680 C.3   205  THR205      0.1862
     90  C        -14.1500   -6.1340    5.6610 C.2   205  THR205      0.2287
     91  O        -14.0500   -6.9330    6.5950 O.2   205  THR205     -0.2866
     92  CB       -12.6450   -4.1880    5.1820 C.3   205  THR205      0.1770
     93  OG1      -11.5230   -4.7300    5.9000 O.3   205  THR205     -0.2211
     94  CG2      -12.5260   -2.6610    5.1340 C.3   205  THR205      0.0375
     95  N        -13.1870   -8.9060    2.2120 N.3   207  THR207     -0.1203
     96  CA       -12.7010   -9.0880    0.8460 C.3   207  THR207      0.1994
     97  C        -12.6100  -10.5860    0.5430 C.2   207  THR207      0.2618
     98  O        -12.2510  -11.3960    1.4120 O.2   207  THR207     -0.2717
     99  CB       -11.3200   -8.4050    0.6390 C.3   207  THR207      0.1784
    100  OG1      -11.4000   -7.0550    1.0910 O.3   207  THR207     -0.2211
    101  CG2      -10.9200   -8.3880   -0.8310 C.3   207  THR207      0.0376
    102  N        -12.9700  -10.9540   -0.6810 N.am  208  GLY208     -0.1942
    103  CA       -12.9810  -12.3560   -1.0780 C.3   208  GLY208      0.2014
    104  C        -12.7510  -12.5710   -2.5600 C.2   208  GLY208      0.2638
    105  O        -12.4270  -11.6370   -3.3060 O.2   208  GLY208     -0.2714
    106  N        -12.9230  -13.8240   -2.9720 N.am  209  ASP209     -0.1971
    107  CA       -12.8730  -14.2240   -4.3710 C.3   209  ASP209      0.1709
    108  C        -14.1180  -13.7280   -5.0850 C.2   209  ASP209      0.2293
    109  O        -15.0090  -13.1590   -4.4390 O.2   209  ASP209     -0.2864
    110  CB       -12.7600  -15.7450   -4.4370 C.3   209  ASP209      0.1436
    111  CG       -11.5410  -16.2550   -3.6920 C.2   209  ASP209      0.3671
    112  OD1      -10.4320  -15.7930   -4.0100 O.co2 209  ASP209     -0.2456
    113  OD2      -11.6930  -17.0900   -2.7740 O.co2 209  ASP209     -0.2456
    114  N        -11.5390   -7.6830   -6.4950 N.3   244  PRO244     -0.2116
    115  CA       -12.4350   -6.8300   -5.7030 C.3   244  PRO244      0.1372
    116  C        -12.1230   -5.3710   -6.0190 C.2   244  PRO244      0.2244
    117  O        -10.9540   -5.0340   -6.2800 O.2   244  PRO244     -0.2868
    118  CB       -12.0450   -7.1460   -4.2510 C.3   244  PRO244      0.0268
    119  CG       -11.2520   -8.4050   -4.3160 C.3   244  PRO244      0.0207
    120  CD       -10.5690   -8.3900   -5.6430 C.3   244  PRO244      0.0892
    121  N        -12.3760   -1.6930   -4.5420 N.3   246  GLU246     -0.1245
    122  CA       -12.5950   -0.7820   -3.4230 C.3   246  GLU246      0.1567
    123  C        -13.2650    0.5110   -3.8640 C.2   246  GLU246      0.2260
    124  O        -14.1080    1.0450   -3.1490 O.2   246  GLU246     -0.2867
    125  CB       -11.2720   -0.4580   -2.7240 C.3   246  GLU246      0.0388
    126  CG       -10.5470   -1.6700   -2.1800 C.3   246  GLU246      0.1160
    127  CD        -9.5120   -1.2800   -1.1570 C.2   246  GLU246      0.3649
    128  OE1       -8.4010   -0.8730   -1.5650 O.co2 246  GLU246     -0.2457
    129  OE2       -9.8220   -1.3690    0.0540 O.co2 246  GLU246     -0.2457
@<TRIPOS>BOND
     1   114   115    1
     2   114   120    1
     3   117   116    2
     4   116   115    1
     5   115   118    1
     6   120   119    1
     7   108   109    2
     8   108   107    1
     9   121   122    1
    10   110   107    1
    11   110   111    1
    12   107   106    1
    13   119   118    1
    14   112   111   ar
    15   123   122    1
    16   123   124    2
    17   111   113   ar
    18   122   125    1
    19   105   104    2
    20   106   104   am
    21   125   126    1
    22   104   103    1
    23   126   127    1
    24   128   127   ar
    25   127   129   ar
    26   103   102    1
    27   101    99    1
    28   102    97   am
    29    86    85    1
    30    97    96    1
    31    97    98    2
    32    99    96    1
    33    99   100    1
    34    85    84    2
    35    85    87    1
    36    96    95    1
    37    84    83    1
    38    82    83    1
    39    82    81    1
    40    80    79    2
    41    78    77    1
    42    78    79    1
    43    78    81    1
    44     6     5    1
    45    35    33    1
    46     5     2    1
    47    33    32    1
    48    66    65    2
    49    67    68    1
    50    67    64    1
    51    65    64    1
    52     1     2    1
    53    68    69    1
    54     2     3    1
    55    73    72    2
    56    64    63    1
    57    32    34    1
    58    32    29    1
    59    94    92    1
    60    92    89    1
    61    92    93    1
    62    28    29    1
    63    28    24   am
    64    72    71    1
    65     3     7   am
    66     3     4    2
    67    29    30    1
    68    69    63    1
    69    90    89    1
    70    90    91    2
    71     7     8    1
    72    23    24    1
    73    23    26    1
    74    23    22    1
    75    63    60   am
    76    89    88    1
    77    24    25    2
    78    26    27    1
    79    71    74    1
    80    71    70    1
    81    74    75    1
    82    74    76    1
    83    12    11    1
    84    60    59    1
    85    60    61    2
    86    11     8    1
    87     8     9    1
    88    30    31    2
    89    59    62    1
    90    59    58    1
    91    53    52    1
    92     9    10    2
    93    52    49    1
    94    51    50    2
    95    39    38    2
    96    21    20    1
    97    50    49    1
    98    49    48    1
    99    55    54    1
   100    55    56    1
   101    38    48   am
   102    38    37    1
   103    20    19    1
   104    43    45   ar
   105    43    41   ar
   106    37    40    1
   107    37    36    1
   108    45    46   ar
   109    19    18    1
   110    56    57    2
   111    40    41    1
   112    41    42   ar
   113    18    17    1
   114    13    14    1
   115    46    47    1
   116    46    44   ar
   117    17    14    1
   118    42    44   ar
   119    14    15    1
   120    15    16    2
