@<TRIPOS>MOLECULE
tmp/3nbpA00.pdb
 182 181 0 0 0
SMALL
GASTEIGER

@<TRIPOS>ATOM
      1  N         48.4870   55.3480   21.3750 N.3    92  PRO92      -0.2116
      2  CA        49.2850   55.5510   20.1600 C.3    92  PRO92       0.1372
      3  C         50.7850   55.5520   20.3840 C.2    92  PRO92       0.2244
      4  O         51.2730   56.0530   21.4080 O.2    92  PRO92      -0.2868
      5  CB        48.7980   56.9010   19.6290 C.3    92  PRO92       0.0268
      6  CG        47.4650   57.0610   20.1980 C.3    92  PRO92       0.0207
      7  CD        47.5140   56.4410   21.5500 C.3    92  PRO92       0.0892
      8  N         52.6070   57.5940   14.2230 N.3    97  LEU97      -0.1231
      9  CA        52.0830   58.9260   13.9100 C.3    97  LEU97       0.1693
     10  C         52.5680   59.4020   12.5520 C.2    97  LEU97       0.2591
     11  O         53.6580   59.0310   12.1060 O.2    97  LEU97      -0.2718
     12  CB        52.4190   59.9550   15.0060 C.3    97  LEU97       0.0284
     13  CG        51.9600   59.6620   16.4470 C.3    97  LEU97       0.0019
     14  CD1       52.3270   60.8080   17.3550 C.3    97  LEU97       0.0001
     15  CD2       50.4670   59.3530   16.5420 C.3    97  LEU97       0.0001
     16  N         51.7090   60.1460   11.8600 N.am   98  LYS98      -0.1980
     17  CA        52.0200   60.6910   10.5430 C.3    98  LYS98       0.1596
     18  C         52.4230   62.1370   10.7230 C.2    98  LYS98       0.2287
     19  O         51.9560   62.7980   11.6630 O.2    98  LYS98      -0.2864
     20  CB        50.8290   60.5580    9.5620 C.3    98  LYS98       0.0298
     21  CG        50.3730   59.1180    9.2960 C.3    98  LYS98       0.0038
     22  CD        49.3180   58.6730   10.3170 C.3    98  LYS98       0.0206
     23  CE        49.1530   57.1890   10.3500 C.3    98  LYS98       0.1093
     24  NZ        48.6140   56.7470   11.6540 N.3    98  LYS98      -0.1314
     25  N         52.4340   65.9830   10.3770 N.3   100  LYS100     -0.1231
     26  CA        51.4090   67.0150   10.1590 C.3   100  LYS100      0.1693
     27  C         52.0070   68.4130   10.3580 C.2   100  LYS100      0.2592
     28  O         52.9070   68.5840   11.1990 O.2   100  LYS100     -0.2718
     29  CB        50.1520   66.7680   11.0080 C.3   100  LYS100      0.0285
     30  CG        48.9610   66.2930   10.1850 C.3   100  LYS100      0.0035
     31  CD        48.9370   64.7880    9.9540 C.3   100  LYS100      0.0206
     32  CE        48.1930   64.3970    8.6920 C.3   100  LYS100      0.1093
     33  NZ        49.0760   64.4140    7.4910 N.3   100  LYS100     -0.1314
     34  N         51.5640   69.3920    9.5350 N.am  101  LYS101     -0.1966
     35  CA        52.0980   70.7660    9.5840 C.3   101  LYS101      0.1728
     36  C         51.8990   71.5190   10.8990 C.2   101  LYS101      0.2617
     37  O         52.8320   72.1940   11.3500 O.2   101  LYS101     -0.2715
     38  CB        51.6380   71.6190    8.3890 C.3   101  LYS101      0.0311
     39  CG        52.5690   71.5160    7.1820 C.3   101  LYS101      0.0038
     40  CD        52.3330   72.6350    6.1660 C.3   101  LYS101      0.0206
     41  CE        52.7240   72.2520    4.7550 C.3   101  LYS101      0.1093
     42  NZ        51.6660   71.4540    4.0780 N.3   101  LYS101     -0.1314
     43  N         50.7010   71.3970   11.5190 N.am  102  SER102     -0.1936
     44  CA        50.3770   72.1360   12.7390 C.3   102  SER102      0.2055
     45  C         49.5150   71.3790   13.7680 C.2   102  SER102      0.2642
     46  O         48.6550   70.5820   13.3810 O.2   102  SER102     -0.2714
     47  CB        49.7430   73.4800   12.3750 C.3   102  SER102      0.2130
     48  OG        48.9930   73.4170   11.1680 O.3   102  SER102     -0.2179
     49  N         49.7460   71.6650   15.0830 N.am  103  VAL103     -0.1977
     50  CA        49.0430   71.0660   16.2340 C.3   103  VAL103      0.1596
     51  C         48.4060   72.0600   17.1790 C.2   103  VAL103      0.2287
     52  O         48.9430   73.1480   17.4040 O.2   103  VAL103     -0.2864
     53  CB        49.8890   70.0970   17.0930 C.3   103  VAL103      0.0276
     54  CG1       49.5730   68.6390   16.7970 C.3   103  VAL103      0.0022
     55  CG2       51.3690   70.4010   17.0110 C.3   103  VAL103      0.0022
     56  N         46.3140   71.6260   21.1330 N.3   105  VAL105     -0.1245
     57  CA        45.8550   70.7930   22.2370 C.3   105  VAL105      0.1561
     58  C         44.6970   71.5420   22.9120 C.2   105  VAL105      0.2260
     59  O         44.9180   72.5860   23.5420 O.2   105  VAL105     -0.2867
     60  CB        47.0060   70.4640   23.2390 C.3   105  VAL105      0.0252
     61  CG1       46.5110   69.6300   24.4230 C.3   105  VAL105      0.0019
     62  CG2       48.1710   69.7690   22.5400 C.3   105  VAL105      0.0019
     63  N         43.1540   65.2180   11.6080 N.3   176  VAL176     -0.1231
     64  CA        43.3890   64.1990   12.6160 C.3   176  VAL176      0.1692
     65  C         43.0670   64.7990   13.9950 C.2   176  VAL176      0.2592
     66  O         43.4480   65.9330   14.3020 O.2   176  VAL176     -0.2718
     67  CB        44.8300   63.6300   12.4810 C.3   176  VAL176      0.0266
     68  CG1       45.6660   63.7970   13.7520 C.3   176  VAL176      0.0020
     69  CG2       44.8070   62.1850   12.0210 C.3   176  VAL176      0.0020
     70  N         42.3000   64.0560   14.7820 N.am  177  ILE177     -0.1966
     71  CA        41.9140   64.4260   16.1370 C.3   177  ILE177      0.1727
     72  C         42.1540   63.1840   16.9710 C.2   177  ILE177      0.2616
     73  O         41.7090   62.1010   16.5830 O.2   177  ILE177     -0.2715
     74  CB        40.4340   64.9200   16.2320 C.3   177  ILE177      0.0290
     75  CG1       40.2540   66.2910   15.5560 C.3   177  ILE177      0.0022
     76  CG2       39.9400   64.9720   17.6930 C.3   177  ILE177      0.0023
     77  CD1       38.8040   66.6240   15.1150 C.3   177  ILE177      0.0001
     78  N         42.8840   63.3270   18.0830 N.am  178  TYR178     -0.1974
     79  CA        43.1170   62.2220   18.9960 C.3   178  TYR178      0.1639
     80  C         42.4320   62.5010   20.3420 C.2   178  TYR178      0.2290
     81  O         42.7120   63.5200   20.9870 O.2   178  TYR178     -0.2864
     82  CB        44.6200   61.8420   19.1330 C.3   178  TYR178      0.0560
     83  CG        44.9130   60.8680   20.2650 C.ar  178  TYR178     -0.0198
     84  CD1       44.4410   59.5550   20.2250 C.ar  178  TYR178     -0.0009
     85  CD2       45.5990   61.2810   21.4070 C.ar  178  TYR178     -0.0009
     86  CE1       44.6180   58.6850   21.3040 C.ar  178  TYR178      0.0417
     87  CE2       45.8090   60.4120   22.4800 C.ar  178  TYR178      0.0417
     88  CZ        45.3160   59.1130   22.4240 C.ar  178  TYR178      0.1957
     89  OH        45.5300   58.2370   23.4670 O.3   178  TYR178     -0.2866
     90  N         43.5360   66.4170   20.8540 N.3   185  TYR185     -0.1241
     91  CA        44.7330   66.7950   20.1090 C.3   185  TYR185      0.1605
     92  C         44.3990   66.8920   18.6340 C.2   185  TYR185      0.2264
     93  O         43.9700   65.9130   18.0210 O.2   185  TYR185     -0.2867
     94  CB        45.8760   65.8060   20.3720 C.3   185  TYR185      0.0534
     95  CG        46.2240   65.6380   21.8410 C.ar  185  TYR185     -0.0201
     96  CD1       45.4950   64.7790   22.6580 C.ar  185  TYR185     -0.0009
     97  CD2       47.3120   66.3030   22.4020 C.ar  185  TYR185     -0.0009
     98  CE1       45.8000   64.6320   24.0090 C.ar  185  TYR185      0.0417
     99  CE2       47.6440   66.1430   23.7470 C.ar  185  TYR185      0.0417
    100  CZ        46.8800   65.3080   24.5480 C.ar  185  TYR185      0.1957
    101  OH        47.1800   65.1320   25.8790 O.3   185  TYR185     -0.2866
    102  N         45.5260   67.9500   14.7120 N.3   187  GLY187     -0.1225
    103  CA        46.6110   68.0750   13.7570 C.3   187  GLY187      0.1811
    104  C         46.0910   68.2330   12.3540 C.2   187  GLY187      0.2280
    105  O         45.0700   67.6380   12.0030 O.2   187  GLY187     -0.2866
    106  N         57.3360   74.0160   19.8430 N.3   222  PRO222     -0.2116
    107  CA        57.9190   72.6540   19.9200 C.3   222  PRO222      0.1372
    108  C         59.1520   72.4840   20.8230 C.2   222  PRO222      0.2244
    109  O         59.9030   73.4540   20.9790 O.2   222  PRO222     -0.2868
    110  CB        58.2470   72.3190   18.4590 C.3   222  PRO222      0.0268
    111  CG        58.3480   73.6350   17.7850 C.3   222  PRO222      0.0207
    112  CD        57.3170   74.4980   18.4490 C.3   222  PRO222      0.0892
    113  N         56.3590   69.2550   21.7190 N.3   224  PHE224     -0.1227
    114  CA        55.0860   69.0080   22.3880 C.3   224  PHE224      0.1736
    115  C         55.2750   67.8040   23.3160 C.2   224  PHE224      0.2595
    116  O         55.5000   66.6810   22.8520 O.2   224  PHE224     -0.2718
    117  CB        53.9750   68.7420   21.3410 C.3   224  PHE224      0.0547
    118  CG        53.1650   69.9490   20.9240 C.ar  224  PHE224     -0.0202
    119  CD1       51.7750   69.9270   20.9810 C.ar  224  PHE224     -0.0042
    120  CD2       53.7920   71.1210   20.5020 C.ar  224  PHE224     -0.0042
    121  CE1       51.0260   71.0530   20.6130 C.ar  224  PHE224     -0.0003
    122  CE2       53.0400   72.2520   20.1520 C.ar  224  PHE224     -0.0003
    123  CZ        51.6640   72.2050   20.1980 C.ar  224  PHE224     -0.0000
    124  N         55.2520   68.0420   24.6230 N.am  225  LEU225     -0.1966
    125  CA        55.4250   66.9450   25.5590 C.3   225  LEU225      0.1728
    126  C         54.1200   66.1390   25.6620 C.2   225  LEU225      0.2616
    127  O         53.1000   66.6500   26.1220 O.2   225  LEU225     -0.2715
    128  CB        55.9440   67.4330   26.9220 C.3   225  LEU225      0.0311
    129  CG        57.2290   68.2940   26.9480 C.3   225  LEU225      0.0022
    130  CD1       57.7200   68.4770   28.3680 C.3   225  LEU225      0.0001
    131  CD2       58.3620   67.6910   26.1160 C.3   225  LEU225      0.0001
    132  N         54.1370   64.9120   25.1280 N.am  226  TRP226     -0.1974
    133  CA        52.9760   64.0250   25.1030 C.3   226  TRP226      0.1640
    134  C         53.3150   62.6310   25.5880 C.2   226  TRP226      0.2290
    135  O         54.2390   62.0170   25.0610 O.2   226  TRP226     -0.2864
    136  CB        52.3870   63.9320   23.6730 C.3   226  TRP226      0.0576
    137  CG        51.2010   63.0150   23.5890 C.ar  226  TRP226      0.0006
    138  CD1       49.9450   63.2620   24.0580 C.ar  226  TRP226      0.0946
    139  CD2       51.1870   61.6690   23.0910 C.ar  226  TRP226      0.0152
    140  NE1       49.1430   62.1600   23.8740 N.ar  226  TRP226     -0.2442
    141  CE2       49.8780   61.1670   23.2770 C.ar  226  TRP226      0.0810
    142  CE3       52.1610   60.8240   22.5280 C.ar  226  TRP226      0.0012
    143  CZ2       49.5110   59.8680   22.8950 C.ar  226  TRP226      0.0191
    144  CZ3       51.7920   59.5420   22.1440 C.ar  226  TRP226      0.0001
    145  CH2       50.4820   59.0770   22.3270 C.ar  226  TRP226      0.0015
    146  N         57.2980   65.5300   21.1490 N.3   231  LEU231     -0.1231
    147  CA        56.7750   65.5380   19.7890 C.3   231  LEU231      0.1693
    148  C         57.1160   66.8220   19.0410 C.2   231  LEU231      0.2592
    149  O         56.4750   67.8640   19.2450 O.2   231  LEU231     -0.2718
    150  CB        55.2710   65.2260   19.7620 C.3   231  LEU231      0.0284
    151  CG        54.8510   63.7610   19.5540 C.3   231  LEU231      0.0019
    152  CD1       55.5040   62.8120   20.5530 C.3   231  LEU231      0.0001
    153  CD2       53.3590   63.6280   19.6640 C.3   231  LEU231      0.0001
    154  N         58.1730   66.7350   18.1980 N.am  232  HIS232     -0.1962
    155  CA        58.6700   67.8010   17.3230 C.3   232  HIS232      0.1772
    156  C         57.9070   67.6680   15.9870 C.2   232  HIS232      0.2462
    157  O         57.1890   66.6810   15.8410 O.2   232  HIS232     -0.2730
    158  CB        60.1820   67.6430   17.1070 C.3   232  HIS232      0.0785
    159  CG        60.9780   67.6330   18.3700 C.ar  232  HIS232      0.0821
    160  ND1       61.1310   66.4800   19.1120 N.ar  232  HIS232     -0.2267
    161  CD2       61.6580   68.6340   18.9720 C.ar  232  HIS232      0.1154
    162  CE1       61.8950   66.8110   20.1400 C.ar  232  HIS232      0.1986
    163  NE2       62.2400   68.0940   20.0970 N.ar  232  HIS232     -0.2212
    164  N         58.0000   68.6040   15.0050 N.am  233  PRO233     -0.2727
    165  CA        57.1980   68.4370   13.7680 C.3   233  PRO233      0.1402
    166  C         57.5580   67.2340   12.8880 C.2   233  PRO233      0.2269
    167  O         56.6620   66.5010   12.4540 O.2   233  PRO233     -0.2865
    168  CB        57.3930   69.7680   13.0280 C.3   233  PRO233      0.0296
    169  CG        58.6930   70.3200   13.5510 C.3   233  PRO233      0.0237
    170  CD        58.7720   69.8710   14.9840 C.3   233  PRO233      0.0939
    171  N         58.5860   60.0270   11.9590 N.3   315  TYR315     -0.1241
    172  CA        57.1670   59.6670   11.8980 C.3   315  TYR315      0.1605
    173  C         56.9320   58.7120   10.7220 C.2   315  TYR315      0.2264
    174  O         57.8120   58.5620    9.8610 O.2   315  TYR315     -0.2867
    175  CB        56.2640   60.9170   11.8120 C.3   315  TYR315      0.0534
    176  CG        56.2740   61.7500   13.0760 C.ar  315  TYR315     -0.0201
    177  CD1       56.6920   63.0760   13.0550 C.ar  315  TYR315     -0.0009
    178  CD2       55.9330   61.1920   14.3060 C.ar  315  TYR315     -0.0009
    179  CE1       56.7490   63.8330   14.2240 C.ar  315  TYR315      0.0417
    180  CE2       55.9910   61.9390   15.4800 C.ar  315  TYR315      0.0417
    181  CZ        56.3860   63.2640   15.4320 C.ar  315  TYR315      0.1957
    182  OH        56.4420   64.0090   16.5850 O.3   315  TYR315     -0.2866
@<TRIPOS>BOND
     1    42    41    1
     2    41    40    1
     3    40    39    1
     4    39    38    1
     5    33    32    1
     6    38    35    1
     7    32    31    1
     8    21    20    1
     9    21    22    1
    10    34    35    1
    11    34    27   am
    12    20    17    1
    13    35    36    1
    14   174   173    2
    15    31    30    1
    16    26    27    1
    17    26    25    1
    18    26    29    1
    19    30    29    1
    20    22    23    1
    21    23    24    1
    22    27    28    2
    23    17    18    1
    24    17    16    1
    25   173   172    1
    26    18    19    2
    27    36    37    2
    28    36    43   am
    29    48    47    1
    30    43    44    1
    31    63    64    1
    32   175   172    1
    33   175   176    1
    34    16    10   am
    35   172   171    1
    36   105   104    2
    37    69    67    1
    38    11    10    2
    39   104   103    1
    40    47    44    1
    41   167   166    2
    42    67    64    1
    43    67    68    1
    44    10     9    1
    45    64    65    1
    46    44    45    1
    47   166   165    1
    48   168   169    1
    49   168   165    1
    50   177   176   ar
    51   177   179   ar
    52   176   178   ar
    53    46    45    2
    54   169   170    1
    55   103   102    1
    56    45    49   am
    57   165   164    1
    58     9     8    1
    59     9    12    1
    60    65    66    2
    61    65    70   am
    62   179   181   ar
    63   178   180   ar
    64    70    71    1
    65   170   164    1
    66   164   156   am
    67    12    13    1
    68    49    50    1
    69    77    75    1
    70   181   180   ar
    71   181   182    1
    72    75    74    1
    73   157   156    2
    74   156   155    1
    75    71    74    1
    76    71    72    1
    77    74    76    1
    78    50    53    1
    79    50    51    1
    80    13    15    1
    81    13    14    1
    82    73    72    2
    83    54    53    1
    84    72    78   am
    85    55    53    1
    86   158   155    1
    87   158   159    1
    88    51    52    2
    89   155   154    1
    90   111   112    1
    91   111   110    1
    92    93    92    2
    93    78    79    1
    94   154   148   am
    95   159   161   ar
    96   159   160   ar
    97   112   106    1
    98   110   107    1
    99    92    91    1
   100   161   163   ar
   101    79    82    1
   102    79    80    1
   103   148   149    2
   104   148   147    1
   105   160   162   ar
   106    82    83    1
   107   151   153    1
   108   151   150    1
   109   151   152    1
   110     5     2    1
   111     5     6    1
   112   150   147    1
   113   147   146    1
   114   106   107    1
   115   107   108    1
   116   163   162   ar
   117    91    94    1
   118    91    90    1
   119   122   123   ar
   120   122   120   ar
   121     2     3    1
   122     2     1    1
   123     6     7    1
   124   123   121   ar
   125    84    83   ar
   126    84    86   ar
   127    83    85   ar
   128    80    81    2
   129    94    95    1
   130     3     4    2
   131   120   118   ar
   132   121   119   ar
   133   108   109    2
   134   118   119   ar
   135   118   117    1
   136    56    57    1
   137    86    88   ar
   138   117   114    1
   139     1     7    1
   140    85    87   ar
   141   113   114    1
   142    95    97   ar
   143    95    96   ar
   144   144   145   ar
   145   144   142   ar
   146    57    58    1
   147    57    60    1
   148   145   143   ar
   149   114   115    1
   150    97    99   ar
   151    88    87   ar
   152    88    89    1
   153   142   139   ar
   154    62    60    1
   155    96    98   ar
   156   116   115    2
   157   143   141   ar
   158    58    59    2
   159   139   141   ar
   160   139   137   ar
   161    60    61    1
   162   141   140   ar
   163   115   124   am
   164   137   136    1
   165   137   138   ar
   166   136   133    1
   167    99   100   ar
   168   140   138   ar
   169    98   100   ar
   170   100   101    1
   171   124   125    1
   172   135   134    2
   173   133   132    1
   174   133   134    1
   175   132   126   am
   176   125   126    1
   177   125   128    1
   178   126   127    2
   179   131   129    1
   180   128   129    1
   181   129   130    1
