@<TRIPOS>MOLECULE
tmp/3nbtD03.pdb
 107 106 0 0 0
SMALL
GASTEIGER

@<TRIPOS>ATOM
      1  N         24.5060    6.8560   41.7290 N.3    27  LYS27      -0.1231
      2  CA        24.1750    5.4380   41.7420 C.3    27  LYS27       0.1693
      3  C         24.1970    5.0630   40.2610 C.2    27  LYS27       0.2592
      4  O         25.1700    5.3760   39.5710 O.2    27  LYS27      -0.2718
      5  CB        22.7890    5.2240   42.3660 C.3    27  LYS27       0.0285
      6  CG        22.6850    5.8030   43.7830 C.3    27  LYS27       0.0035
      7  CD        21.2840    5.6910   44.3650 C.3    27  LYS27       0.0206
      8  CE        20.8860    4.2470   44.5860 C.3    27  LYS27       0.1093
      9  NZ        19.5190    4.1450   45.1680 N.3    27  LYS27      -0.1314
     10  N         23.1560    4.4050   39.7610 N.am   28  THR28      -0.1953
     11  CA        23.1400    4.0770   38.3410 C.3    28  THR28       0.1897
     12  C         23.0490    5.4160   37.6100 C.2    28  THR28       0.2313
     13  O         23.6460    5.5990   36.5530 O.2    28  THR28      -0.2863
     14  CB        21.9350    3.1930   37.9630 C.3    28  THR28       0.1794
     15  OG1       22.0860    1.8960   38.5580 O.3    28  THR28      -0.2208
     16  CG2       21.8460    3.0340   36.4590 C.3    28  THR28       0.0378
     17  N         29.9900   12.4490   37.6170 N.3    46  PHE46      -0.1227
     18  CA        29.2510   11.4460   36.8680 C.3    46  PHE46       0.1736
     19  C         29.6230   11.4910   35.3910 C.2    46  PHE46       0.2596
     20  O         29.7580   12.5690   34.8010 O.2    46  PHE46      -0.2718
     21  CB        27.7460   11.6740   37.0220 C.3    46  PHE46       0.0547
     22  CG        26.9070   10.5520   36.4830 C.ar   46  PHE46      -0.0202
     23  CD1       26.6080    9.4460   37.2770 C.ar   46  PHE46      -0.0042
     24  CD2       26.4360   10.5860   35.1750 C.ar   46  PHE46      -0.0042
     25  CE1       25.8530    8.3900   36.7790 C.ar   46  PHE46      -0.0003
     26  CE2       25.6790    9.5320   34.6650 C.ar   46  PHE46      -0.0003
     27  CZ        25.3880    8.4310   35.4710 C.ar   46  PHE46      -0.0000
     28  N         29.7870   10.3140   34.7980 N.am   47  THR47      -0.1939
     29  CA        30.1250   10.2150   33.3880 C.3    47  THR47       0.2028
     30  C         28.8480    9.9620   32.6040 C.2    47  THR47       0.2642
     31  O         28.2360    8.8980   32.7140 O.2    47  THR47      -0.2714
     32  CB        31.1050    9.0680   33.1270 C.3    47  THR47       0.1808
     33  OG1       32.3110    9.3030   33.8650 O.3    47  THR47      -0.2208
     34  CG2       31.4340    8.9870   31.6380 C.3    47  THR47       0.0379
     35  N         28.4610   10.9500   31.8080 N.am   48  TYR48      -0.1959
     36  CA        27.2420   10.8870   31.0150 C.3    48  TYR48       0.1771
     37  C         27.4890   10.3230   29.6190 C.2    48  TYR48       0.2620
     38  O         28.6300   10.2000   29.1700 O.2    48  TYR48      -0.2715
     39  CB        26.6590   12.2950   30.8560 C.3    48  TYR48       0.0574
     40  CG        26.1500   12.9520   32.1180 C.ar   48  TYR48      -0.0198
     41  CD1       24.7880   12.9620   32.4140 C.ar   48  TYR48      -0.0009
     42  CD2       27.0180   13.6030   32.9970 C.ar   48  TYR48      -0.0009
     43  CE1       24.2960   13.6080   33.5460 C.ar   48  TYR48       0.0417
     44  CE2       26.5330   14.2570   34.1390 C.ar   48  TYR48       0.0417
     45  CZ        25.1670   14.2550   34.4010 C.ar   48  TYR48       0.1957
     46  OH        24.6570   14.9260   35.4910 O.3    48  TYR48      -0.2866
     47  N         26.4070    9.9710   28.9380 N.am   49  THR49      -0.1951
     48  CA        26.5250    9.4950   27.5720 C.3    49  THR49       0.1897
     49  C         26.8610   10.7980   26.8650 C.2    49  THR49       0.2313
     50  O         26.6070   11.8750   27.4130 O.2    49  THR49      -0.2863
     51  CB        25.1820    8.9850   27.0240 C.3    49  THR49       0.1794
     52  OG1       24.1880   10.0080   27.1750 O.3    49  THR49      -0.2208
     53  CG2       24.7410    7.7300   27.7540 C.3    49  THR49       0.0378
     54  N         21.3070    6.5720   27.9140 N.3    79  LYS79      -0.1231
     55  CA        21.2510    5.2040   28.4300 C.3    79  LYS79       0.1693
     56  C         20.9000    5.2350   29.9170 C.2    79  LYS79       0.2592
     57  O         21.5170    5.9740   30.6860 O.2    79  LYS79      -0.2718
     58  CB        22.6000    4.5130   28.2400 C.3    79  LYS79       0.0285
     59  CG        23.1120    4.4980   26.7980 C.3    79  LYS79       0.0035
     60  CD        22.2110    3.6730   25.9030 C.3    79  LYS79       0.0206
     61  CE        22.7210    3.6580   24.4630 C.3    79  LYS79       0.1093
     62  NZ        21.8800    2.7810   23.6090 N.3    79  LYS79      -0.1314
     63  N         19.9140    4.4310   30.3110 N.am   80  MET80      -0.1965
     64  CA        19.4670    4.3600   31.7030 C.3    80  MET80       0.1736
     65  C         20.1970    3.2890   32.5200 C.2    80  MET80       0.2616
     66  O         20.2290    3.3590   33.7490 O.2    80  MET80      -0.2715
     67  CB        17.9670    4.0690   31.7580 C.3    80  MET80       0.0427
     68  CG        17.1390    5.1300   32.4570 C.3    80  MET80       0.0599
     69  SD        16.8630    6.5660   31.4250 S.3    80  MET80      -0.1393
     70  CE        15.1440    6.4110   31.1200 C.3    80  MET80       0.0692
     71  N         20.7540    2.2910   31.8340 N.am   81  ILE81      -0.1963
     72  CA        21.4770    1.1990   32.4900 C.3    81  ILE81       0.1727
     73  C         22.9230    1.1580   32.0140 C.2    81  ILE81       0.2616
     74  O         23.2480    1.6970   30.9640 O.2    81  ILE81      -0.2715
     75  CB        20.8240   -0.1750   32.1900 C.3    81  ILE81       0.0290
     76  CG1       20.7570   -0.4030   30.6770 C.3    81  ILE81       0.0022
     77  CG2       19.4270   -0.2260   32.7880 C.3    81  ILE81       0.0023
     78  CD1       20.2600   -1.7810   30.2760 C.3    81  ILE81       0.0001
     79  N         23.7890    0.5140   32.7870 N.am   82  PHE82      -0.1960
     80  CA        25.2040    0.4140   32.4400 C.3    82  PHE82       0.1771
     81  C         25.4340    0.1730   30.9440 C.2    82  PHE82       0.2619
     82  O         24.9940   -0.8350   30.3950 O.2    82  PHE82      -0.2715
     83  CB        25.8670   -0.7130   33.2370 C.3    82  PHE82       0.0574
     84  CG        27.3010   -0.9370   32.8690 C.ar   82  PHE82      -0.0200
     85  CD1       28.2520    0.0410   33.1210 C.ar   82  PHE82      -0.0042
     86  CD2       27.6970   -2.1140   32.2480 C.ar   82  PHE82      -0.0042
     87  CE1       29.5870   -0.1460   32.7580 C.ar   82  PHE82      -0.0003
     88  CE2       29.0330   -2.3110   31.8810 C.ar   82  PHE82      -0.0003
     89  CZ        29.9770   -1.3210   32.1390 C.ar   82  PHE82      -0.0000
     90  N         26.1310    1.1010   30.2990 N.am   83  ALA83      -0.1963
     91  CA        26.4150    0.9970   28.8710 C.3    83  ALA83       0.1728
     92  C         27.9110    1.0520   28.5910 C.2    83  ALA83       0.2616
     93  O         28.3230    1.2650   27.4510 O.2    83  ALA83      -0.2715
     94  CB        25.6960    2.1150   28.1030 C.3    83  ALA83       0.0334
     95  N         28.7210    0.8530   29.6280 N.am   84  GLY84      -0.1955
     96  CA        30.1650    0.8820   29.4530 C.3    84  GLY84       0.1869
     97  C         30.8860    1.9750   30.2270 C.2    84  GLY84       0.2309
     98  O         30.2540    2.8520   30.8190 O.2    84  GLY84      -0.2863
     99  N         33.8010    4.8800   29.6970 N.3    86  LYS86      -0.1245
    100  CA        34.5810    5.5890   28.6880 C.3    86  LYS86       0.1561
    101  C         36.0740    5.7460   28.9950 C.2    86  LYS86       0.2260
    102  O         36.9080    5.5190   28.1200 O.2    86  LYS86      -0.2867
    103  CB        33.9750    6.9680   28.4040 C.3    86  LYS86       0.0271
    104  CG        34.1460    7.9900   29.5120 C.3    86  LYS86       0.0035
    105  CD        33.7860    9.3890   29.0170 C.3    86  LYS86       0.0206
    106  CE        34.6720    9.8000   27.8450 C.3    86  LYS86       0.1093
    107  NZ        34.3410   11.1490   27.3060 N.3    86  LYS86      -0.1314
@<TRIPOS>BOND
     1    62    61    1
     2    61    60    1
     3    60    59    1
     4    59    58    1
     5    49    50    2
     6    49    48    1
     7    51    52    1
     8    51    48    1
     9    51    53    1
    10   107   106    1
    11    93    92    2
    12    48    47    1
    13   106   105    1
    14    54    55    1
    15    94    91    1
    16   102   101    2
    17    58    55    1
    18   103   100    1
    19   103   104    1
    20    55    56    1
    21    92    91    1
    22    92    95   am
    23   100   101    1
    24   100    99    1
    25    91    90    1
    26    47    37   am
    27   105   104    1
    28    38    37    2
    29    96    95    1
    30    96    97    1
    31    37    36    1
    32    56    63   am
    33    56    57    2
    34    97    98    2
    35    78    76    1
    36    90    81   am
    37    63    64    1
    38    82    81    2
    39    76    75    1
    40    39    36    1
    41    39    40    1
    42    81    80    1
    43    74    73    2
    44    36    35    1
    45    70    69    1
    46    69    68    1
    47    34    32    1
    48    64    67    1
    49    64    65    1
    50    67    68    1
    51    35    30   am
    52    71    72    1
    53    71    65   am
    54    88    89   ar
    55    88    86   ar
    56    73    72    1
    57    73    79   am
    58    40    41   ar
    59    40    42   ar
    60    89    87   ar
    61    75    72    1
    62    75    77    1
    63    86    84   ar
    64    41    43   ar
    65    80    79    1
    66    80    83    1
    67    65    66    2
    68    30    31    2
    69    30    29    1
    70    87    85   ar
    71    84    85   ar
    72    84    83    1
    73    42    44   ar
    74    32    29    1
    75    32    33    1
    76    29    28    1
    77    43    45   ar
    78    44    45   ar
    79    45    46    1
    80    26    24   ar
    81    26    27   ar
    82    28    19   am
    83    20    19    2
    84    24    22   ar
    85    19    18    1
    86    27    25   ar
    87    16    14    1
    88    22    21    1
    89    22    23   ar
    90    13    12    2
    91    25    23   ar
    92    18    21    1
    93    18    17    1
    94    12    11    1
    95    14    11    1
    96    14    15    1
    97    11    10    1
    98     4     3    2
    99    10     3   am
   100     3     2    1
   101     1     2    1
   102     2     5    1
   103     5     6    1
   104     6     7    1
   105     7     8    1
   106     8     9    1
