@<TRIPOS>MOLECULE
tmp/3nbtE04.pdb
 98 97 0 0 0
SMALL
GASTEIGER

@<TRIPOS>ATOM
      1  N          7.7520   -4.5550   -0.4850 N.3    28  THR28      -0.1218
      2  CA         8.2750   -4.6610    0.8740 C.3    28  THR28       0.1862
      3  C          7.0440   -4.6250    1.7810 C.2    28  THR28       0.2287
      4  O          6.9290   -5.4070    2.7390 O.2    28  THR28      -0.2866
      5  CB         9.2230   -3.4830    1.2140 C.3    28  THR28       0.1770
      6  OG1       10.3610   -3.5240    0.3440 O.3    28  THR28      -0.2211
      7  CG2        9.7180   -3.5810    2.6620 C.3    28  THR28       0.0375
      8  N         -0.4390  -11.0940    2.1860 N.3    46  PHE46      -0.1227
      9  CA         0.7350  -10.4760    2.7920 C.3    46  PHE46       0.1736
     10  C          0.9850  -10.9930    4.2070 C.2    46  PHE46       0.2596
     11  O          0.0510  -11.1830    4.9880 O.2    46  PHE46      -0.2718
     12  CB         0.5890   -8.9480    2.8220 C.3    46  PHE46       0.0547
     13  CG         1.8370   -8.2310    3.2620 C.ar   46  PHE46      -0.0202
     14  CD1        2.8910   -8.0310    2.3750 C.ar   46  PHE46      -0.0042
     15  CD2        1.9780   -7.7950    4.5760 C.ar   46  PHE46      -0.0042
     16  CE1        4.0720   -7.4050    2.7890 C.ar   46  PHE46      -0.0003
     17  CE2        3.1510   -7.1720    5.0000 C.ar   46  PHE46      -0.0003
     18  CZ         4.2010   -6.9770    4.1030 C.ar   46  PHE46      -0.0000
     19  N          2.2510  -11.2330    4.5290 N.am   47  THR47      -0.1939
     20  CA         2.6120  -11.7080    5.8590 C.3    47  THR47       0.2028
     21  C          3.0800  -10.5220    6.6900 C.2    47  THR47       0.2642
     22  O          4.1810  -10.0070    6.4980 O.2    47  THR47      -0.2714
     23  CB         3.7450  -12.7520    5.8150 C.3    47  THR47       0.1808
     24  OG1        3.3620  -13.8460    4.9740 O.3    47  THR47      -0.2208
     25  CG2        4.0330  -13.2840    7.2210 C.3    47  THR47       0.0379
     26  N          2.2180  -10.0960    7.6050 N.am   48  TYR48      -0.1959
     27  CA         2.4860   -8.9790    8.5010 C.3    48  TYR48       0.1771
     28  C          3.2180   -9.4490    9.7530 C.2    48  TYR48       0.2620
     29  O          3.4200  -10.6440    9.9620 O.2    48  TYR48      -0.2715
     30  CB         1.1710   -8.3520    8.9600 C.3    48  TYR48       0.0574
     31  CG         0.3610   -7.6790    7.8840 C.ar   48  TYR48      -0.0198
     32  CD1        0.3930   -6.2970    7.7330 C.ar   48  TYR48      -0.0009
     33  CD2       -0.4650   -8.4200    7.0340 C.ar   48  TYR48      -0.0009
     34  CE1       -0.3770   -5.6630    6.7730 C.ar   48  TYR48       0.0417
     35  CE2       -1.2430   -7.7910    6.0610 C.ar   48  TYR48       0.0417
     36  CZ        -1.1940   -6.4110    5.9430 C.ar   48  TYR48       0.1957
     37  OH        -1.9820   -5.7650    5.0250 O.3    48  TYR48      -0.2866
     38  N          3.6080   -8.4930   10.5890 N.am   49  THR49      -0.1951
     39  CA         4.2480   -8.8280   11.8510 C.3    49  THR49       0.1897
     40  C          3.0640   -9.2070   12.7370 C.2    49  THR49       0.2313
     41  O          1.9290   -8.8360   12.4440 O.2    49  THR49      -0.2863
     42  CB         4.9710   -7.6090   12.4750 C.3    49  THR49       0.1794
     43  OG1        4.0490   -6.5160   12.6060 O.3    49  THR49      -0.2208
     44  CG2        6.1540   -7.1820   11.6080 C.3    49  THR49       0.0378
     45  N          7.5550   -3.7790   11.5240 N.3    79  LYS79      -0.1231
     46  CA         8.8160   -3.6850   10.7940 C.3    79  LYS79       0.1693
     47  C          8.6020   -3.1970    9.3620 C.2    79  LYS79       0.2592
     48  O          7.7680   -3.7430    8.6420 O.2    79  LYS79      -0.2718
     49  CB         9.4930   -5.0580   10.7700 C.3    79  LYS79       0.0285
     50  CG         9.6540   -5.6920   12.1410 C.3    79  LYS79       0.0035
     51  CD        10.5010   -4.8220   13.0490 C.3    79  LYS79       0.0206
     52  CE        10.6150   -5.4390   14.4450 C.3    79  LYS79       0.1093
     53  NZ        11.4490   -4.5980   15.3480 N.3    79  LYS79      -0.1314
     54  N          9.3680   -2.1850    8.9550 N.am   80  MET80      -0.1965
     55  CA         9.2650   -1.6170    7.6040 C.3    80  MET80       0.1736
     56  C         10.1430   -2.3240    6.5690 C.2    80  MET80       0.2616
     57  O          9.9420   -2.1650    5.3660 O.2    80  MET80      -0.2715
     58  CB         9.6350   -0.1290    7.6150 C.3    80  MET80       0.0427
     59  CG         8.4730    0.8150    7.3230 C.3    80  MET80       0.0599
     60  SD         7.4640    1.1710    8.7650 S.3    80  MET80      -0.1393
     61  CE         6.4290   -0.2580    8.8330 C.3    80  MET80       0.0692
     62  N         11.1310   -3.0810    7.0330 N.am   81  ILE81      -0.1963
     63  CA        12.0120   -3.7950    6.1190 C.3    81  ILE81       0.1727
     64  C         12.1740   -5.2490    6.5490 C.2    81  ILE81       0.2616
     65  O         11.8110   -5.6160    7.6720 O.2    81  ILE81      -0.2715
     66  CB        13.3900   -3.1170    6.0270 C.3    81  ILE81       0.0290
     67  CG1       14.0640   -3.1230    7.3930 C.3    81  ILE81       0.0022
     68  CG2       13.2260   -1.6810    5.5150 C.3    81  ILE81       0.0023
     69  CD1       15.3790   -2.4010    7.4050 C.3    81  ILE81       0.0001
     70  N         12.7050   -6.0680    5.6460 N.am   82  PHE82      -0.1960
     71  CA        12.8890   -7.4880    5.9040 C.3    82  PHE82       0.1771
     72  C         13.2900   -7.8260    7.3400 C.2    82  PHE82       0.2619
     73  O         14.3050   -7.3470    7.8470 O.2    82  PHE82      -0.2715
     74  CB        13.9250   -8.0770    4.9560 C.3    82  PHE82       0.0574
     75  CG        14.0940   -9.5480    5.1150 C.ar   82  PHE82      -0.0200
     76  CD1       13.0410  -10.4100    4.8310 C.ar   82  PHE82      -0.0042
     77  CD2       15.2920  -10.0770    5.5800 C.ar   82  PHE82      -0.0042
     78  CE1       13.1770  -11.7810    5.0090 C.ar   82  PHE82      -0.0003
     79  CE2       15.4390  -11.4430    5.7600 C.ar   82  PHE82      -0.0003
     80  CZ        14.3790  -12.2990    5.4740 C.ar   82  PHE82      -0.0000
     81  N         12.4810   -8.6690    7.9710 N.am   83  ALA83      -0.1963
     82  CA        12.7030   -9.0950    9.3410 C.3    83  ALA83       0.1728
     83  C         12.5620  -10.6060    9.4550 C.2    83  ALA83       0.2616
     84  O         12.4920  -11.1410   10.5600 O.2    83  ALA83      -0.2715
     85  CB        11.7050   -8.4090   10.2660 C.3    83  ALA83       0.0334
     86  N         12.5090  -11.2920    8.3120 N.am   84  GLY84      -0.1955
     87  CA        12.3910  -12.7400    8.3270 C.3    84  GLY84       0.1869
     88  C         11.1650  -13.3160    7.6420 C.2    84  GLY84       0.2309
     89  O         10.1980  -12.6040    7.3790 O.2    84  GLY84      -0.2863
     90  N          8.2170  -16.0550    8.0590 N.3    86  LYS86      -0.1245
     91  CA         7.5300  -16.8960    9.0340 C.3    86  LYS86       0.1561
     92  C          7.2970  -18.3390    8.5780 C.2    86  LYS86       0.2260
     93  O          7.7760  -19.2820    9.2160 O.2    86  LYS86      -0.2867
     94  CB         6.1900  -16.2520    9.4180 C.3    86  LYS86       0.0271
     95  CG         5.4170  -16.9930   10.5020 C.3    86  LYS86       0.0035
     96  CD         4.1460  -16.2440   10.8900 C.3    86  LYS86       0.0206
     97  CE         3.3310  -17.0230   11.9130 C.3    86  LYS86       0.1093
     98  NZ         2.0810  -16.3120   12.3050 N.3    86  LYS86      -0.1314
@<TRIPOS>BOND
     1     1     2    1
     2     6     5    1
     3     2     5    1
     4     2     3    1
     5     5     7    1
     6     3     4    2
     7     8     9    1
     8    14    16   ar
     9    14    13   ar
    10    16    18   ar
    11     9    12    1
    12     9    10    1
    13    12    13    1
    14    13    15   ar
    15    18    17   ar
    16    10    19   am
    17    10    11    2
    18    19    20    1
    19    15    17   ar
    20    76    78   ar
    21    76    75   ar
    22    74    75    1
    23    74    71    1
    24    24    23    1
    25    78    80   ar
    26    37    36    1
    27    75    77   ar
    28    57    56    2
    29    80    79   ar
    30    68    66    1
    31    77    79   ar
    32    70    71    1
    33    70    64   am
    34    23    20    1
    35    23    25    1
    36    20    21    1
    37    71    72    1
    38    36    35   ar
    39    36    34   ar
    40    66    63    1
    41    66    67    1
    42    35    33   ar
    43    63    64    1
    44    63    62    1
    45    22    21    2
    46    64    65    2
    47    56    62   am
    48    56    55    1
    49    21    26   am
    50    34    32   ar
    51    33    31   ar
    52    59    58    1
    53    59    60    1
    54    72    73    2
    55    72    81   am
    56    89    88    2
    57    67    69    1
    58    55    58    1
    59    55    54    1
    60    26    27    1
    61    88    87    1
    62    32    31   ar
    63    31    30    1
    64    81    82    1
    65    90    91    1
    66    86    87    1
    67    86    83   am
    68    27    30    1
    69    27    28    1
    70    92    91    1
    71    92    93    2
    72    48    47    2
    73    60    61    1
    74    54    47   am
    75    91    94    1
    76    82    83    1
    77    82    85    1
    78    47    46    1
    79    94    95    1
    80    83    84    2
    81    28    29    2
    82    28    38   am
    83    95    96    1
    84    38    39    1
    85    49    46    1
    86    49    50    1
    87    46    45    1
    88    96    97    1
    89    44    42    1
    90    39    42    1
    91    39    40    1
    92    97    98    1
    93    50    51    1
    94    41    40    2
    95    42    43    1
    96    51    52    1
    97    52    53    1
