@<TRIPOS>MOLECULE
tmp/3nbvB00.pdb
 149 141 0 0 0
SMALL
GASTEIGER

@<TRIPOS>ATOM
      1  N        -15.0500   11.6390   60.2570 N.3   176  GLU176     -0.1245
      2  CA       -15.8320   12.0440   59.1160 C.3   176  GLU176      0.1567
      3  C        -16.2270   10.8680   58.2400 C.2   176  GLU176      0.2260
      4  O        -17.2030   10.9410   57.4950 O.2   176  GLU176     -0.2867
      5  CB       -15.0780   13.1110   58.3260 C.3   176  GLU176      0.0388
      6  CG       -15.9890   14.1150   57.6380 C.3   176  GLU176      0.1160
      7  CD       -16.2600   13.7460   56.1900 C.2   176  GLU176      0.3649
      8  OE1      -15.2910   13.3510   55.4910 O.co2 176  GLU176     -0.2457
      9  OE2      -17.4370   13.8470   55.7540 O.co2 176  GLU176     -0.2457
     10  N        -19.4480   13.7100   61.7280 N.3   195  SER195     -0.1202
     11  CA       -20.2440   14.1400   60.5860 C.3   195  SER195      0.2020
     12  C        -21.5990   13.4420   60.5520 C.2   195  SER195      0.2618
     13  O        -21.7980   12.3720   61.1590 O.2   195  SER195     -0.2717
     14  CB       -19.4960   13.9070   59.2740 C.3   195  SER195      0.2103
     15  OG       -19.4480   12.5280   58.9640 O.3   195  SER195     -0.2182
     16  N        -22.5350   14.0470   59.8370 N.am  196  LYS196     -0.1979
     17  CA       -23.8610   13.4750   59.7760 C.3   196  LYS196      0.1596
     18  C        -23.7880   12.1350   59.0640 C.2   196  LYS196      0.2287
     19  O        -24.5200   11.2010   59.3870 O.2   196  LYS196     -0.2864
     20  CB       -24.8350   14.4330   59.0950 C.3   196  LYS196      0.0298
     21  CG       -24.7070   14.5390   57.6140 C.3   196  LYS196      0.0038
     22  CD       -25.6650   15.6080   57.0810 C.3   196  LYS196      0.0206
     23  CE       -25.4240   15.8780   55.5950 C.3   196  LYS196      0.1093
     24  NZ       -24.0430   16.3840   55.3400 N.3   196  LYS196     -0.1314
     25  N        -23.0160   18.7000   62.8990 N.3   227  ALA227     -0.1245
     26  CA       -23.7050   19.5660   61.9390 C.3   227  ALA227      0.1562
     27  C        -24.5970   18.7170   61.0490 C.2   227  ALA227      0.2260
     28  O        -24.2380   17.5900   60.7020 O.2   227  ALA227     -0.2867
     29  CB       -22.7020   20.3210   61.0910 C.3   227  ALA227      0.0290
     30  N        -26.3860   19.7040   57.8620 N.3   229  ALA229     -0.1231
     31  CA       -26.7670   20.4100   56.6460 C.3   229  ALA229      0.1694
     32  C        -27.7620   21.5310   56.9110 C.2   229  ALA229      0.2591
     33  O        -27.4880   22.4300   57.7060 O.2   229  ALA229     -0.2718
     34  CB       -27.3140   19.4250   55.6240 C.3   229  ALA229      0.0304
     35  N        -28.9200   21.4740   56.2560 N.am  230  GLU230     -0.1979
     36  CA       -29.9400   22.5230   56.3920 C.3   230  GLU230      0.1602
     37  C        -30.6380   22.5680   57.7520 C.2   230  GLU230      0.2287
     38  O        -31.3840   23.5040   58.0420 O.2   230  GLU230     -0.2864
     39  CB       -30.9830   22.4470   55.2610 C.3   230  GLU230      0.0415
     40  CG       -31.7630   21.1330   55.1950 C.3   230  GLU230      0.1163
     41  CD       -30.8840   19.9140   54.8810 C.2   230  GLU230      0.3649
     42  OE1      -30.1330   19.9490   53.8790 O.co2 230  GLU230     -0.2457
     43  OE2      -30.9440   18.9170   55.6440 O.co2 230  GLU230     -0.2457
     44  N        -28.9380   22.9640   60.4630 N.3   232  GLY232     -0.1210
     45  CA       -27.9850   23.5940   61.3640 C.3   232  GLY232      0.1956
     46  C        -27.0880   22.5950   62.0780 C.2   232  GLY232      0.2611
     47  O        -26.6130   21.6380   61.4710 O.2   232  GLY232     -0.2717
     48  N        -26.8750   22.7970   63.3720 N.am  233  ALA233     -0.1979
     49  CA       -25.9280   21.9820   64.1200 C.3   233  ALA233      0.1597
     50  C        -26.2380   21.9410   65.6150 C.2   233  ALA233      0.2287
     51  O        -26.7750   22.8940   66.1700 O.2   233  ALA233     -0.2864
     52  CB       -24.4860   22.5230   63.8930 C.3   233  ALA233      0.0319
     53  N        -29.5720   26.6450   60.7910 N.3   247  ALA247     -0.1231
     54  CA       -28.8170   27.0760   59.6470 C.3   247  ALA247      0.1694
     55  C        -29.1650   28.5240   59.3030 C.2   247  ALA247      0.2592
     56  O        -30.1570   29.0880   59.7960 O.2   247  ALA247     -0.2718
     57  CB       -29.1000   26.1670   58.4790 C.3   247  ALA247      0.0304
     58  N        -28.3000   29.1320   58.4970 N.am  248  PHE248     -0.1963
     59  CA       -28.5280   30.4520   57.9420 C.3   248  PHE248      0.1756
     60  C        -28.5130   30.3090   56.4340 C.2   248  PHE248      0.2461
     61  O        -27.4890   30.5370   55.7970 O.2   248  PHE248     -0.2730
     62  CB       -27.4580   31.4250   58.3990 C.3   248  PHE248      0.0574
     63  CG       -27.4890   31.6830   59.8560 C.ar  248  PHE248     -0.0200
     64  CD1      -27.9870   32.8790   60.3510 C.ar  248  PHE248     -0.0042
     65  CD2      -27.0680   30.7070   60.7530 C.ar  248  PHE248     -0.0042
     66  CE1      -28.0450   33.1160   61.7320 C.ar  248  PHE248     -0.0003
     67  CE2      -27.1270   30.9300   62.1290 C.ar  248  PHE248     -0.0003
     68  CZ       -27.6080   32.1380   62.6200 C.ar  248  PHE248     -0.0000
     69  N        -29.6620   29.9080   55.8620 N.am  249  PRO249     -0.2716
     70  CA       -29.7780   29.6610   54.4200 C.3   249  PRO249      0.1521
     71  C        -29.3570   30.9200   53.6770 C.2   249  PRO249      0.2440
     72  O        -29.6400   32.0310   54.1370 O.2   249  PRO249     -0.2731
     73  CB       -31.2770   29.3930   54.2170 C.3   249  PRO249      0.0310
     74  CG       -31.8160   29.0570   55.5950 C.3   249  PRO249      0.0237
     75  CD       -30.9590   29.8220   56.5610 C.3   249  PRO249      0.0939
     76  N        -28.6200   30.7550   52.5800 N.am  250  PRO250     -0.2727
     77  CA       -28.2230   31.8930   51.7500 C.3   250  PRO250      0.1402
     78  C        -29.2980   32.1400   50.6770 C.2   250  PRO250      0.2269
     79  O        -30.1170   31.2440   50.4310 O.2   250  PRO250     -0.2865
     80  CB       -26.9290   31.3970   51.1100 C.3   250  PRO250      0.0296
     81  CG       -27.1260   29.9220   50.9860 C.3   250  PRO250      0.0237
     82  CD       -28.0200   29.4890   52.1210 C.3   250  PRO250      0.0939
     83  N        -28.5930   28.3860   47.1560 N.3   253  VAL253     -0.1245
     84  CA       -27.5010   27.4500   47.3880 C.3   253  VAL253      0.1561
     85  C        -26.7160   27.1630   46.1130 C.2   253  VAL253      0.2260
     86  O        -27.2460   26.6150   45.1490 O.2   253  VAL253     -0.2867
     87  CB       -28.0100   26.1320   48.0120 C.3   253  VAL253      0.0252
     88  CG1      -26.8870   25.1260   48.1310 C.3   253  VAL253      0.0019
     89  CG2      -28.6040   26.4060   49.3770 C.3   253  VAL253      0.0019
     90  N        -22.0770   23.5850   48.2860 N.3   256  THR256     -0.1203
     91  CA       -21.9760   23.1070   49.6600 C.3   256  THR256      0.1994
     92  C        -20.7470   22.2460   49.9060 C.2   256  THR256      0.2618
     93  O        -20.5480   21.7530   51.0170 O.2   256  THR256     -0.2717
     94  CB       -23.2390   22.3370   50.1180 C.3   256  THR256      0.1784
     95  OG1      -23.4520   21.2090   49.2680 O.3   256  THR256     -0.2211
     96  CG2      -24.4610   23.2370   50.0640 C.3   256  THR256      0.0376
     97  N        -19.9190   22.0650   48.8810 N.am  257  LEU257     -0.1965
     98  CA       -18.6620   21.3560   49.0740 C.3   257  LEU257      0.1728
     99  C        -17.7740   22.1410   50.0310 C.2   257  LEU257      0.2617
    100  O        -17.4560   23.3040   49.7850 O.2   257  LEU257     -0.2715
    101  CB       -17.9280   21.1230   47.7430 C.3   257  LEU257      0.0311
    102  CG       -18.2960   19.8600   46.9530 C.3   257  LEU257      0.0022
    103  CD1      -19.8010   19.7180   46.8250 C.3   257  LEU257      0.0001
    104  CD2      -17.6400   19.8490   45.5690 C.3   257  LEU257      0.0001
    105  N        -17.3940   21.5070   51.1350 N.am  258  GLY258     -0.1940
    106  CA       -16.5280   22.1460   52.1110 C.3   258  GLY258      0.2014
    107  C        -17.2570   22.9690   53.1560 C.2   258  GLY258      0.2639
    108  O        -16.6130   23.6330   53.9850 O.2   258  GLY258     -0.2714
    109  N        -18.5920   22.9360   53.1230 N.am  259  ALA259     -0.1963
    110  CA       -19.3820   23.5930   54.1640 C.3   259  ALA259      0.1728
    111  C        -19.0720   23.0130   55.5430 C.2   259  ALA259      0.2616
    112  O        -18.9450   23.7550   56.5060 O.2   259  ALA259     -0.2715
    113  CB       -20.8790   23.5000   53.8770 C.3   259  ALA259      0.0334
    114  N        -18.9630   21.6900   55.6370 N.am  260  GLY260     -0.1955
    115  CA       -18.6200   21.0480   56.8960 C.3   260  GLY260      0.1869
    116  C        -17.2690   21.5180   57.4340 C.2   260  GLY260      0.2309
    117  O        -17.1440   21.8080   58.6190 O.2   260  GLY260     -0.2863
    118  N        -17.5970   25.0420   58.6290 N.3   263  PHE263     -0.1241
    119  CA       -18.2340   25.0030   59.9190 C.3   263  PHE263      0.1605
    120  C        -17.2160   24.6160   60.9800 C.2   263  PHE263      0.2264
    121  O        -17.0890   25.2910   61.9900 O.2   263  PHE263     -0.2867
    122  CB       -19.3760   23.9950   59.9070 C.3   263  PHE263      0.0534
    123  CG       -19.9770   23.7570   61.2530 C.ar  263  PHE263     -0.0203
    124  CD1      -20.9300   24.6370   61.7730 C.ar  263  PHE263     -0.0042
    125  CD2      -19.6030   22.6470   62.0030 C.ar  263  PHE263     -0.0042
    126  CE1      -21.5020   24.4150   63.0270 C.ar  263  PHE263     -0.0003
    127  CE2      -20.1690   22.4240   63.2530 C.ar  263  PHE263     -0.0003
    128  CZ       -21.1240   23.3170   63.7630 C.ar  263  PHE263     -0.0000
    129  N        -22.4980   28.1800   62.0610 N.3   285  CYS285     -0.1235
    130  CA       -23.6250   28.1070   61.1300 C.3   285  CYS285      0.1677
    131  C        -23.7250   29.3450   60.2480 C.2   285  CYS285      0.2270
    132  O        -24.0640   29.2530   59.0750 O.2   285  CYS285     -0.2867
    133  CB       -24.9410   27.8240   61.8750 C.3   285  CYS285      0.0956
    134  SG       -25.0710   26.0950   62.4020 S.3   285  CYS285     -0.0801
    135  N        -20.7020   29.0750   57.5770 N.3   288  ALA288     -0.1231
    136  CA       -20.9160   27.9690   56.6500 C.3   288  ALA288      0.1694
    137  C        -22.1410   28.2120   55.7560 C.2   288  ALA288      0.2592
    138  O        -22.1660   27.8010   54.5940 O.2   288  ALA288     -0.2718
    139  CB       -21.0390   26.6330   57.4130 C.3   288  ALA288      0.0304
    140  N        -23.1620   28.8730   56.2940 N.am  289  GLY289     -0.1957
    141  CA       -24.3500   29.1740   55.4940 C.3   289  GLY289      0.1869
    142  C        -24.0410   30.1960   54.4180 C.2   289  GLY289      0.2309
    143  O        -24.3920   30.0220   53.2540 O.2   289  GLY289     -0.2863
    144  N        -22.2770   28.4880   51.6680 N.3   292  CYS292     -0.1235
    145  CA       -23.1190   27.6660   50.8080 C.3   292  CYS292      0.1677
    146  C        -23.6820   28.4270   49.5950 C.2   292  CYS292      0.2270
    147  O        -24.0450   27.8140   48.5970 O.2   292  CYS292     -0.2867
    148  CB       -24.2290   27.0140   51.6240 C.3   292  CYS292      0.0956
    149  SG       -23.6390   25.5990   52.5770 S.3   292  CYS292     -0.0801
@<TRIPOS>BOND
     1    86    85    2
     2   104   102    1
     3    85    84    1
     4   103   102    1
     5   102   101    1
     6    83    84    1
     7    84    87    1
     8   101    98    1
     9    87    88    1
    10    87    89    1
    11    90    91    1
    12   147   146    2
    13    97    98    1
    14    97    92   am
    15    98    99    1
    16    95    94    1
    17   146   145    1
    18    91    92    1
    19    91    94    1
    20   100    99    2
    21    92    93    2
    22    99   105   am
    23    96    94    1
    24    79    78    2
    25    78    77    1
    26   145   148    1
    27   145   144    1
    28    81    80    1
    29    81    82    1
    30    80    77    1
    31   105   106    1
    32   148   149    1
    33    77    76    1
    34   106   107    1
    35    82    76    1
    36    76    71   am
    37   109   107   am
    38   109   110    1
    39   107   108    2
    40   143   142    2
    41    71    72    2
    42    71    70    1
    43   113   110    1
    44    42    41   ar
    45   110   111    1
    46    73    70    1
    47    73    74    1
    48   142   141    1
    49    70    69    1
    50   138   137    2
    51    41    40    1
    52    41    43   ar
    53    40    39    1
    54    39    36    1
    55    24    23    1
    56     8     7   ar
    57   141   140    1
    58   111   114   am
    59   111   112    2
    60    23    22    1
    61    74    75    1
    62    34    31    1
    63   114   115    1
    64     9     7   ar
    65   137   140   am
    66   137   136    1
    67    61    60    2
    68    69    60   am
    69    69    75    1
    70     7     6    1
    71    35    36    1
    72    35    32   am
    73    36    37    1
    74    60    59    1
    75    31    32    1
    76    31    30    1
    77   136   139    1
    78   136   135    1
    79   115   116    1
    80    32    33    2
    81    22    21    1
    82   116   117    2
    83     4     3    2
    84    21    20    1
    85     6     5    1
    86    37    38    2
    87    59    62    1
    88    59    58    1
    89     3     2    1
    90     5     2    1
    91    62    63    1
    92    57    54    1
    93    58    55   am
    94   118   119    1
    95    15    14    1
    96    18    19    2
    97    18    17    1
    98   132   131    2
    99    20    17    1
   100     2     1    1
   101    14    11    1
   102    55    54    1
   103    55    56    2
   104    54    53    1
   105    17    16    1
   106    16    12   am
   107    63    64   ar
   108    63    65   ar
   109   122   119    1
   110   122   123    1
   111   119   120    1
   112   131   130    1
   113    64    66   ar
   114    44    45    1
   115    12    11    1
   116    12    13    2
   117    11    10    1
   118    28    27    2
   119    65    67   ar
   120   120   121    2
   121    27    26    1
   122    29    26    1
   123   130   133    1
   124   130   129    1
   125   123   124   ar
   126   123   125   ar
   127    45    46    1
   128    47    46    2
   129    66    68   ar
   130   124   126   ar
   131   133   134    1
   132    26    25    1
   133   125   127   ar
   134    46    48   am
   135    67    68   ar
   136   126   128   ar
   137   127   128   ar
   138    48    49    1
   139    52    49    1
   140    49    50    1
   141    50    51    2
