@<TRIPOS>MOLECULE
tmp/3nbwA00.pdb
 113 106 0 0 0
SMALL
GASTEIGER

@<TRIPOS>ATOM
      1  N         -4.7760    2.8200   10.3790 N.3   222  ALA222     -0.1245
      2  CA        -4.6380    1.8070   11.4230 C.3   222  ALA222      0.1562
      3  C         -6.0100    1.4510   11.9710 C.2   222  ALA222      0.2260
      4  O         -6.9270    2.2690   11.9570 O.2   222  ALA222     -0.2867
      5  CB        -3.7290    2.2930   12.5380 C.3   222  ALA222      0.0290
      6  N         -6.5550   -0.6490   15.0950 N.3   224  ALA224     -0.1231
      7  CA        -6.4080   -1.2930   16.3910 C.3   224  ALA224      0.1694
      8  C         -6.0420   -2.7760   16.2720 C.2   224  ALA224      0.2591
      9  O         -5.0790   -3.1180   15.5860 O.2   224  ALA224     -0.2718
     10  CB        -7.6640   -1.0830   17.2410 C.3   224  ALA224      0.0304
     11  N         -6.7960   -3.6480   16.9380 N.am  225  GLU225     -0.1979
     12  CA        -6.4230   -5.0530   17.0100 C.3   225  GLU225      0.1602
     13  C         -6.5830   -5.7080   15.6590 C.2   225  GLU225      0.2287
     14  O         -6.1700   -6.8500   15.4550 O.2   225  GLU225     -0.2864
     15  CB        -7.2280   -5.7920   18.0730 C.3   225  GLU225      0.0415
     16  CG        -8.6040   -5.2210   18.3010 C.3   225  GLU225      0.1163
     17  CD        -8.5920   -4.0650   19.2750 C.2   225  GLU225      0.3649
     18  OE1       -9.2170   -3.0230   18.9760 O.co2 225  GLU225     -0.2457
     19  OE2       -7.9600   -4.2030   20.3470 O.co2 225  GLU225     -0.2457
     20  N         -4.9940   -4.6310   13.1210 N.3   227  GLY227     -0.1210
     21  CA        -3.8140   -4.2360   12.3770 C.3   227  GLY227      0.1956
     22  C         -4.0130   -2.9720   11.5500 C.2   227  GLY227      0.2611
     23  O         -4.8850   -2.1630   11.8390 O.2   227  GLY227     -0.2717
     24  N         -3.1960   -2.7950   10.5200 N.am  228  ALA228     -0.1979
     25  CA        -3.2540   -1.5940    9.7030 C.3   228  ALA228      0.1597
     26  C         -3.1180   -1.9500    8.2220 C.2   228  ALA228      0.2287
     27  O         -2.5650   -3.0050    7.8840 O.2   228  ALA228     -0.2864
     28  CB        -2.1790   -0.6460   10.1130 C.3   228  ALA228      0.0319
     29  N         -1.7670   -6.9110   13.4660 N.3   242  ALA242     -0.1231
     30  CA        -1.3710   -6.2590   14.7090 C.3   242  ALA242      0.1694
     31  C         -0.3500   -7.1190   15.4560 C.2   242  ALA242      0.2592
     32  O         -0.2100   -8.3140   15.1740 O.2   242  ALA242     -0.2718
     33  CB        -2.6280   -6.0530   15.5830 C.3   242  ALA242      0.0304
     34  N          0.3530   -6.5210   16.4130 N.am  243  PHE243     -0.1963
     35  CA         1.1620   -7.2850   17.3600 C.3   243  PHE243      0.1756
     36  C          0.6520   -7.1230   18.8100 C.2   243  PHE243      0.2461
     37  O          1.3300   -6.5310   19.6500 O.2   243  PHE243     -0.2730
     38  CB         2.6310   -6.8140   17.3370 C.3   243  PHE243      0.0574
     39  CG         3.3800   -7.0750   16.0420 C.ar  243  PHE243     -0.0200
     40  CD1        4.5260   -7.8610   16.0420 C.ar  243  PHE243     -0.0042
     41  CD2        2.9840   -6.4830   14.8480 C.ar  243  PHE243     -0.0042
     42  CE1        5.2420   -8.0850   14.8740 C.ar  243  PHE243     -0.0003
     43  CE2        3.7040   -6.7020   13.6590 C.ar  243  PHE243     -0.0003
     44  CZ         4.8250   -7.5020   13.6740 C.ar  243  PHE243     -0.0000
     45  N         -0.5210   -7.6730   19.1270 N.am  244  PRO244     -0.2716
     46  CA        -1.0470   -7.4930   20.4870 C.3   244  PRO244      0.1521
     47  C         -0.1580   -8.0810   21.5860 C.2   244  PRO244      0.2440
     48  O          0.2200   -9.2350   21.5110 O.2   244  PRO244     -0.2731
     49  CB        -2.3690   -8.2770   20.4560 C.3   244  PRO244      0.0310
     50  CG        -2.1440   -9.3170   19.4220 C.3   244  PRO244      0.0237
     51  CD        -1.3630   -8.5840   18.3410 C.3   244  PRO244      0.0939
     52  N          0.1340   -7.2920   22.6210 N.am  245  PRO245     -0.2727
     53  CA         0.7900   -7.8360   23.8020 C.3   245  PRO245      0.1402
     54  C         -0.1820   -8.7980   24.4940 C.2   245  PRO245      0.2269
     55  O         -1.3940   -8.5920   24.4550 O.2   245  PRO245     -0.2865
     56  CB         1.0010   -6.5880   24.6650 C.3   245  PRO245      0.0296
     57  CG        -0.1560   -5.7210   24.3170 C.3   245  PRO245      0.0237
     58  CD        -0.3700   -5.9280   22.8480 C.3   245  PRO245      0.0939
     59  N         -2.7630   -6.3590   27.3390 N.3   248  VAL248     -0.1245
     60  CA        -2.9420   -4.9500   27.0160 C.3   248  VAL248      0.1561
     61  C         -3.2280   -4.1380   28.3030 C.2   248  VAL248      0.2260
     62  O         -4.2600   -4.3430   28.9600 O.2   248  VAL248     -0.2867
     63  CB        -4.1090   -4.7610   26.0220 C.3   248  VAL248      0.0252
     64  CG1       -4.1450   -3.3430   25.4920 C.3   248  VAL248      0.0019
     65  CG2       -4.0010   -5.7460   24.8730 C.3   248  VAL248      0.0019
     66  N         -3.2570    1.7740   26.2090 N.3   251  THR251     -0.1218
     67  CA        -3.2930    2.1850   24.8150 C.3   251  THR251      0.1862
     68  C         -3.2120    3.6940   24.5840 C.2   251  THR251      0.2287
     69  O         -3.3840    4.1380   23.4520 O.2   251  THR251     -0.2866
     70  CB        -4.5780    1.7100   24.1180 C.3   251  THR251      0.1770
     71  OG1       -5.7160    2.3600   24.6950 O.3   251  THR251     -0.2211
     72  CG2       -4.7270    0.2060   24.2420 C.3   251  THR251      0.0375
     73  N         -1.0790    5.0000   21.6100 N.3   254  ALA254     -0.1231
     74  CA        -0.7710    3.9080   20.6680 C.3   254  ALA254      0.1694
     75  C         -0.7490    4.3650   19.2000 C.2   254  ALA254      0.2592
     76  O          0.1560    4.0230   18.4690 O.2   254  ALA254     -0.2718
     77  CB        -1.7360    2.7480   20.8310 C.3   254  ALA254      0.0304
     78  N         -1.7600    5.1180   18.7830 N.am  255  GLY255     -0.1957
     79  CA        -1.8170    5.6780   17.4470 C.3   255  GLY255      0.1869
     80  C         -0.6590    6.6080   17.1380 C.2   255  GLY255      0.2309
     81  O         -0.1620    6.6340   16.0080 O.2   255  GLY255     -0.2863
     82  N          2.2040    4.4490   16.5260 N.3   258  PHE258     -0.1241
     83  CA         2.0940    3.8570   15.2120 C.3   258  PHE258      0.1605
     84  C          2.5470    4.8600   14.1380 C.2   258  PHE258      0.2264
     85  O          3.3960    4.5240   13.3040 O.2   258  PHE258     -0.2867
     86  CB         0.6820    3.3220   14.9470 C.3   258  PHE258      0.0534
     87  CG         0.4310    2.9350   13.4990 C.ar  258  PHE258     -0.0203
     88  CD1        0.8050    1.6820   13.0160 C.ar  258  PHE258     -0.0042
     89  CD2       -0.1930    3.8130   12.6300 C.ar  258  PHE258     -0.0042
     90  CE1        0.5750    1.3200   11.6910 C.ar  258  PHE258     -0.0003
     91  CE2       -0.4300    3.4580   11.2990 C.ar  258  PHE258     -0.0003
     92  CZ        -0.0400    2.2070   10.8280 C.ar  258  PHE258     -0.0000
     93  N          3.0100   -1.4180   13.4550 N.3   280  CYS280     -0.1235
     94  CA         2.1500   -2.2460   14.2830 C.3   280  CYS280      0.1677
     95  C          2.9640   -2.8830   15.3720 C.2   280  CYS280      0.2270
     96  O          2.4870   -3.0490   16.4810 O.2   280  CYS280     -0.2867
     97  CB         1.4790   -3.3310   13.4670 C.3   280  CYS280      0.0956
     98  SG         0.2720   -2.7190   12.2930 S.3   280  CYS280     -0.0801
     99  N          3.7600   -0.0720   18.1050 N.3   283  ALA283     -0.1231
    100  CA         2.4970    0.2690   18.7450 C.3   283  ALA283      0.1694
    101  C          2.0640   -0.8440   19.6970 C.2   283  ALA283      0.2592
    102  O          1.5720   -0.5750   20.8020 O.2   283  ALA283     -0.2718
    103  CB         1.4170    0.5070   17.7270 C.3   283  ALA283      0.0304
    104  N          2.2670   -2.0860   19.2600 N.am  284  GLY284     -0.1957
    105  CA         1.8260   -3.2500   19.9960 C.3   284  GLY284      0.1869
    106  C          2.6490   -3.4200   21.2440 C.2   284  GLY284      0.2309
    107  O          2.1050   -3.6650   22.3170 O.2   284  GLY284     -0.2863
    108  N          1.5350   -0.9460   23.8980 N.3   287  CYS287     -0.1235
    109  CA         0.2750   -1.2780   24.5680 C.3   287  CYS287      0.1677
    110  C          0.4310   -2.2710   25.7170 C.2   287  CYS287      0.2270
    111  O         -0.4610   -2.4150   26.5370 O.2   287  CYS287     -0.2867
    112  CB        -0.7430   -1.8040   23.5610 C.3   287  CYS287      0.0956
    113  SG        -1.2810   -0.5370   22.4740 S.3   287  CYS287     -0.0801
@<TRIPOS>BOND
     1    27    26    2
     2    26    25    1
     3    25    28    1
     4    25    24    1
     5     1     2    1
     6    24    22   am
     7    92    91   ar
     8    92    90   ar
     9    91    89   ar
    10     2     3    1
    11     2     5    1
    12    22    23    2
    13    22    21    1
    14    90    88   ar
    15     4     3    2
    16    98    97    1
    17    21    20    1
    18    89    87   ar
    19    88    87   ar
    20    85    84    2
    21    93    94    1
    22    29    30    1
    23    97    94    1
    24    87    86    1
    25    43    44   ar
    26    43    41   ar
    27    44    42   ar
    28    84    83    1
    29    94    95    1
    30    30    31    1
    31    30    33    1
    32    41    39   ar
    33    42    40   ar
    34    86    83    1
    35     6     7    1
    36    32    31    2
    37    83    82    1
    38    95    96    2
    39    14    13    2
    40    31    34   am
    41     9     8    2
    42    13    12    1
    43    81    80    2
    44    39    40   ar
    45    39    38    1
    46     8     7    1
    47     8    11   am
    48     7    10    1
    49    34    35    1
    50    11    12    1
    51    12    15    1
    52    80    79    1
    53    38    35    1
    54    35    36    1
    55    79    78    1
    56   103   100    1
    57    15    16    1
    58    99   100    1
    59    16    17    1
    60    51    45    1
    61    51    50    1
    62    76    75    2
    63   100   101    1
    64    78    75   am
    65    36    45   am
    66    36    37    2
    67    18    17   ar
    68    45    46    1
    69    75    74    1
    70   104   101   am
    71   104   105    1
    72    17    19   ar
    73    50    49    1
    74   101   102    2
    75   105   106    1
    76    49    46    1
    77    46    47    1
    78    74    77    1
    79    74    73    1
    80   106   107    2
    81    48    47    2
    82    47    52   am
    83   113   112    1
    84    52    58    1
    85    52    53    1
    86    58    57    1
    87    69    68    2
    88   112   109    1
    89    53    54    1
    90    53    56    1
    91   108   109    1
    92    70    72    1
    93    70    71    1
    94    70    67    1
    95    57    56    1
    96    55    54    2
    97   109   110    1
    98    68    67    1
    99    67    66    1
   100    65    63    1
   101    64    63    1
   102   110   111    2
   103    63    60    1
   104    60    59    1
   105    60    61    1
   106    61    62    2
