@<TRIPOS>MOLECULE
tmp/3nbxA00.pdb
 134 128 0 0 0
SMALL
GASTEIGER

@<TRIPOS>ATOM
      1  N         30.9070   32.5030   56.0130 N.3    19  GLY19      -0.1210
      2  CA        31.2410   31.1060   55.7550 C.3    19  GLY19       0.1956
      3  C         30.6110   30.5180   54.5060 C.2    19  GLY19       0.2612
      4  O         30.8570   29.3570   54.1720 O.2    19  GLY19      -0.2717
      5  N         29.8030   31.3180   53.8140 N.am   20  LEU20      -0.1965
      6  CA        29.1210   30.8650   52.6080 C.3    20  LEU20       0.1728
      7  C         29.6660   31.5760   51.3740 C.2    20  LEU20       0.2616
      8  O         29.7300   32.8050   51.3280 O.2    20  LEU20      -0.2715
      9  CB        27.6050   31.0610   52.7390 C.3    20  LEU20       0.0311
     10  CG        26.9130   30.3160   53.8880 C.3    20  LEU20       0.0022
     11  CD1       25.4440   30.6900   53.9840 C.3    20  LEU20       0.0001
     12  CD2       27.0720   28.8100   53.7500 C.3    20  LEU20       0.0001
     13  N         30.0490   30.7920   50.3740 N.am   21  TYR21      -0.1974
     14  CA        30.7610   31.3180   49.2150 C.3    21  TYR21       0.1639
     15  C         29.9300   31.2400   47.9470 C.2    21  TYR21       0.2290
     16  O         29.3810   30.1870   47.6220 O.2    21  TYR21      -0.2864
     17  CB        32.1130   30.6090   49.0550 C.3    21  TYR21       0.0560
     18  CG        33.0110   30.8510   50.2470 C.ar   21  TYR21      -0.0198
     19  CD1       33.8970   31.9280   50.2660 C.ar   21  TYR21      -0.0009
     20  CD2       32.9420   30.0320   51.3760 C.ar   21  TYR21      -0.0009
     21  CE1       34.7040   32.1730   51.3650 C.ar   21  TYR21       0.0417
     22  CE2       33.7460   30.2710   52.4850 C.ar   21  TYR21       0.0417
     23  CZ        34.6260   31.3420   52.4700 C.ar   21  TYR21       0.1957
     24  OH        35.4250   31.5850   53.5620 O.3    21  TYR21      -0.2866
     25  N         27.1050   32.8060   47.4260 N.3    23  ARG23      -0.1245
     26  CA        25.6980   32.6760   47.8130 C.3    23  ARG23       0.1563
     27  C         25.0990   33.9720   48.3500 C.2    23  ARG23       0.2260
     28  O         24.0090   33.9580   48.9260 O.2    23  ARG23      -0.2867
     29  CB        25.5280   31.5660   48.8610 C.3    23  ARG23       0.0307
     30  CG        25.8880   30.1620   48.3910 C.3    23  ARG23       0.0489
     31  CD        24.9910   29.7030   47.2470 C.3    23  ARG23       0.2205
     32  NE        25.2610   28.3190   46.8710 N.pl3  23  ARG23      -0.0865
     33  CZ        26.1400   27.9430   45.9490 C.cat  23  ARG23       0.5346
     34  NH1       26.8510   28.8460   45.2870 N.pl3  23  ARG23       0.1354
     35  NH2       26.3050   26.6530   45.6900 N.pl3  23  ARG23       0.1354
     36  N         23.2430   18.0800   44.4260 N.3    46  PRO46      -0.2102
     37  CA        23.4290   17.8690   45.8650 C.3    46  PRO46       0.1504
     38  C         24.7260   18.4640   46.4120 C.2    46  PRO46       0.2576
     39  O         25.6750   18.6980   45.6560 O.2    46  PRO46      -0.2718
     40  CB        23.4660   16.3410   45.9970 C.3    46  PRO46       0.0282
     41  CG        22.8770   15.8190   44.7420 C.3    46  PRO46       0.0208
     42  CD        23.2520   16.8020   43.6910 C.3    46  PRO46       0.0893
     43  N         24.7450   18.7120   47.7190 N.am   47  GLY47      -0.1943
     44  CA        25.9510   19.1370   48.4210 C.3    47  GLY47       0.2014
     45  C         26.4800   20.5090   48.0610 C.2    47  GLY47       0.2639
     46  O         27.6930   20.7180   48.0300 O.2    47  GLY47      -0.2714
     47  N         25.5730   21.4440   47.7890 N.am   48  ILE48      -0.1963
     48  CA        25.9650   22.8090   47.4570 C.3    48  ILE48       0.1727
     49  C         25.3550   23.8370   48.4200 C.2    48  ILE48       0.2616
     50  O         25.0520   24.9690   48.0440 O.2    48  ILE48      -0.2715
     51  CB        25.7110   23.1520   45.9580 C.3    48  ILE48       0.0290
     52  CG1       24.2150   23.1790   45.6320 C.3    48  ILE48       0.0022
     53  CG2       26.4700   22.1780   45.0470 C.3    48  ILE48       0.0023
     54  CD1       23.8870   23.8630   44.3150 C.3    48  ILE48       0.0001
     55  N         25.2020   23.4190   49.6740 N.am   49  ALA49      -0.1963
     56  CA        24.7460   24.2740   50.7750 C.3    49  ALA49       0.1728
     57  C         23.2880   24.7500   50.6840 C.2    49  ALA49       0.2616
     58  O         22.9020   25.6970   51.3690 O.2    49  ALA49      -0.2715
     59  CB        25.7110   25.4530   50.9890 C.3    49  ALA49       0.0334
     60  N         22.4740   24.0790   49.8710 N.am   50  LYS50      -0.1963
     61  CA        21.0510   24.4280   49.7620 C.3    50  LYS50       0.1728
     62  C         20.3440   24.3070   51.1070 C.2    50  LYS50       0.2617
     63  O         19.6810   25.2410   51.5470 O.2    50  LYS50      -0.2715
     64  CB        20.3350   23.5800   48.7050 C.3    50  LYS50       0.0311
     65  CG        20.7830   23.8450   47.2620 C.3    50  LYS50       0.0038
     66  CD        19.8780   23.1490   46.2400 C.3    50  LYS50       0.0206
     67  CE        19.7880   21.6370   46.4520 C.3    50  LYS50       0.1093
     68  NZ        21.0430   20.9250   46.0930 N.3    50  LYS50      -0.1314
     69  N         20.5020   23.1650   51.7680 N.am   51  SER51      -0.1936
     70  CA        19.9110   22.9680   53.0870 C.3    51  SER51       0.2055
     71  C         20.5360   23.9100   54.1050 C.2    51  SER51       0.2642
     72  O         19.8400   24.4510   54.9650 O.2    51  SER51      -0.2714
     73  CB        20.0630   21.5190   53.5470 C.3    51  SER51       0.2130
     74  OG        21.3770   21.2600   53.9950 O.3    51  SER51      -0.2179
     75  N         21.8490   24.1040   53.9890 N.am   52  LEU52      -0.1977
     76  CA        22.6010   24.9340   54.9250 C.3    52  LEU52       0.1596
     77  C         22.0560   26.3570   54.9980 C.2    52  LEU52       0.2287
     78  O         21.8040   26.8710   56.0950 O.2    52  LEU52      -0.2864
     79  CB        24.1020   24.9350   54.5880 C.3    52  LEU52       0.0297
     80  CG        25.0610   25.8090   55.4190 C.3    52  LEU52       0.0022
     81  CD1       24.8390   25.6890   56.9290 C.3    52  LEU52       0.0001
     82  CD2       26.5000   25.4820   55.0750 C.3    52  LEU52       0.0001
     83  N         18.7990   26.4880   56.8600 N.3    55  ARG55      -0.1245
     84  CA        18.9980   26.4250   58.3090 C.3    55  ARG55       0.1563
     85  C         19.6110   27.6970   58.8750 C.2    55  ARG55       0.2260
     86  O         19.3300   28.0650   60.0160 O.2    55  ARG55      -0.2867
     87  CB        19.8650   25.2310   58.6960 C.3    55  ARG55       0.0307
     88  CG        19.0740   23.9860   59.0620 C.3    55  ARG55       0.0489
     89  CD        19.9930   22.8010   59.3040 C.3    55  ARG55       0.2205
     90  NE        20.9550   22.6500   58.2170 N.pl3  55  ARG55      -0.0865
     91  CZ        21.5210   21.5050   57.8610 C.cat  55  ARG55       0.5346
     92  NH1       21.2240   20.3810   58.5030 N.pl3  55  ARG55       0.1354
     93  NH2       22.3830   21.4860   56.8550 N.pl3  55  ARG55       0.1354
     94  N         13.5340   19.2870   51.2910 N.3   102  ASP102     -0.1239
     95  CA        14.4190   18.8700   50.2100 C.3   102  ASP102      0.1674
     96  C         13.7390   17.8340   49.3230 C.2   102  ASP102      0.2266
     97  O         12.8920   17.0600   49.7890 O.2   102  ASP102     -0.2867
     98  CB        15.7330   18.3130   50.7750 C.3   102  ASP102      0.1410
     99  CG        16.9030   18.4200   49.7930 C.2   102  ASP102      0.3668
    100  OD1       16.6910   18.5530   48.5680 O.co2 102  ASP102     -0.2456
    101  OD2       18.0580   18.3640   50.2590 O.co2 102  ASP102     -0.2456
    102  N         27.7420   24.5030   42.0650 N.3   167  LYS167     -0.1231
    103  CA        28.9860   24.4060   42.8350 C.3   167  LYS167      0.1693
    104  C         29.8380   25.6690   42.6640 C.2   167  LYS167      0.2591
    105  O         29.7230   26.3750   41.6530 O.2   167  LYS167     -0.2718
    106  CB        29.7820   23.1630   42.4220 C.3   167  LYS167      0.0285
    107  CG        30.3080   23.1890   40.9910 C.3   167  LYS167      0.0035
    108  CD        31.0260   21.8980   40.6380 C.3   167  LYS167      0.0206
    109  CE        31.8530   22.0450   39.3710 C.3   167  LYS167      0.1093
    110  NZ        31.0090   22.2760   38.1630 N.3   167  LYS167     -0.1314
    111  N         30.6800   25.9520   43.6550 N.am  168  VAL168     -0.1980
    112  CA        31.5500   27.1300   43.6180 C.3   168  VAL168      0.1595
    113  C         32.4160   27.1350   42.3600 C.2   168  VAL168      0.2287
    114  O         32.9900   26.1120   41.9870 O.2   168  VAL168     -0.2864
    115  CB        32.4200   27.2750   44.8940 C.3   168  VAL168      0.0276
    116  CG1       31.5470   27.5740   46.0960 C.3   168  VAL168      0.0022
    117  CG2       33.2420   26.0260   45.1430 C.3   168  VAL168      0.0022
    118  N         36.2330   27.8780   51.0110 N.3   177  MET177     -0.1245
    119  CA        35.1340   27.0260   51.4510 C.3   177  MET177      0.1570
    120  C         35.6720   25.6990   51.9800 C.2   177  MET177      0.2261
    121  O         35.1370   25.1370   52.9370 O.2   177  MET177     -0.2867
    122  CB        34.1430   26.8100   50.3010 C.3   177  MET177      0.0387
    123  CG        33.0930   25.7280   50.5340 C.3   177  MET177      0.0595
    124  SD        33.5720   24.1610   49.7820 S.3   177  MET177     -0.1393
    125  CE        32.6760   23.0370   50.8230 C.3   177  MET177      0.0692
    126  N         29.3070   25.4310   60.7680 N.3   184  GLU184     -0.1245
    127  CA        28.1630   25.7920   59.9320 C.3   184  GLU184      0.1567
    128  C         26.8050   25.7450   60.6500 C.2   184  GLU184      0.2260
    129  O         25.8110   26.2620   60.1350 O.2   184  GLU184     -0.2867
    130  CB        28.1460   24.9860   58.6190 C.3   184  GLU184      0.0388
    131  CG        28.2460   23.4640   58.7600 C.3   184  GLU184      0.1160
    132  CD        29.6820   22.9590   58.7710 C.2   184  GLU184      0.3649
    133  OE1       30.1370   22.4280   57.7310 O.co2 184  GLU184     -0.2457
    134  OE2       30.3540   23.1000   59.8200 O.co2 184  GLU184     -0.2457
@<TRIPOS>BOND
     1   110   109    1
     2   109   108    1
     3   108   107    1
     4   107   106    1
     5   105   104    2
     6   114   113    2
     7   102   103    1
     8   113   112    1
     9   106   103    1
    10   104   103    1
    11   104   111   am
    12   112   111    1
    13   112   115    1
    14    42    36    1
    15    42    41    1
    16    54    52    1
    17    36    37    1
    18    41    40    1
    19   115   117    1
    20   115   116    1
    21    53    51    1
    22    34    33    1
    23    52    51    1
    24    39    38    2
    25    35    33    1
    26    37    40    1
    27    37    38    1
    28    33    32    2
    29    51    48    1
    30    68    67    1
    31    66    67    1
    32    66    65    1
    33    38    43   am
    34    32    31    1
    35    31    30    1
    36    65    64    1
    37    25    26    1
    38    48    47    1
    39    48    49    1
    40    16    15    2
    41    43    44    1
    42    47    45   am
    43    26    27    1
    44    26    29    1
    45    15    14    1
    46    46    45    2
    47    50    49    2
    48    45    44    1
    49    27    28    2
    50    30    29    1
    51    49    55   am
    52   100    99   ar
    53    64    61    1
    54    17    14    1
    55    17    18    1
    56    14    13    1
    57    96    97    2
    58    96    95    1
    59    55    56    1
    60    61    60    1
    61    61    62    1
    62   124   123    1
    63   124   125    1
    64    99   101   ar
    65    99    98    1
    66    60    57   am
    67    95    98    1
    68    95    94    1
    69    18    19   ar
    70    18    20   ar
    71    19    21   ar
    72   122   123    1
    73   122   119    1
    74    13     7   am
    75    57    56    1
    76    57    58    2
    77    56    59    1
    78   118   119    1
    79    62    63    2
    80    62    69   am
    81     8     7    2
    82    21    23   ar
    83     7     6    1
    84    20    22   ar
    85   119   120    1
    86    69    70    1
    87   120   121    2
    88    23    22   ar
    89    23    24    1
    90     6     9    1
    91     6     5    1
    92     9    10    1
    93    70    73    1
    94    70    71    1
    95    73    74    1
    96    12    10    1
    97     5     3   am
    98    10    11    1
    99    75    71   am
   100    75    76    1
   101    71    72    2
   102     4     3    2
   103     3     2    1
   104    79    76    1
   105    79    80    1
   106    76    77    1
   107    77    78    2
   108    82    80    1
   109    80    81    1
   110     2     1    1
   111    93    91    1
   112    83    84    1
   113   133   132   ar
   114    91    90    2
   115    91    92    1
   116    90    89    1
   117    84    87    1
   118    84    85    1
   119   130   131    1
   120   130   127    1
   121    87    88    1
   122   131   132    1
   123   132   134   ar
   124    85    86    2
   125    88    89    1
   126   127   128    1
   127   127   126    1
   128   129   128    2
