@<TRIPOS>MOLECULE
tmp/3nc2B00.pdb
 93 87 0 0 0
SMALL
GASTEIGER

@<TRIPOS>ATOM
      1  N        -24.3780   18.6080   62.7850 N.3   227  ALA227     -0.1245
      2  CA       -25.0800   19.4440   61.8220 C.3   227  ALA227      0.1562
      3  C        -25.8820   18.5800   60.8710 C.2   227  ALA227      0.2260
      4  O        -25.4530   17.4890   60.4970 O.2   227  ALA227     -0.2867
      5  CB       -24.1020   20.3140   61.0410 C.3   227  ALA227      0.0290
      6  N        -27.5650   19.9000   57.9390 N.3   229  ALA229     -0.1231
      7  CA       -27.8240   20.6710   56.7340 C.3   229  ALA229      0.1694
      8  C        -28.9210   21.7050   56.9320 C.2   229  ALA229      0.2591
      9  O        -28.7360   22.6640   57.6830 O.2   229  ALA229     -0.2718
     10  CB       -28.1670   19.7370   55.5760 C.3   229  ALA229      0.0304
     11  N        -30.0520   21.4970   56.2520 N.am  230  GLU230     -0.1979
     12  CA       -31.1890   22.4230   56.2700 C.3   230  GLU230      0.1602
     13  C        -31.8700   22.5010   57.6200 C.2   230  GLU230      0.2287
     14  O        -32.5600   23.4800   57.9130 O.2   230  GLU230     -0.2864
     15  CB       -32.2420   22.0340   55.2160 C.3   230  GLU230      0.0415
     16  CG       -31.7500   22.0880   53.7710 C.3   230  GLU230      0.1163
     17  CD       -30.9340   20.8560   53.3810 C.2   230  GLU230      0.3649
     18  OE1      -31.0200   19.8360   54.1130 O.co2 230  GLU230     -0.2457
     19  OE2      -30.2140   20.9130   52.3490 O.co2 230  GLU230     -0.2457
     20  N        -30.8590   26.4150   60.5480 N.3   247  ALA247     -0.1231
     21  CA       -30.0520   26.8080   59.4080 C.3   247  ALA247      0.1694
     22  C        -30.3290   28.2580   59.0380 C.2   247  ALA247      0.2592
     23  O        -31.3740   28.8040   59.3990 O.2   247  ALA247     -0.2718
     24  CB       -30.3150   25.9000   58.2300 C.3   247  ALA247      0.0304
     25  N        -29.3630   28.8820   58.3580 N.am  248  PHE248     -0.1963
     26  CA       -29.5420   30.1980   57.7320 C.3   248  PHE248      0.1756
     27  C        -29.3590   30.0370   56.2360 C.2   248  PHE248      0.2461
     28  O        -28.3800   30.5230   55.6680 O.2   248  PHE248     -0.2730
     29  CB       -28.5330   31.2200   58.2560 C.3   248  PHE248      0.0574
     30  CG       -28.6520   31.4960   59.7360 C.ar  248  PHE248     -0.0200
     31  CD1      -29.1580   32.7060   60.1940 C.ar  248  PHE248     -0.0042
     32  CD2      -28.2380   30.5570   60.6650 C.ar  248  PHE248     -0.0042
     33  CE1      -29.2500   32.9660   61.5600 C.ar  248  PHE248     -0.0003
     34  CE2      -28.3300   30.8030   62.0260 C.ar  248  PHE248     -0.0003
     35  CZ       -28.8410   32.0010   62.4770 C.ar  248  PHE248     -0.0000
     36  N        -30.3100   29.3570   55.5870 N.am  249  PRO249     -0.2716
     37  CA       -30.1970   29.0360   54.1620 C.3   249  PRO249      0.1521
     38  C        -30.0080   30.3120   53.3610 C.2   249  PRO249      0.2440
     39  O        -30.4450   31.3740   53.7940 O.2   249  PRO249     -0.2731
     40  CB       -31.5540   28.4130   53.8390 C.3   249  PRO249      0.0310
     41  CG       -32.4930   29.0440   54.8400 C.3   249  PRO249      0.0237
     42  CD       -31.6790   29.1550   56.0950 C.3   249  PRO249      0.0939
     43  N        -29.3440   30.2140   52.2080 N.am  250  PRO250     -0.2727
     44  CA       -29.1170   31.3670   51.3300 C.3   250  PRO250      0.1402
     45  C        -30.2200   31.5160   50.2730 C.2   250  PRO250      0.2269
     46  O        -30.8960   30.5250   49.9720 O.2   250  PRO250     -0.2865
     47  CB       -27.7910   31.0170   50.6570 C.3   250  PRO250      0.0296
     48  CG       -27.7260   29.4800   50.6830 C.3   250  PRO250      0.0237
     49  CD       -28.7680   28.9740   51.6590 C.3   250  PRO250      0.0939
     50  N        -29.2190   28.0540   46.6130 N.3   253  VAL253     -0.1245
     51  CA       -28.0670   27.1860   46.8320 C.3   253  VAL253      0.1561
     52  C        -27.2420   27.0140   45.5640 C.2   253  VAL253      0.2260
     53  O        -27.7410   26.5710   44.5310 O.2   253  VAL253     -0.2867
     54  CB       -28.4740   25.7990   47.3200 C.3   253  VAL253      0.0252
     55  CG1      -27.2420   24.9030   47.3910 C.3   253  VAL253      0.0019
     56  CG2      -29.2020   25.8940   48.6640 C.3   253  VAL253      0.0019
     57  N        -22.5910   23.4080   47.7040 N.3   256  THR256     -0.1218
     58  CA       -22.5590   22.9530   49.0900 C.3   256  THR256      0.1862
     59  C        -21.2730   22.2180   49.4340 C.2   256  THR256      0.2287
     60  O        -21.0380   21.8660   50.5810 O.2   256  THR256     -0.2866
     61  CB       -23.7710   22.0730   49.4470 C.3   256  THR256      0.1770
     62  OG1      -23.7820   20.9060   48.6150 O.3   256  THR256     -0.2211
     63  CG2      -25.0550   22.8470   49.2510 C.3   256  THR256      0.0375
     64  N        -19.2210   22.8130   52.7410 N.3   259  ALA259     -0.1231
     65  CA       -20.0870   23.5480   53.6460 C.3   259  ALA259      0.1694
     66  C        -19.9060   23.0480   55.0690 C.2   259  ALA259      0.2592
     67  O        -19.8610   23.8400   56.0080 O.2   259  ALA259     -0.2718
     68  CB       -21.5680   23.4210   53.2020 C.3   259  ALA259      0.0304
     69  N        -19.7980   21.7280   55.2150 N.am  260  GLY260     -0.1957
     70  CA       -19.5890   21.0970   56.5070 C.3   260  GLY260      0.1869
     71  C        -18.2370   21.4080   57.1210 C.2   260  GLY260      0.2309
     72  O        -18.1160   21.4600   58.3480 O.2   260  GLY260     -0.2863
     73  N        -23.6220   27.9530   61.8320 N.3   285  CYS285     -0.1235
     74  CA       -24.7360   27.8590   60.8750 C.3   285  CYS285      0.1677
     75  C        -24.8080   29.0700   59.9400 C.2   285  CYS285      0.2270
     76  O        -25.0690   28.9120   58.7500 O.2   285  CYS285     -0.2867
     77  CB       -26.0740   27.6550   61.6100 C.3   285  CYS285      0.0956
     78  SG       -26.2320   26.0140   62.3650 S.3   285  CYS285     -0.0801
     79  N        -21.7490   28.8210   57.3210 N.3   288  ALA288     -0.1231
     80  CA       -21.9950   27.7210   56.3980 C.3   288  ALA288      0.1694
     81  C        -23.1790   27.9710   55.4650 C.2   288  ALA288      0.2592
     82  O        -23.2170   27.4440   54.3530 O.2   288  ALA288     -0.2718
     83  CB       -22.2210   26.4360   57.1750 C.3   288  ALA288      0.0304
     84  N        -24.1660   28.7360   55.9300 N.am  289  GLY289     -0.1957
     85  CA       -25.3180   29.0440   55.1110 C.3   289  GLY289      0.1869
     86  C        -24.9050   29.9990   54.0130 C.2   289  GLY289      0.2309
     87  O        -25.3050   29.8530   52.8590 O.2   289  GLY289     -0.2863
     88  N        -22.9690   28.2110   51.2130 N.3   292  CYS292     -0.1235
     89  CA       -23.7880   27.4100   50.3060 C.3   292  CYS292      0.1677
     90  C        -24.3200   28.2120   49.1390 C.2   292  CYS292      0.2270
     91  O        -24.6070   27.6580   48.0880 O.2   292  CYS292     -0.2867
     92  CB       -24.9440   26.7520   51.0500 C.3   292  CYS292      0.0956
     93  SG       -24.4650   25.3370   52.0640 S.3   292  CYS292     -0.0801
@<TRIPOS>BOND
     1    53    52    2
     2    52    51    1
     3    50    51    1
     4    51    54    1
     5    54    55    1
     6    54    56    1
     7    57    58    1
     8    91    90    2
     9    62    61    1
    10    58    59    1
    11    58    61    1
    12    90    89    1
    13    63    61    1
    14    59    60    2
    15    46    45    2
    16    45    44    1
    17    89    92    1
    18    89    88    1
    19    47    48    1
    20    47    44    1
    21    48    49    1
    22    92    93    1
    23    44    43    1
    24    49    43    1
    25    43    38   am
    26    19    17   ar
    27    64    65    1
    28    87    86    2
    29    68    65    1
    30    38    39    2
    31    38    37    1
    32    17    16    1
    33    17    18   ar
    34    65    66    1
    35    16    15    1
    36    40    37    1
    37    40    41    1
    38    86    85    1
    39    37    36    1
    40    82    81    2
    41    41    42    1
    42    66    69   am
    43    66    67    2
    44    85    84    1
    45    69    70    1
    46    15    12    1
    47    81    84   am
    48    81    80    1
    49    10     7    1
    50    36    42    1
    51    36    27   am
    52    28    27    2
    53    27    26    1
    54    11    12    1
    55    11     8   am
    56    12    13    1
    57    80    83    1
    58    80    79    1
    59    70    71    1
    60     7     8    1
    61     7     6    1
    62     8     9    2
    63    71    72    2
    64    13    14    2
    65    26    29    1
    66    26    25    1
    67    24    21    1
    68    29    30    1
    69    25    22   am
    70    76    75    2
    71    22    23    2
    72    22    21    1
    73    21    20    1
    74    30    31   ar
    75    30    32   ar
    76    75    74    1
    77    31    33   ar
    78     4     3    2
    79    32    34   ar
    80     3     2    1
    81    74    77    1
    82    74    73    1
    83     5     2    1
    84    33    35   ar
    85    77    78    1
    86     2     1    1
    87    34    35   ar
