@<TRIPOS>MOLECULE
tmp/3nc4A00.pdb
 217 209 0 0 0
SMALL
GASTEIGER

@<TRIPOS>ATOM
      1  N         33.0180   20.0090   39.2240 N.3    77  GLU77      -0.1245
      2  CA        31.6920   20.4670   38.7980 C.3    77  GLU77       0.1567
      3  C         30.7350   19.3190   38.4880 C.2    77  GLU77       0.2260
      4  O         31.0840   18.3790   37.7550 O.2    77  GLU77      -0.2867
      5  CB        31.8030   21.3830   37.5850 C.3    77  GLU77       0.0388
      6  CG        32.5250   22.6990   37.8590 C.3    77  GLU77       0.1160
      7  CD        32.3930   23.6850   36.7240 C.2    77  GLU77       0.3649
      8  OE1       33.2570   24.5870   36.6540 O.co2  77  GLU77      -0.2457
      9  OE2       31.4520   23.5520   35.8940 O.co2  77  GLU77      -0.2457
     10  N         29.4220   25.4170   35.9530 N.3   122  ASN122     -0.1225
     11  CA        29.3070   26.6260   35.1340 C.3   122  ASN122      0.1785
     12  C         28.5550   26.4360   33.8160 C.2   122  ASN122      0.2598
     13  O         27.7950   27.3050   33.4000 O.2   122  ASN122     -0.2718
     14  CB        30.7140   27.1750   34.8360 C.3   122  ASN122      0.1169
     15  CG        31.3150   27.8950   36.0230 C.2   122  ASN122      0.2627
     16  OD1       30.9650   29.0490   36.3030 O.2   122  ASN122     -0.2716
     17  ND2       32.2300   27.2260   36.7310 N.am  122  ASN122     -0.0877
     18  N         28.8070   25.3230   33.1350 N.am  123  GLY123     -0.1942
     19  CA        28.2980   25.1500   31.7780 C.3   123  GLY123      0.2014
     20  C         28.4570   23.7260   31.3150 C.2   123  GLY123      0.2639
     21  O         28.0390   22.8030   32.0170 O.2   123  GLY123     -0.2714
     22  N         29.0860   23.5540   30.1480 N.am  124  GLY124     -0.1939
     23  CA        29.1250   22.2600   29.4570 C.3   124  GLY124      0.2014
     24  C         29.8810   21.1620   30.2000 C.2   124  GLY124      0.2638
     25  O         29.4440   20.0110   30.2220 O.2   124  GLY124     -0.2714
     26  N         31.0210   21.5200   30.7950 N.am  125  LEU125     -0.1977
     27  CA        31.8190   20.5710   31.5820 C.3   125  LEU125      0.1596
     28  C         31.0440   20.0250   32.7890 C.2   125  LEU125      0.2287
     29  O         31.0250   18.8130   33.0150 O.2   125  LEU125     -0.2864
     30  CB        33.1650   21.1950   32.0020 C.3   125  LEU125      0.0297
     31  CG        34.1050   20.4680   32.9730 C.3   125  LEU125      0.0022
     32  CD1       35.5690   20.8350   32.7090 C.3   125  LEU125      0.0001
     33  CD2       33.7450   20.8080   34.4130 C.3   125  LEU125      0.0001
     34  N         28.0670   17.9330   31.6090 N.3   128  LEU128     -0.1245
     35  CA        28.5370   16.6450   31.0700 C.3   128  LEU128      0.1561
     36  C         28.7130   15.6140   32.1690 C.2   128  LEU128      0.2260
     37  O         28.3940   14.4370   31.9890 O.2   128  LEU128     -0.2867
     38  CB        29.8540   16.7950   30.2890 C.3   128  LEU128      0.0270
     39  CG        30.3350   15.5300   29.5450 C.3   128  LEU128      0.0019
     40  CD1       29.5600   15.2850   28.2370 C.3   128  LEU128      0.0001
     41  CD2       31.8360   15.5820   29.2640 C.3   128  LEU128      0.0001
     42  N         33.9520   28.5550   41.8320 N.3   263  TYR263     -0.1241
     43  CA        34.5870   29.5360   40.9370 C.3   263  TYR263      0.1605
     44  C         33.8570   29.6190   39.5840 C.2   263  TYR263      0.2264
     45  O         33.7020   28.6040   38.8950 O.2   263  TYR263     -0.2867
     46  CB        36.0830   29.2410   40.7440 C.3   263  TYR263      0.0534
     47  CG        36.9450   29.8240   41.8370 C.ar  263  TYR263     -0.0201
     48  CD1       37.1080   29.1630   43.0570 C.ar  263  TYR263     -0.0009
     49  CD2       37.5720   31.0580   41.6670 C.ar  263  TYR263     -0.0009
     50  CE1       37.8980   29.7170   44.0820 C.ar  263  TYR263      0.0417
     51  CE2       38.3620   31.6110   42.6760 C.ar  263  TYR263      0.0417
     52  CZ        38.5200   30.9320   43.8720 C.ar  263  TYR263      0.1957
     53  OH        39.2930   31.4910   44.8650 O.3   263  TYR263     -0.2866
     54  N         34.7070   31.1860   36.7260 N.3   265  ASN265     -0.1225
     55  CA        35.6270   31.5400   35.6000 C.3   265  ASN265      0.1785
     56  C         35.2800   31.1280   34.1640 C.2   265  ASN265      0.2597
     57  O         35.7670   31.7200   33.1980 O.2   265  ASN265     -0.2718
     58  CB        37.0160   31.0330   35.9170 C.3   265  ASN265      0.1169
     59  CG        37.6170   31.7560   37.0910 C.2   265  ASN265      0.2627
     60  OD1       37.8620   32.9630   37.0160 O.2   265  ASN265     -0.2716
     61  ND2       37.8190   31.0430   38.1950 N.am  265  ASN265     -0.0877
     62  N         34.4900   30.0760   34.0320 N.am  266  ASP266     -0.1960
     63  CA        33.8870   29.6810   32.7700 C.3   266  ASP266      0.1840
     64  C         34.7940   28.8630   31.8780 C.2   266  ASP266      0.2622
     65  O         34.5250   27.6830   31.6500 O.2   266  ASP266     -0.2715
     66  CB        33.3140   30.8730   32.0190 C.3   266  ASP266      0.1450
     67  CG        32.1830   30.4790   31.1390 C.2   266  ASP266      0.3671
     68  OD1       31.3410   31.3530   30.8480 O.co2 266  ASP266     -0.2456
     69  OD2       32.1270   29.3010   30.7320 O.co2 266  ASP266     -0.2456
     70  N         35.8370   29.4770   31.3230 N.am  267  ASN267     -0.1958
     71  CA        36.8770   28.6670   30.7060 C.3   267  ASN267      0.1819
     72  C         38.2600   29.0190   31.2770 C.2   267  ASN267      0.2621
     73  O         38.9890   28.1240   31.7190 O.2   267  ASN267     -0.2715
     74  CB        36.8100   28.6750   29.1540 C.3   267  ASN267      0.1195
     75  CG        35.8290   27.6100   28.5760 C.2   267  ASN267      0.2630
     76  OD1       36.2060   26.7770   27.7530 O.2   267  ASN267     -0.2716
     77  ND2       34.5760   27.6640   28.9930 N.am  267  ASN267     -0.0877
     78  N         38.5750   30.3180   31.3360 N.am  268  PHE268     -0.1960
     79  CA        39.9140   30.8240   31.7150 C.3   268  PHE268      0.1771
     80  C         40.4370   30.5120   33.1350 C.2   268  PHE268      0.2619
     81  O         39.7550   29.8270   33.9200 O.2   268  PHE268     -0.2715
     82  CB        40.0310   32.3260   31.4250 C.3   268  PHE268      0.0574
     83  CG        38.7960   33.1010   31.7140 C.ar  268  PHE268     -0.0200
     84  CD1       37.8600   33.3460   30.7020 C.ar  268  PHE268     -0.0042
     85  CD2       38.5650   33.6230   32.9910 C.ar  268  PHE268     -0.0042
     86  CE1       36.7050   34.0950   30.9590 C.ar  268  PHE268     -0.0003
     87  CE2       37.4040   34.3730   33.2640 C.ar  268  PHE268     -0.0003
     88  CZ        36.4780   34.6100   32.2430 C.ar  268  PHE268     -0.0000
     89  N         41.6360   31.0380   33.4480 N.am  269  PHE269     -0.1974
     90  CA        42.4180   30.6020   34.6250 C.3   269  PHE269      0.1639
     91  C         42.9520   31.7000   35.5500 C.2   269  PHE269      0.2290
     92  O         43.7660   32.5410   35.1550 O.2   269  PHE269     -0.2864
     93  CB        43.5710   29.6740   34.1950 C.3   269  PHE269      0.0560
     94  CG        44.4750   29.2430   35.3330 C.ar  269  PHE269     -0.0200
     95  CD1       45.7730   29.7370   35.4310 C.ar  269  PHE269     -0.0042
     96  CD2       44.0260   28.3420   36.3000 C.ar  269  PHE269     -0.0042
     97  CE1       46.6080   29.3430   36.4730 C.ar  269  PHE269     -0.0003
     98  CE2       44.8600   27.9420   37.3500 C.ar  269  PHE269     -0.0003
     99  CZ        46.1480   28.4410   37.4310 C.ar  269  PHE269     -0.0000
    100  N         41.3190   28.4020   45.0750 N.3   275  ARG275     -0.1245
    101  CA        41.0230   27.4180   44.0210 C.3   275  ARG275      0.1563
    102  C         41.9580   26.2150   44.0960 C.2   275  ARG275      0.2260
    103  O         41.5240   25.0600   43.9440 O.2   275  ARG275     -0.2867
    104  CB        41.0990   28.0670   42.6340 C.3   275  ARG275      0.0307
    105  CG        40.9450   27.1020   41.4460 C.3   275  ARG275      0.0489
    106  CD        39.5520   26.4240   41.3620 C.3   275  ARG275      0.2205
    107  NE        39.4180   25.7450   40.0750 N.pl3 275  ARG275     -0.0865
    108  CZ        38.2810   25.2980   39.5420 C.cat 275  ARG275      0.5346
    109  NH1       37.1250   25.4380   40.1730 N.pl3 275  ARG275      0.1354
    110  NH2       38.3120   24.7090   38.3510 N.pl3 275  ARG275      0.1354
    111  N         39.0460   17.1630   33.0310 N.3   313  ASP313     -0.1239
    112  CA        40.0260   18.2360   32.8290 C.3   313  ASP313      0.1674
    113  C         41.1680   18.1490   33.8610 C.2   313  ASP313      0.2266
    114  O         41.3290   17.1260   34.5190 O.2   313  ASP313     -0.2867
    115  CB        39.3730   19.6270   32.7950 C.3   313  ASP313      0.1410
    116  CG        40.0950   20.5680   31.8500 C.2   313  ASP313      0.3668
    117  OD1       39.8560   20.5240   30.6210 O.co2 313  ASP313     -0.2456
    118  OD2       40.9570   21.3190   32.3340 O.co2 313  ASP313     -0.2456
    119  N         41.5250   20.0170   36.5250 N.3   315  HIS315     -0.1241
    120  CA        41.1370   20.4700   37.8540 C.3   315  HIS315      0.1621
    121  C         41.5050   19.4730   38.9670 C.2   315  HIS315      0.2264
    122  O         42.0010   19.8850   39.9990 O.2   315  HIS315     -0.2867
    123  CB        39.6570   20.8740   37.9140 C.3   315  HIS315      0.0745
    124  CG        39.2180   21.7510   36.7790 C.ar  315  HIS315      0.0817
    125  ND1       37.9260   21.7530   36.3050 N.ar  315  HIS315     -0.2268
    126  CD2       39.9050   22.6240   36.0050 C.ar  315  HIS315      0.1154
    127  CE1       37.8300   22.6020   35.2980 C.ar  315  HIS315      0.1986
    128  NE2       39.0190   23.1460   35.0970 N.ar  315  HIS315     -0.2212
    129  N         39.0130   19.2470   27.8510 N.3   351  HIS351     -0.1226
    130  CA        37.7810   19.9240   27.4580 C.3   351  HIS351      0.1752
    131  C         38.0440   21.2970   26.8150 C.2   351  HIS351      0.2596
    132  O         37.1020   22.0720   26.6230 O.2   351  HIS351     -0.2718
    133  CB        36.8530   20.1080   28.6720 C.3   351  HIS351      0.0759
    134  CG        36.4060   18.8280   29.3110 C.ar  351  HIS351      0.0818
    135  ND1       35.2290   18.1980   28.9700 N.ar  351  HIS351     -0.2268
    136  CD2       36.9590   18.0810   30.2970 C.ar  351  HIS351      0.1154
    137  CE1       35.0880   17.1040   29.6990 C.ar  351  HIS351      0.1986
    138  NE2       36.1270   17.0070   30.5100 N.ar  351  HIS351     -0.2212
    139  N         39.3050   21.6130   26.4920 N.am  352  THR352     -0.1953
    140  CA        39.6140   22.8960   25.8210 C.3   352  THR352      0.1897
    141  C         40.9740   23.0110   25.1400 C.2   352  THR352      0.2313
    142  O         41.9390   22.3460   25.5390 O.2   352  THR352     -0.2863
    143  CB        39.4750   24.0950   26.7800 C.3   352  THR352      0.1794
    144  OG1       39.5070   25.3140   26.0220 O.3   352  THR352     -0.2208
    145  CG2       40.5950   24.0830   27.8440 C.3   352  THR352      0.0378
    146  N         42.8870   29.3400   29.3410 N.3   357  ALA357     -0.1245
    147  CA        42.0860   28.4980   30.2240 C.3   357  ALA357      0.1562
    148  C         42.9320   27.4580   30.9420 C.2   357  ALA357      0.2260
    149  O         42.5670   27.0110   32.0370 O.2   357  ALA357     -0.2867
    150  CB        40.9710   27.8010   29.4190 C.3   357  ALA357      0.0290
    151  N         36.9570   15.4270   23.1930 N.3   429  VAL429     -0.1245
    152  CA        35.5110   15.2650   23.4200 C.3   429  VAL429      0.1561
    153  C         34.6640   15.3970   22.1620 C.2   429  VAL429      0.2260
    154  O         33.4390   15.4140   22.2300 O.2   429  VAL429     -0.2867
    155  CB        34.9910   16.1970   24.5430 C.3   429  VAL429      0.0252
    156  CG1       35.5520   15.7460   25.8970 C.3   429  VAL429      0.0019
    157  CG2       35.3240   17.6790   24.2510 C.3   429  VAL429      0.0019
    158  N         31.2630   13.6180   22.9520 N.3   458  ASN458     -0.1240
    159  CA        30.3060   13.9350   24.0140 C.3   458  ASN458      0.1653
    160  C         28.9020   13.5020   23.6500 C.2   458  ASN458      0.2266
    161  O         28.6080   13.1960   22.4860 O.2   458  ASN458     -0.2867
    162  CB        30.3070   15.4530   24.3220 C.3   458  ASN458      0.1155
    163  CG        31.4320   15.8730   25.2630 C.2   458  ASN458      0.2627
    164  OD1       31.6900   17.0680   25.4390 O.2   458  ASN458     -0.2716
    165  ND2       32.1080   14.9050   25.8610 N.am  458  ASN458     -0.0877
    166  N         34.6160   33.5860   21.9410 N.3   547  TYR547     -0.1227
    167  CA        34.7550   32.4800   20.9860 C.3   547  TYR547      0.1736
    168  C         33.4120   31.9070   20.5220 C.2   547  TYR547      0.2595
    169  O         33.3330   31.3720   19.4170 O.2   547  TYR547     -0.2718
    170  CB        35.7080   31.3880   21.5050 C.3   547  TYR547      0.0548
    171  CG        35.0960   30.3040   22.3530 C.ar  547  TYR547     -0.0200
    172  CD1       34.4980   29.1840   21.7700 C.ar  547  TYR547     -0.0009
    173  CD2       35.1730   30.3560   23.7470 C.ar  547  TYR547     -0.0009
    174  CE1       33.9600   28.1680   22.5560 C.ar  547  TYR547      0.0417
    175  CE2       34.6290   29.3420   24.5380 C.ar  547  TYR547      0.0417
    176  CZ        34.0290   28.2540   23.9360 C.ar  547  TYR547      0.1957
    177  OH        33.4890   27.2410   24.7210 O.3   547  TYR547     -0.2866
    178  N         32.3760   32.0270   21.3600 N.am  548  LYS548     -0.1980
    179  CA        31.0320   31.5260   21.0560 C.3   548  LYS548      0.1596
    180  C         30.2720   32.4560   20.1120 C.2   548  LYS548      0.2287
    181  O         29.2460   32.0720   19.5440 O.2   548  LYS548     -0.2864
    182  CB        30.2220   31.2640   22.3370 C.3   548  LYS548      0.0298
    183  CG        30.6700   30.0080   23.1030 C.3   548  LYS548      0.0038
    184  CD        30.0370   29.9440   24.4850 C.3   548  LYS548      0.0206
    185  CE        30.6680   28.8580   25.3670 C.3   548  LYS548      0.1093
    186  NZ        30.4410   27.4620   24.8610 N.3   548  LYS548     -0.1314
    187  N         35.3220   25.6220   19.8950 N.3   646  GLU646     -0.1231
    188  CA        34.4110   24.8440   20.7560 C.3   646  GLU646      0.1699
    189  C         34.8130   23.3770   20.7400 C.2   646  GLU646      0.2592
    190  O         34.5540   22.6960   19.7570 O.2   646  GLU646     -0.2718
    191  CB        32.9510   24.9850   20.2960 C.3   646  GLU646      0.0402
    192  CG        31.9240   24.4540   21.3060 C.3   646  GLU646      0.1161
    193  CD        31.7700   25.3870   22.4780 C.2   646  GLU646      0.3649
    194  OE1       32.4440   25.1660   23.5030 O.co2 646  GLU646     -0.2457
    195  OE2       31.0250   26.3830   22.3570 O.co2 646  GLU646     -0.2457
    196  N         35.4330   22.8840   21.8160 N.am  647  ALA647     -0.1966
    197  CA        35.8760   21.4750   21.8720 C.3   647  ALA647      0.1728
    198  C         34.8100   20.4990   21.3660 C.2   647  ALA647      0.2617
    199  O         35.0720   19.7110   20.4600 O.2   647  ALA647     -0.2715
    200  CB        36.3520   21.0710   23.2860 C.3   647  ALA647      0.0334
    201  N         33.6150   20.5520   21.9470 N.am  648  SER648     -0.1936
    202  CA        32.5020   19.7370   21.4550 C.3   648  SER648      0.2055
    203  C         31.2060   20.5310   21.3250 C.2   648  SER648      0.2644
    204  O         30.6100   20.6120   20.2400 O.2   648  SER648     -0.2714
    205  CB        32.2780   18.5020   22.3520 C.3   648  SER648      0.2130
    206  OG        31.0840   17.8060   21.9960 O.3   648  SER648     -0.2179
    207  N         30.7860   21.1260   22.4380 N.am  649  GLY649     -0.1939
    208  CA        29.4330   21.6670   22.5800 C.3   649  GLY649      0.2014
    209  C         28.5330   20.5060   22.9780 C.2   649  GLY649      0.2639
    210  O         28.7940   19.3730   22.5930 O.2   649  GLY649     -0.2714
    211  N         27.5020   20.7790   23.7710 N.am  650  THR650     -0.1950
    212  CA        26.4890   19.7710   24.1190 C.3   650  THR650      0.1897
    213  C         25.0690   20.3320   23.9970 C.2   650  THR650      0.2313
    214  O         24.1090   19.5850   23.7710 O.2   650  THR650     -0.2863
    215  CB        26.6840   19.1990   25.5370 C.3   650  THR650      0.1794
    216  OG1       26.7730   20.2730   26.4740 O.3   650  THR650     -0.2208
    217  CG2       27.9470   18.3520   25.6220 C.3   650  THR650      0.0378
@<TRIPOS>BOND
     1   169   168    2
     2   181   180    2
     3   190   189    2
     4   187   188    1
     5   180   179    1
     6   204   203    2
     7   191   188    1
     8   191   192    1
     9   199   198    2
    10   168   167    1
    11   168   178   am
    12   189   188    1
    13   189   196   am
    14   167   170    1
    15   167   166    1
    16   179   178    1
    17   179   182    1
    18   192   193    1
    19   203   202    1
    20   203   207   am
    21   198   197    1
    22   198   201   am
    23   202   201    1
    24   202   205    1
    25   170   171    1
    26   172   171   ar
    27   172   174   ar
    28   196   197    1
    29   197   200    1
    30   206   205    1
    31   153   154    2
    32   153   152    1
    33   182   183    1
    34   171   173   ar
    35   195   193   ar
    36   207   208    1
    37   193   194   ar
    38   161   160    2
    39   174   176   ar
    40   208   209    1
    41   210   209    2
    42   158   159    1
    43   209   211   am
    44   183   184    1
    45   151   152    1
    46   152   155    1
    47   160   159    1
    48   173   175   ar
    49   211   212    1
    50   214   213    2
    51   176   175   ar
    52   176   177    1
    53   213   212    1
    54   159   162    1
    55   212   215    1
    56   157   155    1
    57   162   163    1
    58   184   185    1
    59   155   156    1
    60   186   185    1
    61   141   142    2
    62   141   140    1
    63   163   164    2
    64   163   165   am
    65   215   217    1
    66   215   216    1
    67   140   139    1
    68   140   143    1
    69   144   143    1
    70   139   131   am
    71   132   131    2
    72   143   145    1
    73   131   130    1
    74   130   129    1
    75   130   133    1
    76    76    75    2
    77    40    39    1
    78    75    77   am
    79    75    74    1
    80   133   134    1
    81   135   134   ar
    82   135   137   ar
    83    74    71    1
    84    41    39    1
    85   134   136   ar
    86   146   147    1
    87   150   147    1
    88    23    22    1
    89    23    24    1
    90    39    38    1
    91   137   138   ar
    92    22    20   am
    93    24    25    2
    94    24    26   am
    95   147   148    1
    96    38    35    1
    97   136   138   ar
    98   117   116   ar
    99    84    86   ar
   100    84    83   ar
   101    71    72    1
   102    71    70    1
   103    69    67   ar
   104    26    27    1
   105    68    67   ar
   106   148   149    2
   107    86    88   ar
   108    35    34    1
   109    35    36    1
   110    67    66    1
   111    72    78   am
   112    72    73    2
   113    20    19    1
   114    20    21    2
   115    70    64   am
   116    78    79    1
   117    82    83    1
   118    82    79    1
   119    27    30    1
   120    27    28    1
   121    65    64    2
   122    83    85   ar
   123    79    80    1
   124    19    18    1
   125   116   118   ar
   126   116   115    1
   127    64    63    1
   128    37    36    2
   129    30    31    1
   130    66    63    1
   131    88    87   ar
   132    32    31    1
   133    63    62    1
   134    28    29    2
   135   115   112    1
   136   112   111    1
   137   112   113    1
   138    31    33    1
   139    85    87   ar
   140    80    89   am
   141    80    81    2
   142    18    12   am
   143    57    56    2
   144    13    12    2
   145    89    90    1
   146    12    11    1
   147   113   114    2
   148    62    56   am
   149    56    55    1
   150    93    90    1
   151    93    94    1
   152    90    91    1
   153    14    11    1
   154    14    15    1
   155   128   127   ar
   156   128   126   ar
   157    11    10    1
   158    92    91    2
   159   127   125   ar
   160    94    95   ar
   161    94    96   ar
   162    95    97   ar
   163    55    58    1
   164    55    54    1
   165     9     7   ar
   166    58    59    1
   167   126   124   ar
   168    15    16    2
   169    15    17   am
   170    96    98   ar
   171   125   124   ar
   172    97    99   ar
   173   119   120    1
   174     8     7   ar
   175     7     6    1
   176   124   123    1
   177    60    59    2
   178    59    61   am
   179    98    99   ar
   180     5     6    1
   181     5     2    1
   182     4     3    2
   183   120   123    1
   184   120   121    1
   185   110   108    1
   186     3     2    1
   187     2     1    1
   188    45    44    2
   189   121   122    2
   190   108   107    2
   191   108   109    1
   192    44    43    1
   193   107   106    1
   194    46    43    1
   195    46    47    1
   196    43    42    1
   197   106   105    1
   198   105   104    1
   199    49    47   ar
   200    49    51   ar
   201    47    48   ar
   202   104   101    1
   203    51    52   ar
   204    48    50   ar
   205    52    50   ar
   206    52    53    1
   207   103   102    2
   208   101   102    1
   209   101   100    1
