@<TRIPOS>MOLECULE
tmp/3nc4A01.pdb
 136 136 0 0 0
SMALL
GASTEIGER

@<TRIPOS>ATOM
      1  N          9.9770   14.0380   49.8290 N.3    46  HIS46      -0.1241
      2  CA        10.1600   12.9440   50.7950 C.3    46  HIS46       0.1621
      3  C          9.4240   11.6770   50.3620 C.2    46  HIS46       0.2264
      4  O          9.9360   10.5870   50.5350 O.2    46  HIS46      -0.2867
      5  CB         9.7220   13.3680   52.1980 C.3    46  HIS46       0.0745
      6  CG        10.7920   14.0860   52.9520 C.ar   46  HIS46       0.0817
      7  ND1       11.0660   15.4200   52.7540 N.ar   46  HIS46      -0.2268
      8  CD2       11.6810   13.6500   53.8730 C.ar   46  HIS46       0.1154
      9  CE1       12.0690   15.7810   53.5350 C.ar   46  HIS46       0.1986
     10  NE2       12.4620   14.7250   54.2230 N.ar   46  HIS46      -0.2212
     11  N         11.5110   10.2950   47.3630 N.3    49  ARG49      -0.1245
     12  CA        12.7900    9.8580   47.9060 C.3    49  ARG49       0.1563
     13  C         12.6940    8.5030   48.6180 C.2    49  ARG49       0.2260
     14  O         13.6180    7.6910   48.5290 O.2    49  ARG49      -0.2867
     15  CB        13.3070   10.9110   48.8850 C.3    49  ARG49       0.0307
     16  CG        14.2810   10.3790   49.8680 C.3    49  ARG49       0.0489
     17  CD        13.9930   10.8060   51.3100 C.3    49  ARG49       0.2205
     18  NE        14.5700   12.1000   51.6040 N.pl3  49  ARG49      -0.0865
     19  CZ        14.9070   12.5380   52.8170 C.cat  49  ARG49       0.5346
     20  NH1       15.4280   13.7480   52.9340 N.pl3  49  ARG49       0.1354
     21  NH2       14.7330   11.7900   53.9030 N.pl3  49  ARG49       0.1354
     22  N         13.5680    5.4860   46.7040 N.3    52  LEU52      -0.1231
     23  CA        14.9560    5.2600   46.3100 C.3    52  LEU52       0.1693
     24  C         15.6990    4.3170   47.2450 C.2    52  LEU52       0.2591
     25  O         16.6420    3.6470   46.8300 O.2    52  LEU52      -0.2718
     26  CB        15.7170    6.5870   46.2010 C.3    52  LEU52       0.0284
     27  CG        15.4080    7.4510   44.9800 C.3    52  LEU52       0.0019
     28  CD1       15.9260    8.8660   45.1840 C.3    52  LEU52       0.0001
     29  CD2       15.9700    6.8280   43.7010 C.3    52  LEU52       0.0001
     30  N         15.2880    4.2770   48.5090 N.am   53  VAL53      -0.1980
     31  CA        16.1420    3.7200   49.5610 C.3    53  VAL53       0.1595
     32  C         16.4500    2.2240   49.4030 C.2    53  VAL53       0.2287
     33  O         17.6070    1.8090   49.5400 O.2    53  VAL53      -0.2864
     34  CB        15.6350    4.0750   51.0140 C.3    53  VAL53       0.0276
     35  CG1       15.1710    5.5490   51.1110 C.3    53  VAL53       0.0022
     36  CG2       14.5300    3.1670   51.4410 C.3    53  VAL53       0.0022
     37  N         18.7490    1.7540   46.4780 N.3    56  TRP56      -0.1241
     38  CA        20.0500    2.3240   46.8240 C.3    56  TRP56       0.1605
     39  C         20.8560    1.3860   47.7340 C.2    56  TRP56       0.2264
     40  O         22.0310    1.1020   47.4610 O.2    56  TRP56      -0.2867
     41  CB        19.8720    3.7160   47.4660 C.3    56  TRP56       0.0550
     42  CG        21.0980    4.6250   47.3980 C.ar   56  TRP56       0.0003
     43  CD1       22.2670    4.3990   46.7090 C.ar   56  TRP56       0.0946
     44  CD2       21.2460    5.9080   48.0180 C.ar   56  TRP56       0.0152
     45  NE1       23.1320    5.4540   46.8820 N.ar   56  TRP56      -0.2442
     46  CE2       22.5260    6.3980   47.6710 C.ar   56  TRP56       0.0810
     47  CE3       20.4200    6.6930   48.8370 C.ar   56  TRP56       0.0012
     48  CZ2       23.0090    7.6350   48.1290 C.ar   56  TRP56       0.0191
     49  CZ3       20.8980    7.9440   49.2770 C.ar   56  TRP56       0.0001
     50  CH2       22.1800    8.3880   48.9260 C.ar   56  TRP56       0.0015
     51  N         30.7020   19.7330   47.7360 N.3   149  ARG149     -0.1245
     52  CA        29.4180   20.2940   48.0900 C.3   149  ARG149      0.1563
     53  C         29.5570   21.8020   48.3110 C.2   149  ARG149      0.2260
     54  O         29.7580   22.2630   49.4370 O.2   149  ARG149     -0.2867
     55  CB        28.8840   19.6110   49.3480 C.3   149  ARG149      0.0307
     56  CG        27.4930   20.0730   49.7950 C.3   149  ARG149      0.0489
     57  CD        27.1050   19.2280   50.9910 C.3   149  ARG149      0.2205
     58  NE        25.8180   19.5570   51.5760 N.pl3 149  ARG149     -0.0865
     59  CZ        25.6630   20.3770   52.6080 C.cat 149  ARG149      0.5346
     60  NH1       24.4550   20.5900   53.0970 N.pl3 149  ARG149      0.1354
     61  NH2       26.7220   20.9770   53.1540 N.pl3 149  ARG149      0.1354
     62  N         17.3930   23.4970   53.2020 N.3   175  GLY175     -0.1210
     63  CA        17.7210   22.1030   53.3540 C.3   175  GLY175      0.1956
     64  C         17.5710   21.3600   52.0400 C.2   175  GLY175      0.2612
     65  O         16.6950   21.6640   51.2280 O.2   175  GLY175     -0.2717
     66  N         18.4270   20.3690   51.8420 N.am  176  ASN176     -0.1960
     67  CA        18.4210   19.5720   50.6290 C.3   176  ASN176      0.1804
     68  C         17.8880   18.1810   50.9770 C.2   176  ASN176      0.2463
     69  O         18.5810   17.4130   51.6450 O.2   176  ASN176     -0.2730
     70  CB        19.8540   19.4900   50.0780 C.3   176  ASN176      0.1195
     71  CG        19.9610   18.6720   48.7970 C.2   176  ASN176      0.2630
     72  OD1       18.9490   18.3100   48.1800 O.2   176  ASN176     -0.2716
     73  ND2       21.2030   18.3910   48.3780 N.am  176  ASN176     -0.0877
     74  N         16.6560   17.8530   50.5350 N.am  177  PRO177     -0.2716
     75  CA        16.0710   16.5410   50.8600 C.3   177  PRO177      0.1536
     76  C         16.7530   15.3840   50.1360 C.2   177  PRO177      0.2599
     77  O         16.5060   14.2270   50.4690 O.2   177  PRO177     -0.2715
     78  CB        14.6190   16.6690   50.3710 C.3   177  PRO177      0.0310
     79  CG        14.6640   17.7150   49.3210 C.3   177  PRO177      0.0237
     80  CD        15.7470   18.6740   49.7150 C.3   177  PRO177      0.0939
     81  N         17.5950   15.7010   49.1560 N.am  178  TRP178     -0.1960
     82  CA        18.2160   14.6930   48.3040 C.3   178  TRP178      0.1771
     83  C         19.6010   14.2550   48.7600 C.2   178  TRP178      0.2620
     84  O         20.2420   13.4530   48.0780 O.2   178  TRP178     -0.2715
     85  CB        18.2740   15.1930   46.8550 C.3   178  TRP178      0.0590
     86  CG        16.9470   15.5930   46.3390 C.ar  178  TRP178      0.0006
     87  CD1       16.5360   16.8530   46.0450 C.ar  178  TRP178      0.0946
     88  CD2       15.8290   14.7320   46.0830 C.ar  178  TRP178      0.0152
     89  NE1       15.2340   16.8380   45.6080 N.ar  178  TRP178     -0.2442
     90  CE2       14.7790   15.5450   45.6140 C.ar  178  TRP178      0.0810
     91  CE3       15.6210   13.3510   46.1890 C.ar  178  TRP178      0.0012
     92  CZ2       13.5170   15.0260   45.2620 C.ar  178  TRP178      0.0191
     93  CZ3       14.3660   12.8300   45.8280 C.ar  178  TRP178      0.0001
     94  CH2       13.3400   13.6700   45.3690 C.ar  178  TRP178      0.0015
     95  N         20.0780   14.7720   49.8930 N.am  179  GLU179     -0.1963
     96  CA        21.3930   14.3620   50.3880 C.3   179  GLU179      0.1733
     97  C         21.3040   13.6250   51.7150 C.2   179  GLU179      0.2616
     98  O         20.4400   13.9150   52.5420 O.2   179  GLU179     -0.2715
     99  CB        22.3540   15.5530   50.5200 C.3   179  GLU179      0.0429
    100  CG        21.8660   16.6230   51.4900 C.3   179  GLU179      0.1163
    101  CD        22.7760   17.8340   51.5660 C.2   179  GLU179      0.3649
    102  OE1       22.7270   18.5060   52.6060 O.co2 179  GLU179     -0.2457
    103  OE2       23.5280   18.1220   50.6010 O.co2 179  GLU179     -0.2457
    104  N         22.2040   12.6630   51.8880 N.am  180  LYS180     -0.1963
    105  CA        22.4130   11.9980   53.1670 C.3   180  LYS180      0.1728
    106  C         23.8780   12.1770   53.6200 C.2   180  LYS180      0.2616
    107  O         24.8100   11.6820   52.9740 O.2   180  LYS180     -0.2715
    108  CB        22.0420   10.5130   53.0750 C.3   180  LYS180      0.0311
    109  CG        22.2730    9.7320   54.3670 C.3   180  LYS180      0.0038
    110  CD        21.2840   10.1670   55.4460 C.3   180  LYS180      0.0206
    111  CE        21.7020    9.6890   56.8230 C.3   180  LYS180      0.1093
    112  NZ        22.8060   10.4830   57.3750 N.3   180  LYS180     -0.1314
    113  N         24.0570   12.8980   54.7270 N.am  181  ALA181     -0.1977
    114  CA        25.3640   13.0820   55.3530 C.3   181  ALA181      0.1597
    115  C         25.9280   11.7340   55.8080 C.2   181  ALA181      0.2287
    116  O         25.1990   10.8830   56.3500 O.2   181  ALA181     -0.2864
    117  CB        25.2420   14.0450   56.5560 C.3   181  ALA181      0.0319
    118  N         28.6550   13.9710   51.7890 N.3   215  TYR215     -0.1241
    119  CA        27.2060   13.8810   51.6800 C.3   215  TYR215      0.1605
    120  C         26.8900   13.0690   50.4180 C.2   215  TYR215      0.2264
    121  O         27.4130   13.3690   49.3380 O.2   215  TYR215     -0.2867
    122  CB        26.5990   15.2860   51.5450 C.3   215  TYR215      0.0534
    123  CG        26.6730   16.1580   52.7940 C.ar  215  TYR215     -0.0201
    124  CD1       27.8770   16.7640   53.1930 C.ar  215  TYR215     -0.0009
    125  CD2       25.5360   16.3900   53.5570 C.ar  215  TYR215     -0.0009
    126  CE1       27.9390   17.5760   54.3420 C.ar  215  TYR215      0.0417
    127  CE2       25.5800   17.1970   54.6890 C.ar  215  TYR215      0.0417
    128  CZ        26.7840   17.7840   55.0730 C.ar  215  TYR215      0.1957
    129  OH        26.8050   18.5720   56.1870 O.3   215  TYR215     -0.2866
    130  N         21.7360   10.1850   45.7390 N.3   218  PRO218     -0.2116
    131  CA        21.4440    9.0580   44.8380 C.3   218  PRO218      0.1372
    132  C         21.3960    9.4700   43.3710 C.2   218  PRO218      0.2244
    133  O         20.9700   10.5810   43.0430 O.2   218  PRO218     -0.2868
    134  CB        20.0560    8.6040   45.2960 C.3   218  PRO218      0.0268
    135  CG        19.4320    9.8640   45.8340 C.3   218  PRO218      0.0207
    136  CD        20.5500   10.5790   46.5250 C.3   218  PRO218      0.0892
@<TRIPOS>BOND
     1   133   132    2
     2   132   131    1
     3    29    27    1
     4   131   134    1
     5   131   130    1
     6    27    28    1
     7    27    26    1
     8    92    94   ar
     9    92    90   ar
    10   134   135    1
    11    94    93   ar
    12    89    90   ar
    13    89    87   ar
    14    90    88   ar
    15   130   136    1
    16    93    91   ar
    17   135   136    1
    18    87    86   ar
    19    88    91   ar
    20    88    86   ar
    21    26    23    1
    22    23    22    1
    23    23    24    1
    24    86    85    1
    25    37    38    1
    26    43    45   ar
    27    43    42   ar
    28    38    41    1
    29    38    39    1
    30    25    24    2
    31    85    82    1
    32    45    46   ar
    33    24    30   am
    34    11    12    1
    35    42    41    1
    36    42    44   ar
    37    40    39    2
    38    46    44   ar
    39    46    48   ar
    40    51    52    1
    41    12    13    1
    42    12    15    1
    43    44    47   ar
    44    84    83    2
    45    52    53    1
    46    52    55    1
    47    48    50   ar
    48    72    71    2
    49    82    83    1
    50    82    81    1
    51    53    54    2
    52    73    71   am
    53    30    31    1
    54    14    13    2
    55    83    95   am
    56    71    70    1
    57    47    49   ar
    58    15    16    1
    59    50    49   ar
    60    81    76   am
    61    79    80    1
    62    79    78    1
    63   121   120    2
    64    55    56    1
    65    32    33    2
    66    32    31    1
    67    31    34    1
    68    80    74    1
    69    56    57    1
    70     1     2    1
    71    16    17    1
    72    95    96    1
    73    70    67    1
    74    76    77    2
    75    76    75    1
    76     3     4    2
    77     3     2    1
    78    78    75    1
    79    96    99    1
    80    96    97    1
    81   120   119    1
    82    99   100    1
    83    74    75    1
    84    74    68   am
    85   103   101   ar
    86    67    68    1
    87    67    66    1
    88     2     5    1
    89    68    69    2
    90    57    58    1
    91    34    35    1
    92    34    36    1
    93    65    64    2
    94    17    18    1
    95   100   101    1
    96   122   119    1
    97   122   123    1
    98   101   102   ar
    99    58    59    2
   100    18    19    2
   101   119   118    1
   102    97   104   am
   103    97    98    2
   104    66    64   am
   105   104   105    1
   106    64    63    1
   107     5     6    1
   108    59    60    1
   109    59    61    1
   110     7     6   ar
   111     7     9   ar
   112   123   124   ar
   113   123   125   ar
   114    19    20    1
   115    19    21    1
   116     6     8   ar
   117   107   106    2
   118   108   105    1
   119   108   109    1
   120   105   106    1
   121   124   126   ar
   122    62    63    1
   123     9    10   ar
   124   125   127   ar
   125   106   113   am
   126     8    10   ar
   127   126   128   ar
   128   109   110    1
   129   127   128   ar
   130   113   114    1
   131   128   129    1
   132   114   115    1
   133   114   117    1
   134   110   111    1
   135   115   116    2
   136   111   112    1
