@<TRIPOS>MOLECULE
tmp/3nc6B01.pdb
 108 100 0 0 0
SMALL
GASTEIGER

@<TRIPOS>ATOM
      1  N         39.5960    0.1480   28.1470 N.3    61  LEU61      -0.1245
      2  CA        39.5110    1.2690   29.0880 C.3    61  LEU61       0.1561
      3  C         39.5790    0.8020   30.5350 C.2    61  LEU61       0.2260
      4  O         40.1470    1.4880   31.3840 O.2    61  LEU61      -0.2867
      5  CB        38.2570    2.1050   28.8430 C.3    61  LEU61       0.0270
      6  CG        38.1860    2.7870   27.4720 C.3    61  LEU61       0.0019
      7  CD1       36.7740    3.2530   27.1600 C.3    61  LEU61       0.0001
      8  CD2       39.1840    3.9400   27.3720 C.3    61  LEU61       0.0001
      9  N         43.4440    0.3330   31.5050 N.3    64  ARG64      -0.1245
     10  CA        44.2580    1.4480   31.9590 C.3    64  ARG64       0.1563
     11  C         43.8880    1.7930   33.3740 C.2    64  ARG64       0.2260
     12  O         44.7100    2.3370   34.1050 O.2    64  ARG64      -0.2867
     13  CB        44.1330    2.6800   31.0730 C.3    64  ARG64       0.0307
     14  CG        45.1610    2.7160   29.9660 C.3    64  ARG64       0.0489
     15  CD        44.5640    2.1710   28.6860 C.3    64  ARG64       0.2205
     16  NE        43.9270    3.2420   27.9290 N.pl3  64  ARG64      -0.0865
     17  CZ        42.9170    3.0800   27.0810 C.cat  64  ARG64       0.5346
     18  NH1       42.3870    1.8850   26.8740 N.pl3  64  ARG64       0.1354
     19  NH2       42.4240    4.1270   26.4440 N.pl3  64  ARG64       0.1354
     20  N         37.3370    7.8200   34.9380 N.3   147  ALA147     -0.1245
     21  CA        37.8430    8.4450   33.7320 C.3   147  ALA147      0.1562
     22  C         38.8750    9.5140   34.0450 C.2   147  ALA147      0.2260
     23  O         39.8480    9.6760   33.3030 O.2   147  ALA147     -0.2867
     24  CB        36.7270    9.0150   32.9310 C.3   147  ALA147      0.0290
     25  N         42.1730    7.7530   33.9030 N.3   150  ILE150     -0.1231
     26  CA        42.6730    7.3770   32.5920 C.3   150  ILE150      0.1692
     27  C         43.2200    8.5830   31.8280 C.2   150  ILE150      0.2592
     28  O         44.3580    8.5590   31.3770 O.2   150  ILE150     -0.2718
     29  CB        41.6140    6.6530   31.7380 C.3   150  ILE150      0.0266
     30  CG1       41.0510    5.4440   32.4950 C.3   150  ILE150      0.0019
     31  CG2       42.2230    6.2280   30.3900 C.3   150  ILE150      0.0020
     32  CD1       39.6070    5.1260   32.1750 C.3   150  ILE150      0.0001
     33  N         42.4160    9.6340   31.6900 N.am  151  THR151     -0.1953
     34  CA        42.8810   10.8680   31.0570 C.3   151  THR151      0.1897
     35  C         44.1960   11.3980   31.6460 C.2   151  THR151      0.2313
     36  O         45.1560   11.5750   30.9080 O.2   151  THR151     -0.2863
     37  CB        41.8130   11.9810   31.0640 C.3   151  THR151      0.1794
     38  OG1       41.1580   12.0410   32.3380 O.3   151  THR151     -0.2208
     39  CG2       40.7660   11.7080   30.0070 C.3   151  THR151      0.0378
     40  N         32.1910    3.3340   30.3850 N.3   217  LEU217     -0.1231
     41  CA        33.1370    4.4220   30.2260 C.3   217  LEU217      0.1693
     42  C         33.0080    4.9360   28.8120 C.2   217  LEU217      0.2591
     43  O         32.9290    6.1510   28.5950 O.2   217  LEU217     -0.2718
     44  CB        34.5680    3.9730   30.5160 C.3   217  LEU217      0.0284
     45  CG        34.7170    3.4680   31.9550 C.3   217  LEU217      0.0019
     46  CD1       35.9600    2.6090   32.1350 C.3   217  LEU217      0.0001
     47  CD2       34.6850    4.5820   33.0060 C.3   217  LEU217      0.0001
     48  N         32.9490    4.0040   27.8600 N.am  218  ALA218     -0.1980
     49  CA        33.0290    4.3510   26.4690 C.3   218  ALA218      0.1597
     50  C         31.7660    5.0660   26.0280 C.2   218  ALA218      0.2287
     51  O         31.8390    6.1280   25.4320 O.2   218  ALA218     -0.2864
     52  CB        33.2810    3.1370   25.6370 C.3   218  ALA218      0.0319
     53  N         31.6280    9.1070   27.9390 N.3   221  GLU221     -0.1231
     54  CA        32.6270   10.1740   27.7600 C.3   221  GLU221      0.1684
     55  C         32.4240   11.0260   26.5200 C.2   221  GLU221      0.2434
     56  O         32.3030   12.2400   26.6560 O.2   221  GLU221     -0.2733
     57  CB        34.0520    9.6310   27.7900 C.3   221  GLU221      0.0402
     58  CG        34.8060   10.0320   29.0510 C.3   221  GLU221      0.1161
     59  CD        35.1320   11.5200   29.1010 C.2   221  GLU221      0.3649
     60  OE1       35.2520   12.1430   28.0130 O.co2 221  GLU221     -0.2457
     61  OE2       35.2740   12.0630   30.2300 O.co2 221  GLU221     -0.2457
     62  N         32.3590   10.4070   25.3200 N.am  222  PRO222     -0.2729
     63  CA        32.3670   11.2470   24.1520 C.3   222  PRO222      0.1401
     64  C         31.0200   11.8620   23.7820 C.2   222  PRO222      0.2269
     65  O         31.0010   12.9790   23.2910 O.2   222  PRO222     -0.2865
     66  CB        32.8340   10.3050   23.0580 C.3   222  PRO222      0.0296
     67  CG        32.3290    9.0260   23.4670 C.3   222  PRO222      0.0237
     68  CD        32.3600    8.9860   24.9520 C.3   222  PRO222      0.0939
     69  N         37.5250   12.1780   21.4040 N.3   265  VAL265     -0.1245
     70  CA        38.6760   11.3950   21.8180 C.3   265  VAL265      0.1561
     71  C         39.8540   11.8520   20.9810 C.2   265  VAL265      0.2260
     72  O         39.9010   11.5810   19.7770 O.2   265  VAL265     -0.2867
     73  CB        38.4760    9.8900   21.5640 C.3   265  VAL265      0.0252
     74  CG1       39.7260    9.1150   21.9750 C.3   265  VAL265      0.0019
     75  CG2       37.2540    9.3700   22.2960 C.3   265  VAL265      0.0019
     76  N         44.5840    8.0380   20.8660 N.3   268  ILE268     -0.1245
     77  CA        44.3790    6.6030   20.9690 C.3   268  ILE268      0.1561
     78  C         45.7460    5.9700   21.1600 C.2   268  ILE268      0.2260
     79  O         46.5520    5.9000   20.2180 O.2   268  ILE268     -0.2867
     80  CB        43.6680    5.9740   19.7360 C.3   268  ILE268      0.0252
     81  CG1       42.1990    6.3720   19.6880 C.3   268  ILE268      0.0019
     82  CG2       43.7790    4.4420   19.7480 C.3   268  ILE268      0.0019
     83  CD1       41.4860    5.8820   18.4410 C.3   268  ILE268      0.0001
     84  N         35.1980    1.8960   17.1100 N.3   338  CYS338     -0.1235
     85  CA        34.1220    2.0030   18.0800 C.3   338  CYS338      0.1677
     86  C         32.9240    1.1460   17.7130 C.2   338  CYS338      0.2270
     87  O         32.3370    1.3120   16.6650 O.2   338  CYS338     -0.2867
     88  CB        33.6860    3.4460   18.2640 C.3   338  CYS338      0.0956
     89  SG        32.3480    3.5770   19.4230 S.3   338  CYS338     -0.0801
     90  N         43.3080   14.2460   26.5810 N.3   376  TYR376     -0.1227
     91  CA        43.1610   12.8730   26.1560 C.3   376  TYR376      0.1736
     92  C         41.7600   12.6610   25.5710 C.2   376  TYR376      0.2596
     93  O         41.6030   11.9790   24.5740 O.2   376  TYR376     -0.2718
     94  CB        43.4410   11.9940   27.3630 C.3   376  TYR376      0.0548
     95  CG        43.6120   10.5170   27.1230 C.ar  376  TYR376     -0.0200
     96  CD1       42.5800    9.7650   26.5460 C.ar  376  TYR376     -0.0009
     97  CD2       44.7770    9.8480   27.5550 C.ar  376  TYR376     -0.0009
     98  CE1       42.7070    8.3990   26.3500 C.ar  376  TYR376      0.0417
     99  CE2       44.9200    8.4690   27.3680 C.ar  376  TYR376      0.0417
    100  CZ        43.8710    7.7520   26.7600 C.ar  376  TYR376      0.1957
    101  OH        43.9520    6.3920   26.5500 O.3   376  TYR376     -0.2866
    102  N         40.7460   13.2480   26.2070 N.am  377  THR377     -0.1953
    103  CA        39.4530   13.5310   25.5590 C.3   377  THR377      0.1897
    104  C         39.1360   15.0030   25.7610 C.2   377  THR377      0.2313
    105  O         39.3480   15.5390   26.8240 O.2   377  THR377     -0.2863
    106  CB        38.2800   12.6870   26.1000 C.3   377  THR377      0.1794
    107  OG1       37.7780   13.2440   27.3190 O.3   377  THR377     -0.2208
    108  CG2       38.6930   11.2600   26.3280 C.3   377  THR377      0.0378
@<TRIPOS>BOND
     1    87    86    2
     2    84    85    1
     3    86    85    1
     4    85    88    1
     5    88    89    1
     6    83    81    1
     7    81    80    1
     8    80    82    1
     9    80    77    1
    10    72    71    2
    11    79    78    2
    12    76    77    1
    13    77    78    1
    14    71    70    1
    15    69    70    1
    16    73    70    1
    17    73    74    1
    18    73    75    1
    19    66    67    1
    20    66    63    1
    21    65    64    2
    22    67    68    1
    23    64    63    1
    24    63    62    1
    25    93    92    2
    26    68    62    1
    27    62    55   am
    28    51    50    2
    29   103   104    1
    30   103   106    1
    31   103   102    1
    32    92    91    1
    33    92   102   am
    34    52    49    1
    35   104   105    2
    36    50    49    1
    37   106   108    1
    38   106   107    1
    39    91    90    1
    40    91    94    1
    41    98    96   ar
    42    98   100   ar
    43    19    17    1
    44    49    48    1
    45    55    56    2
    46    55    54    1
    47    96    95   ar
    48   101   100    1
    49   100    99   ar
    50    18    17    1
    51    17    16    2
    52    95    94    1
    53    95    97   ar
    54     7     6    1
    55    99    97   ar
    56     8     6    1
    57     6     5    1
    58    54    57    1
    59    54    53    1
    60    57    58    1
    61    48    42   am
    62    16    15    1
    63    60    59   ar
    64     1     2    1
    65    43    42    2
    66    15    14    1
    67    42    41    1
    68     5     2    1
    69    58    59    1
    70     2     3    1
    71    59    61   ar
    72    14    13    1
    73    39    37    1
    74    41    40    1
    75    41    44    1
    76    31    29    1
    77    44    45    1
    78     3     4    2
    79    36    35    2
    80    34    37    1
    81    34    35    1
    82    34    33    1
    83    37    38    1
    84    13    10    1
    85    28    27    2
    86     9    10    1
    87    33    27   am
    88    29    30    1
    89    29    26    1
    90    27    26    1
    91    45    46    1
    92    45    47    1
    93    10    11    1
    94    32    30    1
    95    26    25    1
    96    24    21    1
    97    23    22    2
    98    11    12    2
    99    21    22    1
   100    21    20    1
