@<TRIPOS>MOLECULE
tmp/3nc7B01.pdb
 120 113 0 0 0
SMALL
GASTEIGER

@<TRIPOS>ATOM
      1  N         39.0490   -0.1690   27.8380 N.3    59  LEU59      -0.1245
      2  CA        38.9300    0.9320   28.8070 C.3    59  LEU59       0.1561
      3  C         39.0500    0.4500   30.2470 C.2    59  LEU59       0.2260
      4  O         39.7910    1.0330   31.0360 O.2    59  LEU59      -0.2867
      5  CB        37.6270    1.7090   28.6160 C.3    59  LEU59       0.0270
      6  CG        37.4500    2.4610   27.2910 C.3    59  LEU59       0.0019
      7  CD1       36.0260    2.9670   27.1480 C.3    59  LEU59       0.0001
      8  CD2       38.4530    3.6110   27.1440 C.3    59  LEU59       0.0001
      9  N         42.8430   -0.2920   31.0280 N.3    62  ARG62      -0.1245
     10  CA        43.7560    0.8260   31.2380 C.3    62  ARG62       0.1563
     11  C         43.6300    1.4230   32.6170 C.2    62  ARG62       0.2260
     12  O         44.5810    2.0030   33.1340 O.2    62  ARG62      -0.2867
     13  CB        43.4780    1.9250   30.2400 C.3    62  ARG62       0.0307
     14  CG        43.5750    1.4780   28.8250 C.3    62  ARG62       0.0489
     15  CD        42.7200    2.3540   27.9610 C.3    62  ARG62       0.2205
     16  NE        43.0190    3.7630   28.1910 N.pl3  62  ARG62      -0.0865
     17  CZ        42.6900    4.7460   27.3580 C.cat  62  ARG62       0.5346
     18  NH1       42.0600    4.4880   26.2140 N.pl3  62  ARG62       0.1354
     19  NH2       43.0030    5.9960   27.6670 N.pl3  62  ARG62       0.1354
     20  N         31.0700    7.6630   37.1790 N.3   142  HIS142     -0.1241
     21  CA        31.6200    7.6330   35.8280 C.3   142  HIS142      0.1621
     22  C         32.6680    8.7290   35.6120 C.2   142  HIS142      0.2264
     23  O         33.6980    8.4930   34.9660 O.2   142  HIS142     -0.2867
     24  CB        30.5110    7.7310   34.7730 C.3   142  HIS142      0.0745
     25  CG        31.0300    7.9910   33.3970 C.ar  142  HIS142      0.0817
     26  ND1       31.2230    9.2650   32.9040 N.ar  142  HIS142     -0.2268
     27  CD2       31.4580    7.1460   32.4310 C.ar  142  HIS142      0.1154
     28  CE1       31.7300    9.1930   31.6850 C.ar  142  HIS142      0.1986
     29  NE2       31.8820    7.9180   31.3720 N.ar  142  HIS142     -0.2212
     30  N         36.6680    7.8330   34.8300 N.3   146  ALA146     -0.1245
     31  CA        37.1170    8.4540   33.5780 C.3   146  ALA146      0.1562
     32  C         38.2090    9.4890   33.8090 C.2   146  ALA146      0.2260
     33  O         39.1190    9.6310   32.9990 O.2   146  ALA146     -0.2867
     34  CB        35.9440    9.0740   32.8520 C.3   146  ALA146      0.0290
     35  N         41.5430    7.7790   33.6340 N.3   149  ILE149     -0.1231
     36  CA        41.9470    7.5260   32.2580 C.3   149  ILE149      0.1692
     37  C         42.4430    8.7980   31.5530 C.2   149  ILE149      0.2592
     38  O         43.5590    8.8130   31.0310 O.2   149  ILE149     -0.2718
     39  CB        40.8140    6.8880   31.4350 C.3   149  ILE149      0.0266
     40  CG1       40.5110    5.4770   31.9310 C.3   149  ILE149      0.0019
     41  CG2       41.1760    6.8340   29.9650 C.3   149  ILE149      0.0020
     42  CD1       39.1890    5.3620   32.6070 C.3   149  ILE149      0.0001
     43  N         41.6240    9.8520   31.5440 N.am  150  THR150     -0.1953
     44  CA        41.9680   11.0930   30.8480 C.3   150  THR150      0.1897
     45  C         43.2590   11.7530   31.3430 C.2   150  THR150      0.2313
     46  O         44.0400   12.2430   30.5420 O.2   150  THR150     -0.2863
     47  CB        40.8450   12.1620   30.9300 C.3   150  THR150      0.1794
     48  OG1       40.7240   12.6380   32.2760 O.3   150  THR150     -0.2208
     49  CG2       39.5080   11.6180   30.4700 C.3   150  THR150      0.0378
     50  N         31.8560    3.4660   30.1940 N.3   212  LEU212     -0.1231
     51  CA        32.7730    4.5990   30.0110 C.3   212  LEU212      0.1693
     52  C         32.6820    5.0670   28.5790 C.2   212  LEU212      0.2591
     53  O         32.6070    6.2710   28.3190 O.2   212  LEU212     -0.2718
     54  CB        34.2260    4.2500   30.3560 C.3   212  LEU212      0.0284
     55  CG        34.5490    3.5750   31.6960 C.3   212  LEU212      0.0019
     56  CD1       36.0370    3.4090   31.8570 C.3   212  LEU212      0.0001
     57  CD2       33.9660    4.2940   32.9110 C.3   212  LEU212      0.0001
     58  N         32.6410    4.0990   27.6650 N.am  213  ALA213     -0.1980
     59  CA        32.6620    4.3550   26.2360 C.3   213  ALA213      0.1597
     60  C         31.4840    5.1910   25.6960 C.2   213  ALA213      0.2287
     61  O         31.7100    6.2690   25.1380 O.2   213  ALA213     -0.2864
     62  CB        32.7990    3.0590   25.4860 C.3   213  ALA213      0.0319
     63  N         30.8760    9.0240   27.5670 N.3   216  GLU216     -0.1231
     64  CA        31.8580   10.1050   27.3780 C.3   216  GLU216      0.1684
     65  C         31.6620   11.0260   26.1840 C.2   216  GLU216      0.2434
     66  O         31.5310   12.2270   26.3810 O.2   216  GLU216     -0.2733
     67  CB        33.2900    9.5820   27.3390 C.3   216  GLU216      0.0402
     68  CG        34.3200   10.7130   27.2140 C.3   216  GLU216      0.1161
     69  CD        34.5030   11.4990   28.5170 C.2   216  GLU216      0.3649
     70  OE1       33.7440   11.2450   29.4850 O.co2 216  GLU216     -0.2457
     71  OE2       35.4080   12.3670   28.5800 O.co2 216  GLU216     -0.2457
     72  N         31.6810   10.4870   24.9500 N.am  217  PRO217     -0.2729
     73  CA        31.6550   11.4430   23.8670 C.3   217  PRO217      0.1401
     74  C         30.2440   11.9210   23.5380 C.2   217  PRO217      0.2269
     75  O         30.0820   13.0730   23.1230 O.2   217  PRO217     -0.2865
     76  CB        32.2750   10.6720   22.6960 C.3   217  PRO217      0.0296
     77  CG        32.8880    9.4650   23.3090 C.3   217  PRO217      0.0237
     78  CD        31.9810    9.1460   24.4450 C.3   217  PRO217      0.0939
     79  N         37.1210   12.1410   20.9860 N.3   260  VAL260     -0.1245
     80  CA        38.3120   11.3870   21.3900 C.3   260  VAL260      0.1561
     81  C         39.5450   11.8720   20.6290 C.2   260  VAL260      0.2260
     82  O         39.7180   11.6010   19.4320 O.2   260  VAL260     -0.2867
     83  CB        38.1660    9.8610   21.2300 C.3   260  VAL260      0.0252
     84  CG1       39.5050    9.1880   21.4790 C.3   260  VAL260      0.0019
     85  CG2       37.1300    9.3150   22.2030 C.3   260  VAL260      0.0019
     86  N         42.8510   11.3750   21.6190 N.3   262  LEU262     -0.1231
     87  CA        43.9770   10.4290   21.6200 C.3   262  LEU262      0.1693
     88  C         43.5370    8.9740   21.6710 C.2   262  LEU262      0.2591
     89  O         42.5360    8.6490   22.3040 O.2   262  LEU262     -0.2718
     90  CB        44.9570   10.7330   22.7580 C.3   262  LEU262      0.0284
     91  CG        45.7170   12.0590   22.7190 C.3   262  LEU262      0.0019
     92  CD1       46.5830   12.2050   23.9530 C.3   262  LEU262      0.0001
     93  CD2       46.5580   12.1700   21.4560 C.3   262  LEU262      0.0001
     94  N         44.2770    8.1180   20.9710 N.am  263  ILE263     -0.1980
     95  CA        44.0970    6.6780   21.0490 C.3   263  ILE263      0.1595
     96  C         45.4660    6.0560   21.2580 C.2   263  ILE263      0.2287
     97  O         46.3510    6.2010   20.4190 O.2   263  ILE263     -0.2864
     98  CB        43.4510    6.0840   19.7900 C.3   263  ILE263      0.0276
     99  CG1       41.9960    6.5140   19.6830 C.3   263  ILE263      0.0022
    100  CG2       43.5260    4.5510   19.8260 C.3   263  ILE263      0.0022
    101  CD1       41.3280    6.0610   18.4180 C.3   263  ILE263      0.0001
    102  N         42.8720   13.7460   26.4610 N.3   371  TYR371     -0.1227
    103  CA        42.5200   12.4600   25.8500 C.3   371  TYR371      0.1736
    104  C         41.1810   12.6190   25.1360 C.2   371  TYR371      0.2596
    105  O         41.0380   12.1990   23.9900 O.2   371  TYR371     -0.2718
    106  CB        42.4250   11.3350   26.8720 C.3   371  TYR371      0.0548
    107  CG        43.7340   10.6510   27.2090 C.ar  371  TYR371     -0.0200
    108  CD1       43.9990    9.3530   26.7700 C.ar  371  TYR371     -0.0009
    109  CD2       44.7000   11.2890   27.9900 C.ar  371  TYR371     -0.0009
    110  CE1       45.2030    8.7110   27.0970 C.ar  371  TYR371      0.0417
    111  CE2       45.9020   10.6560   28.3280 C.ar  371  TYR371      0.0417
    112  CZ        46.1440    9.3710   27.8780 C.ar  371  TYR371      0.1957
    113  OH        47.3260    8.7510   28.2050 O.3   371  TYR371     -0.2866
    114  N         40.2040   13.2050   25.8210 N.am  372  THR372     -0.1953
    115  CA        38.9500   13.5950   25.1930 C.3   372  THR372      0.1897
    116  C         38.6890   15.0710   25.4450 C.2   372  THR372      0.2313
    117  O         38.7660   15.5390   26.5740 O.2   372  THR372     -0.2863
    118  CB        37.7450   12.7820   25.7000 C.3   372  THR372      0.1794
    119  OG1       37.4710   13.1220   27.0610 O.3   372  THR372     -0.2208
    120  CG2       38.0140   11.3070   25.6050 C.3   372  THR372      0.0378
@<TRIPOS>BOND
     1   101    99    1
     2    82    81    2
     3    99    98    1
     4    98   100    1
     5    98    95    1
     6    97    96    2
     7    81    80    1
     8    94    95    1
     9    94    88   am
    10    79    80    1
    11    95    96    1
    12    83    80    1
    13    83    84    1
    14    83    85    1
    15    93    91    1
    16    86    87    1
    17    87    88    1
    18    87    90    1
    19    88    89    2
    20    76    77    1
    21    76    73    1
    22    91    90    1
    23    91    92    1
    24    75    74    2
    25    77    78    1
    26    74    73    1
    27    73    72    1
    28   105   104    2
    29    78    72    1
    30    72    65   am
    31   104   114   am
    32   104   103    1
    33    61    60    2
    34   115   116    1
    35   115   118    1
    36   115   114    1
    37   116   117    2
    38    62    59    1
    39   120   118    1
    40    60    59    1
    41   118   119    1
    42   103   102    1
    43   103   106    1
    44    65    66    2
    45    65    64    1
    46    18    17    1
    47    59    58    1
    48   108   110   ar
    49   108   107   ar
    50   106   107    1
    51   110   112   ar
    52     8     6    1
    53     7     6    1
    54   107   109   ar
    55    68    67    1
    56    68    69    1
    57     6     5    1
    58    67    64    1
    59    17    19    1
    60    17    16    2
    61    64    63    1
    62    58    52   am
    63     1     2    1
    64   112   113    1
    65   112   111   ar
    66    15    16    1
    67    15    14    1
    68   109   111   ar
    69    53    52    2
    70    69    71   ar
    71    69    70   ar
    72    52    51    1
    73     5     2    1
    74     2     3    1
    75    14    13    1
    76    41    39    1
    77    51    50    1
    78    51    54    1
    79    13    10    1
    80     3     4    2
    81    54    55    1
    82    49    47    1
    83    46    45    2
    84    44    47    1
    85    44    45    1
    86    44    43    1
    87    47    48    1
    88     9    10    1
    89    38    37    2
    90    10    11    1
    91    29    28   ar
    92    29    27   ar
    93    39    40    1
    94    39    36    1
    95    43    37   am
    96    37    36    1
    97    28    26   ar
    98    55    56    1
    99    55    57    1
   100    40    42    1
   101    36    35    1
   102    27    25   ar
   103    11    12    2
   104    34    31    1
   105    26    25   ar
   106    33    32    2
   107    25    24    1
   108    31    32    1
   109    31    30    1
   110    24    21    1
   111    23    22    2
   112    22    21    1
   113    21    20    1
