@<TRIPOS>MOLECULE
tmp/3nc8A00.pdb
 98 91 0 0 0
SMALL
GASTEIGER

@<TRIPOS>ATOM
      1  N        -17.8310  -12.4550    4.0960 N.3    41  CYS41      -0.1221
      2  CA       -16.3750  -12.3400    4.1890 C.3    41  CYS41       0.1808
      3  C        -16.0220  -11.8710    5.5990 C.2    41  CYS41       0.2601
      4  O        -16.6560  -12.2890    6.5780 O.2    41  CYS41      -0.2717
      5  CB       -15.8140  -11.4290    3.0990 C.3    41  CYS41       0.0970
      6  SG       -16.3000  -11.9780    1.4380 S.3    41  CYS41      -0.0800
      7  N        -15.0520  -10.9810    5.7430 N.am   42  SER42      -0.1952
      8  CA       -14.5620  -10.6800    7.0970 C.3    42  SER42       0.1924
      9  C        -15.4590   -9.7960    7.9170 C.2    42  SER42       0.2314
     10  O        -15.1500   -9.5320    9.0780 O.2    42  SER42      -0.2863
     11  CB       -13.1870  -10.0350    7.0860 C.3    42  SER42       0.2116
     12  OG       -12.1940  -10.9850    6.7200 O.3    42  SER42      -0.2180
     13  N        -16.5090  -10.5560   11.5120 N.3    45  LYS45      -0.1245
     14  CA       -15.6040  -10.4570   12.6660 C.3    45  LYS45       0.1561
     15  C        -16.0120   -9.4020   13.6720 C.2    45  LYS45       0.2260
     16  O        -15.6490   -9.5340   14.8460 O.2    45  LYS45      -0.2867
     17  CB       -14.1490  -10.2880   12.2290 C.3    45  LYS45       0.0271
     18  CG       -13.7040  -11.4780   11.3970 C.3    45  LYS45       0.0035
     19  CD       -12.3310  -11.2630   10.7480 C.3    45  LYS45       0.0206
     20  CE       -12.1270  -12.3990    9.7370 C.3    45  LYS45       0.1093
     21  NZ       -10.7880  -12.3510    9.0800 N.3    45  LYS45      -0.1314
     22  N         -4.7750  -18.9880    6.3190 N.3    74  SER74      -0.1202
     23  CA        -5.4230  -17.8240    5.6800 C.3    74  SER74       0.2020
     24  C         -4.6150  -16.5700    5.9790 C.2    74  SER74       0.2618
     25  O         -3.7590  -16.6060    6.8480 O.2    74  SER74      -0.2717
     26  CB        -6.8570  -17.6630    6.2240 C.3    74  SER74       0.2103
     27  OG        -6.8600  -17.3260    7.6080 O.3    74  SER74      -0.2182
     28  N         -4.8920  -15.4690    5.2810 N.am   75  ILE75      -0.1979
     29  CA        -4.2410  -14.1690    5.5380 C.3    75  ILE75       0.1595
     30  C         -4.3480  -13.8300    7.0100 C.2    75  ILE75       0.2287
     31  O         -5.4570  -13.7340    7.5450 O.2    75  ILE75      -0.2864
     32  CB        -4.8560  -13.0240    4.6670 C.3    75  ILE75       0.0276
     33  CG1       -4.5930  -13.2770    3.1840 C.3    75  ILE75       0.0022
     34  CG2       -4.2830  -11.6610    5.0660 C.3    75  ILE75       0.0022
     35  CD1       -5.4960  -12.4530    2.2710 C.3    75  ILE75       0.0001
     36  N         -8.0400   -7.7520    9.9830 N.3   100  SER100     -0.1217
     37  CA        -8.8200   -8.7940    9.3470 C.3   100  SER100      0.1889
     38  C         -8.1140  -10.1460    9.3570 C.2   100  SER100      0.2288
     39  O         -8.1780  -10.8750    8.4410 O.2   100  SER100     -0.2866
     40  CB        -9.1670   -8.4180    7.9360 C.3   100  SER100      0.2089
     41  OG       -10.5030   -8.6320    7.6250 O.3   100  SER100     -0.2183
     42  N         -7.3140  -13.7870    9.7040 N.3   102  GLY102     -0.1225
     43  CA        -8.1200  -14.9930    9.5510 C.3   102  GLY102      0.1811
     44  C         -7.9120  -16.0220   10.6450 C.2   102  GLY102      0.2280
     45  O         -8.8630  -16.6290   11.1180 O.2   102  GLY102     -0.2866
     46  N        -10.1150  -20.6850    5.4310 N.3   141  PRO141     -0.2116
     47  CA       -10.3760  -19.8080    4.2860 C.3   141  PRO141      0.1372
     48  C        -11.6900  -20.0800    3.5560 C.2   141  PRO141      0.2244
     49  O        -12.0520  -19.3250    2.6480 O.2   141  PRO141     -0.2868
     50  CB        -9.1840  -20.1320    3.3590 C.3   141  PRO141      0.0268
     51  CG        -8.9930  -21.5920    3.5590 C.3   141  PRO141      0.0207
     52  CD        -9.1940  -21.7840    5.0720 C.3   141  PRO141      0.0892
     53  N        -14.8910  -19.7160    4.0810 N.3   143  LEU143     -0.1231
     54  CA       -16.0630  -18.8630    4.1040 C.3   143  LEU143      0.1693
     55  C        -16.1000  -17.8260    3.0110 C.2   143  LEU143      0.2592
     56  O        -17.1180  -17.3250    2.7510 O.2   143  LEU143     -0.2718
     57  CB       -16.2210  -18.1530    5.4700 C.3   143  LEU143      0.0284
     58  CG       -15.4240  -16.8540    5.6320 C.3   143  LEU143      0.0019
     59  CD1      -16.0640  -15.9840    6.6490 C.3   143  LEU143      0.0001
     60  CD2      -13.9910  -17.0370    5.9960 C.3   143  LEU143      0.0001
     61  N        -14.9620  -17.5270    2.3820 N.am  144  ASN144     -0.1974
     62  CA       -14.9090  -16.5140    1.3020 C.3   144  ASN144      0.1688
     63  C        -15.1240  -17.0550   -0.1130 C.2   144  ASN144      0.2292
     64  O        -15.1330  -16.3000   -1.0890 O.2   144  ASN144     -0.2864
     65  CB       -13.5750  -15.7490    1.3520 C.3   144  ASN144      0.1181
     66  CG       -13.3100  -15.1640    2.6890 C.2   144  ASN144      0.2629
     67  OD1      -14.2070  -14.5870    3.3180 O.2   144  ASN144     -0.2716
     68  ND2      -12.0730  -15.3200    3.1640 N.am  144  ASN144     -0.0877
     69  N        -14.5930   -6.4930    4.4260 N.3   210  GLY210     -0.1210
     70  CA       -14.4210   -7.8920    4.0380 C.3   210  GLY210      0.1956
     71  C        -14.1060   -7.9650    2.5600 C.2   210  GLY210      0.2613
     72  O        -14.5550   -7.1070    1.7810 O.2   210  GLY210     -0.2717
     73  N        -13.3310   -8.9730    2.1880 N.am  211  THR211     -0.1938
     74  CA       -12.9280   -9.1500    0.8050 C.3   211  THR211      0.2028
     75  C        -12.9110  -10.6570    0.5630 C.2   211  THR211      0.2643
     76  O        -12.5570  -11.4270    1.4690 O.2   211  THR211     -0.2714
     77  CB       -11.5300   -8.5320    0.5670 C.3   211  THR211      0.1808
     78  OG1      -11.5870   -7.1550    0.9470 O.3   211  THR211     -0.2208
     79  CG2      -11.1350   -8.5940   -0.8790 C.3   211  THR211      0.0379
     80  N        -13.3760  -11.0840   -0.6110 N.am  212  GLY212     -0.1939
     81  CA       -13.4550  -12.5160   -0.8880 C.3   212  GLY212      0.2014
     82  C        -13.2010  -12.8000   -2.3550 C.2   212  GLY212      0.2638
     83  O        -12.8190  -11.9130   -3.1280 O.2   212  GLY212     -0.2714
     84  N        -13.4060  -14.0610   -2.7280 N.am  213  ASP213     -0.1971
     85  CA       -13.2910  -14.4550   -4.1230 C.3   213  ASP213      0.1709
     86  C        -14.4970  -13.9580   -4.9000 C.2   213  ASP213      0.2293
     87  O        -15.3760  -13.3390   -4.3210 O.2   213  ASP213     -0.2864
     88  CB       -13.1420  -15.9580   -4.1750 C.3   213  ASP213      0.1436
     89  CG       -11.9430  -16.3990   -3.3940 C.2   213  ASP213      0.3671
     90  OD1      -10.8310  -16.0580   -3.8270 O.co2 213  ASP213     -0.2456
     91  OD2      -12.1140  -17.0080   -2.3290 O.co2 213  ASP213     -0.2456
     92  N        -11.5270   -7.8350   -6.5720 N.3   248  PRO248     -0.2116
     93  CA       -12.4010   -6.9710   -5.7620 C.3   248  PRO248      0.1372
     94  C        -12.0950   -5.5380   -6.1500 C.2   248  PRO248      0.2244
     95  O        -10.9280   -5.2310   -6.4540 O.2   248  PRO248     -0.2868
     96  CB       -11.9460   -7.2860   -4.3230 C.3   248  PRO248      0.0268
     97  CG       -11.3870   -8.7230   -4.4250 C.3   248  PRO248      0.0207
     98  CD       -10.6080   -8.6210   -5.7230 C.3   248  PRO248      0.0892
@<TRIPOS>BOND
     1    92    93    1
     2    92    98    1
     3    95    94    2
     4    94    93    1
     5    93    96    1
     6    98    97    1
     7    86    87    2
     8    86    85    1
     9    97    96    1
    10    88    85    1
    11    88    89    1
    12    85    84    1
    13    90    89   ar
    14    89    91   ar
    15    83    82    2
    16    84    82   am
    17    82    81    1
    18    64    63    2
    19    81    80    1
    20    79    77    1
    21    80    75   am
    22    63    62    1
    23    75    74    1
    24    75    76    2
    25    77    74    1
    26    77    78    1
    27    74    73    1
    28    62    65    1
    29    62    61    1
    30    65    66    1
    31     6     5    1
    32    72    71    2
    33    73    71   am
    34    35    33    1
    35    61    55   am
    36    71    70    1
    37    49    48    2
    38    66    68   am
    39    66    67    2
    40    56    55    2
    41    55    54    1
    42     5     2    1
    43    33    32    1
    44    50    51    1
    45    50    47    1
    46    48    47    1
    47    51    52    1
    48    70    69    1
    49    53    54    1
    50     1     2    1
    51    54    57    1
    52     2     3    1
    53    47    46    1
    54    32    34    1
    55    32    29    1
    56    52    46    1
    57    28    29    1
    58    28    24   am
    59    57    58    1
    60    29    30    1
    61     3     7   am
    62     3     4    2
    63    58    60    1
    64    58    59    1
    65    23    24    1
    66    23    26    1
    67    23    22    1
    68     7     8    1
    69    24    25    2
    70    26    27    1
    71    12    11    1
    72    30    31    2
    73    11     8    1
    74     8     9    1
    75    41    40    1
    76     9    10    2
    77    40    37    1
    78    39    38    2
    79    21    20    1
    80    37    38    1
    81    37    36    1
    82    43    42    1
    83    43    44    1
    84    20    19    1
    85    44    45    2
    86    19    18    1
    87    18    17    1
    88    13    14    1
    89    17    14    1
    90    14    15    1
    91    15    16    2
