@<TRIPOS>MOLECULE
tmp/3nc9B00.pdb
 132 123 0 0 0
SMALL
GASTEIGER

@<TRIPOS>ATOM
      1  N        -21.9410   14.3130   40.5540 N.3   111  ARG111     -0.1245
      2  CA       -20.4850   14.2360   40.5640 C.3   111  ARG111      0.1563
      3  C        -19.9930   12.7960   40.4930 C.2   111  ARG111      0.2260
      4  O        -20.3810   11.9540   41.3060 O.2   111  ARG111     -0.2867
      5  CB       -19.9160   14.8960   41.8190 C.3   111  ARG111      0.0307
      6  CG       -20.4790   16.2710   42.1020 C.3   111  ARG111      0.0489
      7  CD       -19.4350   17.1460   42.7780 C.3   111  ARG111      0.2205
      8  NE       -18.5120   16.3750   43.6060 N.pl3 111  ARG111     -0.0865
      9  CZ       -18.6830   16.1410   44.9050 C.cat 111  ARG111      0.5346
     10  NH1      -19.7520   16.6170   45.5310 N.pl3 111  ARG111      0.1354
     11  NH2      -17.7840   15.4320   45.5810 N.pl3 111  ARG111      0.1354
     12  N        -22.7300   11.9280   57.7840 N.3   197  ASP197     -0.1239
     13  CA       -22.5310   10.6210   57.1410 C.3   197  ASP197      0.1674
     14  C        -22.0860    9.5140   58.0840 C.2   197  ASP197      0.2266
     15  O        -22.3820    8.3460   57.8560 O.2   197  ASP197     -0.2867
     16  CB       -21.5470   10.7450   55.9810 C.3   197  ASP197      0.1410
     17  CG       -21.8810   11.9090   55.0900 C.2   197  ASP197      0.3668
     18  OD1      -21.6380   13.0670   55.5210 O.co2 197  ASP197     -0.2456
     19  OD2      -22.4180   11.6730   53.9830 O.co2 197  ASP197     -0.2456
     20  N        -22.9040   18.9080   62.7330 N.3   227  ALA227     -0.1245
     21  CA       -23.5580   19.7410   61.7440 C.3   227  ALA227      0.1562
     22  C        -24.4090   18.8370   60.8700 C.2   227  ALA227      0.2260
     23  O        -23.9780   17.7390   60.5170 O.2   227  ALA227     -0.2867
     24  CB       -22.5120   20.4550   60.8860 C.3   227  ALA227      0.0290
     25  N        -26.1370   20.0410   57.9310 N.3   229  ALA229     -0.1231
     26  CA       -26.3880   20.8140   56.7140 C.3   229  ALA229      0.1694
     27  C        -27.5130   21.8060   56.9000 C.2   229  ALA229      0.2591
     28  O        -27.3820   22.6910   57.7400 O.2   229  ALA229     -0.2718
     29  CB       -26.6190   19.9110   55.5180 C.3   229  ALA229      0.0304
     30  N        -28.5960   21.6910   56.1220 N.am  230  GLU230     -0.1979
     31  CA       -29.6690   22.6980   56.1900 C.3   230  GLU230      0.1602
     32  C        -30.4660   22.6900   57.5090 C.2   230  GLU230      0.2287
     33  O        -31.1250   23.6660   57.8590 O.2   230  GLU230     -0.2864
     34  CB       -30.6030   22.6140   54.9840 C.3   230  GLU230      0.0415
     35  CG       -30.4960   21.3160   54.2240 C.3   230  GLU230      0.1163
     36  CD       -29.4120   21.3450   53.1480 C.2   230  GLU230      0.3649
     37  OE1      -29.2710   22.3880   52.4630 O.co2 230  GLU230     -0.2457
     38  OE2      -28.7170   20.3140   52.9830 O.co2 230  GLU230     -0.2457
     39  N        -28.9660   22.8290   60.2650 N.3   232  GLY232     -0.1210
     40  CA       -28.1010   23.5340   61.2030 C.3   232  GLY232      0.1956
     41  C        -27.1940   22.6110   61.9920 C.2   232  GLY232      0.2611
     42  O        -26.7710   21.5840   61.4930 O.2   232  GLY232     -0.2717
     43  N        -26.9680   22.9010   63.2600 N.am  233  ALA233     -0.1979
     44  CA       -25.9630   22.1210   63.9770 C.3   233  ALA233      0.1597
     45  C        -26.2340   22.0140   65.4540 C.2   233  ALA233      0.2287
     46  O        -26.6890   22.9610   66.0530 O.2   233  ALA233     -0.2864
     47  CB       -24.5270   22.7580   63.7380 C.3   233  ALA233      0.0319
     48  N        -29.5320   26.6620   60.5680 N.3   247  ALA247     -0.1231
     49  CA       -28.7640   27.0660   59.4250 C.3   247  ALA247      0.1694
     50  C        -29.0040   28.5310   59.0590 C.2   247  ALA247      0.2592
     51  O        -29.9460   29.1730   59.5470 O.2   247  ALA247     -0.2718
     52  CB       -29.0710   26.1680   58.2590 C.3   247  ALA247      0.0304
     53  N        -28.1110   29.0570   58.2260 N.am  248  PHE248     -0.1963
     54  CA       -28.2040   30.4000   57.6790 C.3   248  PHE248      0.1756
     55  C        -28.0980   30.2890   56.1670 C.2   248  PHE248      0.2461
     56  O        -27.0470   30.5910   55.5870 O.2   248  PHE248     -0.2730
     57  CB       -27.0760   31.2640   58.2060 C.3   248  PHE248      0.0574
     58  CG       -27.1880   31.5620   59.6530 C.ar  248  PHE248     -0.0200
     59  CD1      -27.8350   32.7180   60.0860 C.ar  248  PHE248     -0.0042
     60  CD2      -26.6670   30.6880   60.5910 C.ar  248  PHE248     -0.0042
     61  CE1      -27.9580   33.0090   61.4460 C.ar  248  PHE248     -0.0003
     62  CE2      -26.7830   30.9630   61.9520 C.ar  248  PHE248     -0.0003
     63  CZ       -27.4320   32.1260   62.3820 C.ar  248  PHE248     -0.0000
     64  N        -29.1900   29.8580   55.5160 N.am  249  PRO249     -0.2716
     65  CA       -29.1210   29.5900   54.0820 C.3   249  PRO249      0.1521
     66  C        -28.7870   30.8690   53.3530 C.2   249  PRO249      0.2440
     67  O        -29.1730   31.9450   53.8050 O.2   249  PRO249     -0.2731
     68  CB       -30.5410   29.1440   53.7370 C.3   249  PRO249      0.0310
     69  CG       -31.1700   28.8080   55.0510 C.3   249  PRO249      0.0237
     70  CD       -30.5690   29.7440   56.0210 C.3   249  PRO249      0.0939
     71  N        -28.0280   30.7580   52.2630 N.am  250  PRO250     -0.2727
     72  CA       -27.6940   31.9050   51.4230 C.3   250  PRO250      0.1402
     73  C        -28.7610   32.0810   50.3250 C.2   250  PRO250      0.2269
     74  O        -29.4090   31.0970   49.9480 O.2   250  PRO250     -0.2865
     75  CB       -26.3660   31.4760   50.8100 C.3   250  PRO250      0.0296
     76  CG       -26.5210   29.9970   50.6440 C.3   250  PRO250      0.0237
     77  CD       -27.3770   29.5210   51.7960 C.3   250  PRO250      0.0939
     78  N        -27.9060   28.6520   46.6800 N.3   253  VAL253     -0.1245
     79  CA       -26.7800   27.7430   46.8640 C.3   253  VAL253      0.1561
     80  C        -25.9230   27.5270   45.6150 C.2   253  VAL253      0.2260
     81  O        -26.3140   26.8140   44.6860 O.2   253  VAL253     -0.2867
     82  CB       -27.2530   26.3830   47.3590 C.3   253  VAL253      0.0252
     83  CG1      -26.0630   25.4350   47.4440 C.3   253  VAL253      0.0019
     84  CG2      -27.9350   26.5420   48.7040 C.3   253  VAL253      0.0019
     85  N        -21.1390   23.9910   47.5370 N.3   256  THR256     -0.1218
     86  CA       -21.0910   23.4280   48.8760 C.3   256  THR256      0.1862
     87  C        -19.8130   22.6430   49.1880 C.2   256  THR256      0.2287
     88  O        -19.6130   22.2200   50.3190 O.2   256  THR256     -0.2866
     89  CB       -22.2960   22.5250   49.1200 C.3   256  THR256      0.1770
     90  OG1      -22.3020   21.4890   48.1390 O.3   256  THR256     -0.2211
     91  CG2      -23.5690   23.3210   49.0000 C.3   256  THR256      0.0375
     92  N        -18.0640   23.0820   52.7070 N.3   259  ALA259     -0.1231
     93  CA       -18.9270   23.7750   53.6640 C.3   259  ALA259      0.1694
     94  C        -18.7280   23.1500   55.0490 C.2   259  ALA259      0.2592
     95  O        -18.6160   23.8430   56.0370 O.2   259  ALA259     -0.2718
     96  CB       -20.3920   23.6940   53.2220 C.3   259  ALA259      0.0304
     97  N        -18.6570   21.8260   55.1030 N.am  260  GLY260     -0.1957
     98  CA       -18.3790   21.1400   56.3490 C.3   260  GLY260      0.1869
     99  C        -17.0430   21.5330   56.9710 C.2   260  GLY260      0.2309
    100  O        -16.9650   21.6630   58.1910 O.2   260  GLY260     -0.2863
    101  N        -17.3310   25.0310   58.3980 N.3   263  PHE263     -0.1241
    102  CA       -17.9970   25.0010   59.6940 C.3   263  PHE263      0.1605
    103  C        -17.0400   24.5220   60.8070 C.2   263  PHE263      0.2264
    104  O        -16.9640   25.1180   61.8750 O.2   263  PHE263     -0.2867
    105  CB       -19.2840   24.1530   59.6220 C.3   263  PHE263      0.0534
    106  CG       -19.8460   23.7560   60.9650 C.ar  263  PHE263     -0.0203
    107  CD1      -20.9350   24.4440   61.5190 C.ar  263  PHE263     -0.0042
    108  CD2      -19.3290   22.6750   61.6530 C.ar  263  PHE263     -0.0042
    109  CE1      -21.4660   24.0830   62.7590 C.ar  263  PHE263     -0.0003
    110  CE2      -19.8540   22.3010   62.8770 C.ar  263  PHE263     -0.0003
    111  CZ       -20.9380   23.0120   63.4300 C.ar  263  PHE263     -0.0000
    112  N        -22.3420   28.0820   61.7810 N.3   285  CYS285     -0.1235
    113  CA       -23.4750   28.0600   60.8630 C.3   285  CYS285      0.1677
    114  C        -23.5370   29.2920   59.9880 C.2   285  CYS285      0.2270
    115  O        -23.8480   29.1820   58.8180 O.2   285  CYS285     -0.2867
    116  CB       -24.8000   27.8910   61.6320 C.3   285  CYS285      0.0956
    117  SG       -24.9540   26.2860   62.3440 S.3   285  CYS285     -0.0801
    118  N        -20.3660   28.9950   57.3180 N.3   288  ALA288     -0.1231
    119  CA       -20.5620   27.9110   56.3770 C.3   288  ALA288      0.1694
    120  C        -21.7650   28.2010   55.4650 C.2   288  ALA288      0.2592
    121  O        -21.7390   27.9040   54.2700 O.2   288  ALA288     -0.2718
    122  CB       -20.7630   26.5980   57.1170 C.3   288  ALA288      0.0304
    123  N        -22.8120   28.7840   56.0310 N.am  289  GLY289     -0.1957
    124  CA       -23.9580   29.1760   55.2340 C.3   289  GLY289      0.1869
    125  C        -23.6140   30.2090   54.1850 C.2   289  GLY289      0.2309
    126  O        -24.0070   30.1040   53.0170 O.2   289  GLY289     -0.2863
    127  N        -21.5900   28.6940   51.2590 N.3   292  CYS292     -0.1235
    128  CA       -22.3700   27.8820   50.3360 C.3   292  CYS292      0.1677
    129  C        -23.0100   28.6910   49.2030 C.2   292  CYS292      0.2270
    130  O        -23.3620   28.1400   48.1670 O.2   292  CYS292     -0.2867
    131  CB       -23.4340   27.1280   51.1010 C.3   292  CYS292      0.0956
    132  SG       -22.7890   25.6890   51.9060 S.3   292  CYS292     -0.0801
@<TRIPOS>BOND
     1     3     2    1
     2     3     4    2
     3     1     2    1
     4     2     5    1
     5     5     6    1
     6     6     7    1
     7     7     8    1
     8     8     9    2
     9    81    80    2
    10     9    10    1
    11     9    11    1
    12    80    79    1
    13    78    79    1
    14    79    82    1
    15    82    83    1
    16    82    84    1
    17    85    86    1
    18    90    89    1
    19   130   129    2
    20    86    89    1
    21    86    87    1
    22    91    89    1
    23    87    88    2
    24   129   128    1
    25    74    73    2
    26    73    72    1
    27   128   131    1
    28   128   127    1
    29    76    75    1
    30    76    77    1
    31    75    72    1
    32   131   132    1
    33    72    71    1
    34    77    71    1
    35    71    66   am
    36    37    36   ar
    37    92    93    1
    38    38    36   ar
    39   126   125    2
    40    36    35    1
    41    96    93    1
    42    66    67    2
    43    66    65    1
    44    93    94    1
    45    68    65    1
    46    68    69    1
    47    19    17   ar
    48    65    64    1
    49   125   124    1
    50    35    34    1
    51   121   120    2
    52    34    31    1
    53    94    97   am
    54    94    95    2
    55    69    70    1
    56    17    18   ar
    57    17    16    1
    58    97    98    1
    59   124   123    1
    60   120   123   am
    61   120   119    1
    62    64    70    1
    63    64    55   am
    64    29    26    1
    65    56    55    2
    66    16    13    1
    67    30    31    1
    68    30    27   am
    69    55    54    1
    70    31    32    1
    71    98    99    1
    72   119   122    1
    73   119   118    1
    74    26    27    1
    75    26    25    1
    76    27    28    2
    77    99   100    2
    78    13    12    1
    79    13    14    1
    80    32    33    2
    81    54    57    1
    82    54    53    1
    83    15    14    2
    84    57    58    1
    85    53    50   am
    86    52    49    1
    87   101   102    1
    88   115   114    2
    89    50    49    1
    90    50    51    2
    91    49    48    1
    92   105   102    1
    93   105   106    1
    94    58    59   ar
    95    58    60   ar
    96   102   103    1
    97   114   113    1
    98    59    61   ar
    99    39    40    1
   100    23    22    2
   101    60    62   ar
   102   103   104    2
   103   113   116    1
   104   113   112    1
   105    22    21    1
   106    24    21    1
   107   106   107   ar
   108   106   108   ar
   109    40    41    1
   110    61    63   ar
   111    42    41    2
   112   107   109   ar
   113   116   117    1
   114   108   110   ar
   115    21    20    1
   116    62    63   ar
   117    41    43   am
   118   109   111   ar
   119   110   111   ar
   120    43    44    1
   121    47    44    1
   122    44    45    1
   123    45    46    2
