@<TRIPOS>MOLECULE
tmp/3ncaA00.pdb
 108 101 0 0 0
SMALL
GASTEIGER

@<TRIPOS>ATOM
      1  N         -5.3690    2.6690   10.5770 N.3   222  ALA222     -0.1245
      2  CA        -5.2500    1.6660   11.6140 C.3   222  ALA222      0.1562
      3  C         -6.6410    1.3920   12.1600 C.2   222  ALA222      0.2260
      4  O         -7.5350    2.2410   12.0740 O.2   222  ALA222     -0.2867
      5  CB        -4.3170    2.1410   12.7200 C.3   222  ALA222      0.0290
      6  N         -7.0390   -0.6150   15.3180 N.3   224  ALA224     -0.1231
      7  CA        -6.8240   -1.2630   16.5990 C.3   224  ALA224      0.1694
      8  C         -6.4330   -2.7310   16.4230 C.2   224  ALA224      0.2591
      9  O         -5.4810   -3.0560   15.7000 O.2   224  ALA224     -0.2718
     10  CB        -8.0630   -1.1410   17.4520 C.3   224  ALA224      0.0304
     11  N         -7.1730   -3.6190   17.0780 N.am  225  GLU225     -0.1979
     12  CA        -6.8080   -5.0250   17.0780 C.3   225  GLU225      0.1602
     13  C         -7.0750   -5.6630   15.7220 C.2   225  GLU225      0.2287
     14  O         -6.6780   -6.7990   15.4730 O.2   225  GLU225     -0.2864
     15  CB        -7.5260   -5.7800   18.1910 C.3   225  GLU225      0.0415
     16  CG        -9.0380   -5.7290   18.0760 C.3   225  GLU225      0.1163
     17  CD        -9.5950   -4.3470   18.3740 C.2   225  GLU225      0.3649
     18  OE1      -10.3340   -3.8030   17.5100 O.co2 225  GLU225     -0.2457
     19  OE2       -9.2920   -3.8150   19.4730 O.co2 225  GLU225     -0.2457
     20  N         -5.6380   -4.5510   13.2610 N.3   227  GLY227     -0.1225
     21  CA        -4.4440   -4.1810   12.5270 C.3   227  GLY227      0.1811
     22  C         -4.6040   -2.8850   11.7550 C.2   227  GLY227      0.2280
     23  O         -5.2760   -1.9650   12.1940 O.2   227  GLY227     -0.2866
     24  N         -2.3480   -7.0090   13.7820 N.3   242  ALA242     -0.1231
     25  CA        -1.8540   -6.2960   14.9500 C.3   242  ALA242      0.1694
     26  C         -0.8720   -7.1870   15.6860 C.2   242  ALA242      0.2592
     27  O         -0.8540   -8.4110   15.4810 O.2   242  ALA242     -0.2718
     28  CB        -3.0010   -5.9390   15.8600 C.3   242  ALA242      0.0304
     29  N         -0.0580   -6.5750   16.5420 N.am  243  PHE243     -0.1963
     30  CA         0.7650   -7.3240   17.4830 C.3   243  PHE243      0.1756
     31  C          0.2510   -7.0580   18.8980 C.2   243  PHE243      0.2461
     32  O          0.9480   -6.4520   19.7040 O.2   243  PHE243     -0.2730
     33  CB         2.2280   -6.8750   17.4290 C.3   243  PHE243      0.0574
     34  CG         2.8870   -7.0560   16.1020 C.ar  243  PHE243     -0.0200
     35  CD1        4.0020   -7.8750   15.9790 C.ar  243  PHE243     -0.0042
     36  CD2        2.4240   -6.3890   14.9830 C.ar  243  PHE243     -0.0042
     37  CE1        4.6280   -8.0360   14.7630 C.ar  243  PHE243     -0.0003
     38  CE2        3.0450   -6.5510   13.7610 C.ar  243  PHE243     -0.0003
     39  CZ         4.1500   -7.3660   13.6490 C.ar  243  PHE243     -0.0000
     40  N         -0.9730   -7.5020   19.2040 N.am  244  PRO244     -0.2716
     41  CA        -1.5320   -7.2730   20.5420 C.3   244  PRO244      0.1521
     42  C         -0.6770   -7.9180   21.6160 C.2   244  PRO244      0.2440
     43  O         -0.2420   -9.0480   21.4570 O.2   244  PRO244     -0.2731
     44  CB        -2.8750   -8.0200   20.4930 C.3   244  PRO244      0.0310
     45  CG        -2.6940   -9.0710   19.4620 C.3   244  PRO244      0.0237
     46  CD        -1.8110   -8.4180   18.4080 C.3   244  PRO244      0.0939
     47  N         -0.4530   -7.2150   22.7270 N.am  245  PRO245     -0.2727
     48  CA         0.1960   -7.9110   23.8410 C.3   245  PRO245      0.1402
     49  C         -0.8160   -8.8300   24.5490 C.2   245  PRO245      0.2269
     50  O         -2.0330   -8.5840   24.4890 O.2   245  PRO245     -0.2865
     51  CB         0.6290   -6.7620   24.7510 C.3   245  PRO245      0.0296
     52  CG        -0.3630   -5.6810   24.4870 C.3   245  PRO245      0.0237
     53  CD        -0.8540   -5.8390   23.0700 C.3   245  PRO245      0.0939
     54  N         -3.2220   -6.2600   27.4590 N.3   248  VAL248     -0.1245
     55  CA        -3.3230   -4.8530   27.0750 C.3   248  VAL248      0.1561
     56  C         -3.6810   -3.9540   28.2700 C.2   248  VAL248      0.2260
     57  O         -4.8340   -3.9420   28.7080 O.2   248  VAL248     -0.2867
     58  CB        -4.4360   -4.6640   26.0390 C.3   248  VAL248      0.0252
     59  CG1       -4.6560   -3.1940   25.7620 C.3   248  VAL248      0.0019
     60  CG2       -4.1190   -5.4150   24.7670 C.3   248  VAL248      0.0019
     61  N         -3.7540    1.9040   26.3470 N.3   251  THR251     -0.1218
     62  CA        -3.7820    2.2860   24.9450 C.3   251  THR251      0.1862
     63  C         -3.6800    3.7800   24.7010 C.2   251  THR251      0.2287
     64  O         -3.9650    4.2460   23.5940 O.2   251  THR251     -0.2866
     65  CB        -5.0490    1.8010   24.2570 C.3   251  THR251      0.1770
     66  OG1       -6.1780    2.4450   24.8500 O.3   251  THR251     -0.2211
     67  CG2       -5.1800    0.3040   24.4030 C.3   251  THR251      0.0375
     68  N         -1.5630    5.0080   21.6110 N.3   254  ALA254     -0.1231
     69  CA        -1.1530    3.9220   20.7240 C.3   254  ALA254      0.1694
     70  C         -1.2090    4.3880   19.2680 C.2   254  ALA254      0.2592
     71  O         -0.3230    4.0850   18.4690 O.2   254  ALA254     -0.2718
     72  CB        -2.0190    2.6780   20.9260 C.3   254  ALA254      0.0304
     73  N         -2.2620    5.1230   18.9310 N.am  255  GLY255     -0.1957
     74  CA        -2.4250    5.6700   17.5980 C.3   255  GLY255      0.1869
     75  C         -1.2540    6.5540   17.2320 C.2   255  GLY255      0.2309
     76  O         -0.7620    6.5160   16.1160 O.2   255  GLY255     -0.2863
     77  N          1.6840    4.2810   16.5610 N.3   258  PHE258     -0.1241
     78  CA         1.5500    3.7820   15.2030 C.3   258  PHE258      0.1605
     79  C          1.9910    4.8330   14.1620 C.2   258  PHE258      0.2264
     80  O          2.8970    4.5820   13.3810 O.2   258  PHE258     -0.2867
     81  CB         0.1280    3.3210   14.9470 C.3   258  PHE258      0.0534
     82  CG        -0.1280    2.9110   13.5270 C.ar  258  PHE258     -0.0203
     83  CD1        0.1790    1.6270   13.0950 C.ar  258  PHE258     -0.0042
     84  CD2       -0.6880    3.8020   12.6260 C.ar  258  PHE258     -0.0042
     85  CE1       -0.0680    1.2320   11.7820 C.ar  258  PHE258     -0.0003
     86  CE2       -0.9530    3.4120   11.3090 C.ar  258  PHE258     -0.0003
     87  CZ        -0.6350    2.1210   10.8850 C.ar  258  PHE258     -0.0000
     88  N          2.2650   -1.3820   13.5760 N.3   280  CYS280     -0.1235
     89  CA         1.5090   -2.2660   14.4390 C.3   280  CYS280      0.1677
     90  C          2.4450   -2.8530   15.4660 C.2   280  CYS280      0.2270
     91  O          2.0820   -3.0450   16.6190 O.2   280  CYS280     -0.2867
     92  CB         0.8760   -3.3800   13.6300 C.3   280  CYS280      0.0956
     93  SG        -0.1860   -2.7490   12.3520 S.3   280  CYS280     -0.0801
     94  N          3.2200   -0.0750   18.1860 N.3   283  ALA283     -0.1231
     95  CA         1.9750    0.2900   18.8600 C.3   283  ALA283      0.1694
     96  C          1.5190   -0.8330   19.7810 C.2   283  ALA283      0.2592
     97  O          1.0950   -0.5740   20.9090 O.2   283  ALA283     -0.2718
     98  CB         0.8990    0.6060   17.8650 C.3   283  ALA283      0.0304
     99  N          1.6170   -2.0730   19.2970 N.am  284  GLY284     -0.1957
    100  CA         1.2410   -3.2340   20.0710 C.3   284  GLY284      0.1869
    101  C          2.1300   -3.3970   21.2860 C.2   284  GLY284      0.2309
    102  O          1.6660   -3.7160   22.3750 O.2   284  GLY284     -0.2863
    103  N          1.0380   -0.8620   23.9880 N.3   287  CYS287     -0.1235
    104  CA        -0.2230   -1.1950   24.6270 C.3   287  CYS287      0.1677
    105  C         -0.0410   -2.1390   25.8090 C.2   287  CYS287      0.2270
    106  O         -0.9720   -2.3410   26.5880 O.2   287  CYS287     -0.2867
    107  CB        -1.1660   -1.8310   23.6260 C.3   287  CYS287      0.0956
    108  SG        -1.7880   -0.6920   22.4260 S.3   287  CYS287     -0.0801
@<TRIPOS>BOND
     1     1     2    1
     2    87    86   ar
     3    87    85   ar
     4    86    84   ar
     5     2     3    1
     6     2     5    1
     7    22    23    2
     8    22    21    1
     9    85    83   ar
    10     4     3    2
    11    93    92    1
    12    21    20    1
    13    84    82   ar
    14    83    82   ar
    15    80    79    2
    16    82    81    1
    17    88    89    1
    18    92    89    1
    19    39    38   ar
    20    39    37   ar
    21    38    36   ar
    22    24    25    1
    23    79    78    1
    24    89    90    1
    25    37    35   ar
    26    81    78    1
    27    25    26    1
    28    25    28    1
    29    36    34   ar
    30    78    77    1
    31     6     7    1
    32    90    91    2
    33    14    13    2
    34    27    26    2
    35    26    29   am
    36     9     8    2
    37    13    12    1
    38    35    34   ar
    39    34    33    1
    40    76    75    2
    41     8     7    1
    42     8    11   am
    43    29    30    1
    44     7    10    1
    45    11    12    1
    46    12    15    1
    47    75    74    1
    48    33    30    1
    49    30    31    1
    50    18    17   ar
    51    74    73    1
    52    98    95    1
    53    16    15    1
    54    16    17    1
    55    94    95    1
    56    17    19   ar
    57    46    40    1
    58    46    45    1
    59    71    70    2
    60    95    96    1
    61    31    40   am
    62    31    32    2
    63    73    70   am
    64    40    41    1
    65    70    69    1
    66    99    96   am
    67    99   100    1
    68    45    44    1
    69    96    97    2
    70   100   101    1
    71    44    41    1
    72    41    42    1
    73    69    72    1
    74    69    68    1
    75   101   102    2
    76    43    42    2
    77    42    47   am
    78   108   107    1
    79    47    53    1
    80    47    48    1
    81    53    52    1
    82    64    63    2
    83   107   104    1
    84    48    49    1
    85    48    51    1
    86   103   104    1
    87    65    67    1
    88    65    66    1
    89    65    62    1
    90    52    51    1
    91    50    49    2
    92   104   105    1
    93    63    62    1
    94    60    58    1
    95    62    61    1
    96    59    58    1
    97   105   106    2
    98    58    55    1
    99    55    54    1
   100    55    56    1
   101    56    57    2
