@<TRIPOS>MOLECULE
tmp/3ncgA00.pdb
 171 161 0 0 0
SMALL
GASTEIGER

@<TRIPOS>ATOM
      1  N         30.7850    7.4690   -1.4310 N.3    17  LEU17      -0.1231
      2  CA        29.8280    6.4930   -0.9350 C.3    17  LEU17       0.1693
      3  C         28.4830    6.7490   -1.5870 C.2    17  LEU17       0.2593
      4  O         27.8410    5.8280   -2.0780 O.2    17  LEU17      -0.2718
      5  CB        29.6840    6.6100    0.5810 C.3    17  LEU17       0.0284
      6  CG        30.8180    6.1120    1.4660 C.3    17  LEU17       0.0019
      7  CD1       30.4370    6.3680    2.8760 C.3    17  LEU17       0.0001
      8  CD2       31.0840    4.6110    1.2550 C.3    17  LEU17       0.0001
      9  N         28.0510    8.0060   -1.5760 N.am   18  GLY18      -0.1942
     10  CA        26.7860    8.3820   -2.1800 C.3    18  GLY18       0.2014
     11  C         26.5890    9.8790   -2.3100 C.2    18  GLY18       0.2639
     12  O         27.3650   10.6910   -1.7780 O.2    18  GLY18      -0.2714
     13  N         25.5420   10.2270   -3.0500 N.am   19  LYS19      -0.1963
     14  CA        25.0940   11.6040   -3.2210 C.3    19  LYS19       0.1728
     15  C         24.0220   11.8740   -2.1660 C.2    19  LYS19       0.2616
     16  O         22.9010   11.4020   -2.2860 O.2    19  LYS19      -0.2715
     17  CB        24.5400   11.7830   -4.6430 C.3    19  LYS19       0.0311
     18  CG        24.1190   13.1950   -5.0050 C.3    19  LYS19       0.0038
     19  CD        25.3150   14.1190   -5.2310 C.3    19  LYS19       0.0206
     20  CE        24.8920   15.5810   -5.1570 C.3    19  LYS19       0.1093
     21  NZ        26.0410   16.5210   -5.1450 N.3    19  LYS19      -0.1314
     22  N         24.3800   12.6000   -1.1110 N.am   20  GLY20      -0.1955
     23  CA        23.4530   12.8630   -0.0160 C.3    20  GLY20       0.1869
     24  C         22.6020   14.0840   -0.2980 C.2    20  GLY20       0.2309
     25  O         22.6370   14.6490   -1.3960 O.2    20  GLY20      -0.2863
     26  N         28.4210   12.5280   -0.2080 N.3    25  VAL25      -0.1245
     27  CA        28.9390   11.8980    1.0020 C.3    25  VAL25       0.1561
     28  C         30.0940   10.9980    0.5980 C.2    25  VAL25       0.2260
     29  O         29.9910   10.2420   -0.3900 O.2    25  VAL25      -0.2867
     30  CB        27.8860   11.0580    1.7230 C.3    25  VAL25       0.0252
     31  CG1       28.5280   10.3530    2.8800 C.3    25  VAL25       0.0019
     32  CG2       26.7170   11.9270    2.1610 C.3    25  VAL25       0.0019
     33  N         32.4380    8.9860    7.7270 N.3    38  ALA38      -0.1231
     34  CA        31.7020    9.5120    6.5920 C.3    38  ALA38       0.1694
     35  C         31.7580   11.0490    6.6180 C.2    38  ALA38       0.2592
     36  O         31.7190   11.6720    7.6900 O.2    38  ALA38      -0.2718
     37  CB        30.2740    9.0290    6.6200 C.3    38  ALA38       0.0304
     38  N         31.8510   11.6520    5.4300 N.am   39  VAL39      -0.1966
     39  CA        31.9210   13.1040    5.2990 C.3    39  VAL39       0.1727
     40  C         30.9940   13.5810    4.1870 C.2    39  VAL39       0.2616
     41  O         31.0310   13.0540    3.0770 O.2    39  VAL39      -0.2715
     42  CB        33.3560   13.5810    5.0350 C.3    39  VAL39       0.0290
     43  CG1       33.9000   12.9980    3.7230 C.3    39  VAL39       0.0023
     44  CG2       33.4160   15.1120    5.0360 C.3    39  VAL39       0.0023
     45  N         30.1500   14.5660    4.4960 N.am   40  LYS40      -0.1977
     46  CA        29.2860   15.1760    3.4970 C.3    40  LYS40       0.1596
     47  C         29.9340   16.4990    3.1040 C.2    40  LYS40       0.2287
     48  O         30.1980   17.3350    3.9800 O.2    40  LYS40      -0.2864
     49  CB        27.8540   15.3990    4.0380 C.3    40  LYS40       0.0298
     50  CG        26.9090   16.1560    3.0760 C.3    40  LYS40       0.0038
     51  CD        25.5480   16.4420    3.6950 C.3    40  LYS40       0.0206
     52  CE        24.6740   15.1820    3.7970 C.3    40  LYS40       0.1093
     53  NZ        23.1940   15.4840    3.8600 N.3    40  LYS40      -0.1314
     54  N         22.1630    9.8740   13.9550 N.3    71  MET71      -0.1245
     55  CA        23.5100    9.9340   13.4120 C.3    71  MET71       0.1570
     56  C         24.3460   10.8740   14.2810 C.2    71  MET71       0.2261
     57  O         23.8490   11.8800   14.7680 O.2    71  MET71      -0.2867
     58  CB        23.5170   10.4170   11.9660 C.3    71  MET71       0.0387
     59  CG        24.9030   10.2980   11.3390 C.3    71  MET71       0.0595
     60  SD        25.0480   10.8470    9.6360 S.3    71  MET71      -0.1393
     61  CE        26.8270   11.1100    9.6240 C.3    71  MET71       0.0692
     62  N         27.3280   13.4310   14.4720 N.3    73  LEU73      -0.1245
     63  CA        28.2350   14.3100   13.7420 C.3    73  LEU73       0.1561
     64  C         29.4250   14.6610   14.6360 C.2    73  LEU73       0.2260
     65  O         29.2450   14.9980   15.8090 O.2    73  LEU73      -0.2867
     66  CB        27.5090   15.5660   13.2690 C.3    73  LEU73       0.0270
     67  CG        26.2450   15.4010   12.3950 C.3    73  LEU73       0.0019
     68  CD1       25.7740   16.7610   11.8490 C.3    73  LEU73       0.0001
     69  CD2       26.4510   14.4280   11.2600 C.3    73  LEU73       0.0001
     70  N         31.1320   18.0830    6.6500 N.3    85  ILE85      -0.1245
     71  CA        30.4840   17.5910    7.8690 C.3    85  ILE85       0.1561
     72  C         30.8980   16.1360    8.1010 C.2    85  ILE85       0.2260
     73  O         30.5410   15.2480    7.3400 O.2    85  ILE85      -0.2867
     74  CB        28.9500   17.7310    7.7800 C.3    85  ILE85       0.0252
     75  CG1       28.5820   19.1860    7.4430 C.3    85  ILE85       0.0019
     76  CG2       28.3010   17.3000    9.0910 C.3    85  ILE85       0.0019
     77  CD1       27.0730   19.4630    7.2970 C.3    85  ILE85       0.0001
     78  N         31.0940   12.6000   10.1100 N.3    87  GLY87      -0.1210
     79  CA        30.2920   11.8030   11.0420 C.3    87  GLY87       0.1956
     80  C         30.6330   10.3330   11.0630 C.2    87  GLY87       0.2612
     81  O         31.4830    9.8710   10.2930 O.2    87  GLY87      -0.2717
     82  N         29.9690    9.6040   11.9620 N.am   88  GLU88      -0.1965
     83  CA        30.0980    8.1500   12.0640 C.3    88  GLU88       0.1733
     84  C         29.8710    7.5010   10.7010 C.2    88  GLU88       0.2616
     85  O         28.9910    7.9120    9.9570 O.2    88  GLU88      -0.2715
     86  CB        29.0800    7.5730   13.0680 C.3    88  GLU88       0.0429
     87  CG        29.5790    7.3430   14.5080 C.3    88  GLU88       0.1163
     88  CD        28.4270    7.1100   15.5350 C.2    88  GLU88       0.3649
     89  OE1       27.2360    7.0080   15.1410 O.co2  88  GLU88      -0.2457
     90  OE2       28.7100    7.0410   16.7570 O.co2  88  GLU88      -0.2457
     91  N         30.6590    6.4820   10.3820 N.am   89  LEU89      -0.1963
     92  CA        30.4520    5.7050    9.1710 C.3    89  LEU89       0.1728
     93  C         29.6250    4.4600    9.5050 C.2    89  LEU89       0.2616
     94  O         30.0120    3.6880   10.3770 O.2    89  LEU89      -0.2715
     95  CB        31.8000    5.2870    8.5790 C.3    89  LEU89       0.0311
     96  CG        31.7630    4.5280    7.2410 C.3    89  LEU89       0.0022
     97  CD1       31.0900    5.3570    6.1490 C.3    89  LEU89       0.0001
     98  CD2       33.1520    4.1230    6.8150 C.3    89  LEU89       0.0001
     99  N         28.5010    4.2630    8.8150 N.am   90  TYR90      -0.1974
    100  CA        27.6980    3.0430    8.9600 C.3    90  TYR90       0.1639
    101  C         27.8620    2.1410    7.7450 C.2    90  TYR90       0.2290
    102  O         28.0660    2.6260    6.6320 O.2    90  TYR90      -0.2864
    103  CB        26.2280    3.3980    9.1940 C.3    90  TYR90       0.0560
    104  CG        26.0650    4.4110   10.3040 C.ar   90  TYR90      -0.0198
    105  CD1       26.5890    4.1740   11.5800 C.ar   90  TYR90      -0.0009
    106  CD2       25.4190    5.6120   10.0780 C.ar   90  TYR90      -0.0009
    107  CE1       26.4500    5.1140   12.6060 C.ar   90  TYR90       0.0417
    108  CE2       25.2830    6.5560   11.0930 C.ar   90  TYR90       0.0417
    109  CZ        25.8000    6.3070   12.3500 C.ar   90  TYR90       0.1957
    110  OH        25.6410    7.2610   13.3350 O.3    90  TYR90      -0.2866
    111  N         20.5720    0.9390    3.9820 N.3    94  GLU94      -0.1245
    112  CA        19.2740    1.5160    4.3160 C.3    94  GLU94       0.1567
    113  C         18.2900    0.4710    4.8260 C.2    94  GLU94       0.2260
    114  O         18.2660   -0.6590    4.3310 O.2    94  GLU94      -0.2867
    115  CB        18.6730    2.1580    3.0710 C.3    94  GLU94       0.0388
    116  CG        19.4210    3.3780    2.5330 C.3    94  GLU94       0.1160
    117  CD        19.0120    3.7290    1.1050 C.2    94  GLU94       0.3649
    118  OE1       18.0740    3.1060    0.5630 O.co2  94  GLU94      -0.2457
    119  OE2       19.6560    4.6060    0.5060 O.co2  94  GLU94      -0.2457
    120  N         14.7810    5.2240    3.6250 N.3   137  GLU137     -0.1245
    121  CA        16.0490    5.5770    2.9880 C.3   137  GLU137      0.1567
    122  C         16.8900    6.5140    3.8460 C.2   137  GLU137      0.2260
    123  O         18.0800    6.6670    3.5930 O.2   137  GLU137     -0.2867
    124  CB        15.8140    6.2090    1.6130 C.3   137  GLU137      0.0388
    125  CG        15.3280    5.2330    0.5440 C.3   137  GLU137      0.1160
    126  CD        13.8020    5.0700    0.4730 C.2   137  GLU137      0.3649
    127  OE1       13.0910    5.1920    1.5140 O.co2 137  GLU137     -0.2457
    128  OE2       13.3160    4.8120   -0.6580 O.co2 137  GLU137     -0.2457
    129  N         19.5850    4.3800    8.4230 N.3   140  LEU140     -0.1245
    130  CA        20.6980    3.5160    8.0830 C.3   140  LEU140      0.1561
    131  C         20.9070    2.4420    9.1400 C.2   140  LEU140      0.2260
    132  O         20.6500    2.6610   10.3260 O.2   140  LEU140     -0.2867
    133  CB        21.9780    4.3400    7.9300 C.3   140  LEU140      0.0270
    134  CG        22.0360    5.3920    6.8100 C.3   140  LEU140      0.0019
    135  CD1       23.4990    5.6880    6.5610 C.3   140  LEU140      0.0001
    136  CD2       21.3800    4.9630    5.5010 C.3   140  LEU140      0.0001
    137  N         19.3810    9.5830    9.8200 N.3   153  ILE153     -0.1231
    138  CA        20.2540   10.5620    9.1680 C.3   153  ILE153      0.1692
    139  C         19.4380   11.7050    8.5630 C.2   153  ILE153      0.2592
    140  O         18.2120   11.6390    8.5220 O.2   153  ILE153     -0.2718
    141  CB        21.1110    9.9120    8.0510 C.3   153  ILE153      0.0266
    142  CG1       20.2550    9.4310    6.8690 C.3   153  ILE153      0.0019
    143  CG2       21.9000    8.7440    8.5890 C.3   153  ILE153      0.0020
    144  CD1       21.0730    9.0520    5.6200 C.3   153  ILE153      0.0001
    145  N         20.1200   12.7610    8.1350 N.am  154  ASP154     -0.1960
    146  CA        19.5880   13.7160    7.1360 C.3   154  ASP154      0.1840
    147  C         18.4160   14.5980    7.6190 C.2   154  ASP154      0.2622
    148  O         17.2730   14.4450    7.1780 O.2   154  ASP154     -0.2715
    149  CB        19.1990   12.9520    5.8630 C.3   154  ASP154      0.1450
    150  CG        19.0840   13.8440    4.6460 C.2   154  ASP154      0.3671
    151  OD1       19.3020   15.0720    4.7550 O.co2 154  ASP154     -0.2456
    152  OD2       18.7710   13.2960    3.5640 O.co2 154  ASP154     -0.2456
    153  N         18.7490   15.5370    8.4970 N.am  155  PHE155     -0.1974
    154  CA        17.8140   16.4790    9.0800 C.3   155  PHE155      0.1639
    155  C         18.6070   17.5780    9.7870 C.2   155  PHE155      0.2290
    156  O         19.7150   17.3260   10.2710 O.2   155  PHE155     -0.2864
    157  CB        16.9760   15.7650   10.1310 C.3   155  PHE155      0.0560
    158  CG        17.7960   15.1520   11.2290 C.ar  155  PHE155     -0.0200
    159  CD1       18.0340   15.8470   12.4030 C.ar  155  PHE155     -0.0042
    160  CD2       18.3590   13.8970   11.0660 C.ar  155  PHE155     -0.0042
    161  CE1       18.7960   15.2800   13.4060 C.ar  155  PHE155     -0.0003
    162  CE2       19.1230   13.3180   12.0600 C.ar  155  PHE155     -0.0003
    163  CZ        19.3370   14.0080   13.2360 C.ar  155  PHE155     -0.0000
    164  N         19.5260   20.7190    8.5980 N.3   157  LEU157     -0.1245
    165  CA        20.2300   21.6690    7.7320 C.3   157  LEU157      0.1561
    166  C         19.3040   22.3400    6.7160 C.2   157  LEU157      0.2260
    167  O         19.7720   23.0040    5.7870 O.2   157  LEU157     -0.2867
    168  CB        21.3510   20.9320    6.9880 C.3   157  LEU157      0.0270
    169  CG        22.2820   20.0940    7.8800 C.3   157  LEU157      0.0019
    170  CD1       23.1290   19.1150    7.0520 C.3   157  LEU157      0.0001
    171  CD2       23.1540   20.9970    8.7320 C.3   157  LEU157      0.0001
@<TRIPOS>BOND
     1    19    20    1
     2    19    18    1
     3    20    21    1
     4    18    17    1
     5    17    14    1
     6    14    13    1
     7    14    15    1
     8    13    11   am
     9    11    10    1
    10    11    12    2
    11    16    15    2
    12    10     9    1
    13    15    22   am
    14     4     3    2
    15     3     9   am
    16     3     2    1
    17     1     2    1
    18    25    24    2
    19    22    23    1
    20     2     5    1
    21   128   126   ar
    22    29    28    2
    23    24    23    1
    24    26    27    1
    25   126   125    1
    26   126   127   ar
    27   119   117   ar
    28   125   124    1
    29   118   117   ar
    30     5     6    1
    31    28    27    1
    32    27    30    1
    33   117   116    1
    34     8     6    1
    35     6     7    1
    36   124   121    1
    37    30    32    1
    38    30    31    1
    39   116   115    1
    40   121   120    1
    41   121   122    1
    42   115   112    1
    43    50    51    1
    44    50    49    1
    45    41    40    2
    46    47    46    1
    47    47    48    2
    48    46    49    1
    49    46    45    1
    50   152   150   ar
    51   123   122    2
    52    51    52    1
    53    43    42    1
    54    52    53    1
    55   111   112    1
    56    40    45   am
    57    40    39    1
    58   112   113    1
    59   114   113    2
    60   150   151   ar
    61   150   149    1
    62    42    44    1
    63    42    39    1
    64    39    38    1
    65    38    35   am
    66   136   134    1
    67   144   142    1
    68   167   166    2
    69   149   146    1
    70    97    96    1
    71   135   134    1
    72    34    35    1
    73    34    37    1
    74    34    33    1
    75    35    36    2
    76   102   101    2
    77    70    71    1
    78   166   165    1
    79   134   133    1
    80    98    96    1
    81   142   141    1
    82   168   165    1
    83   168   169    1
    84   170   169    1
    85   146   147    1
    86   146   145    1
    87   148   147    2
    88    96    95    1
    89    77    75    1
    90    73    72    2
    91    75    74    1
    92   147   153   am
    93   165   164    1
    94   101   100    1
    95    74    71    1
    96    74    76    1
    97    71    72    1
    98   169   171    1
    99   133   130    1
   100   141   143    1
   101   141   138    1
   102   130   129    1
   103   130   131    1
   104   145   139   am
   105   153   154    1
   106   140   139    2
   107   139   138    1
   108    95    92    1
   109    99   100    1
   110    99    93   am
   111   100   103    1
   112   154   155    1
   113   154   157    1
   114   131   132    2
   115   138   137    1
   116    92    93    1
   117    92    91    1
   118   103   104    1
   119    93    94    2
   120    61    60    1
   121    60    59    1
   122   155   156    2
   123    85    84    2
   124   106   104   ar
   125   106   108   ar
   126    78    79    1
   127   157   158    1
   128    81    80    2
   129   104   105   ar
   130    91    84   am
   131    84    83    1
   132    79    80    1
   133    80    82   am
   134   160   158   ar
   135   160   162   ar
   136   108   109   ar
   137   158   159   ar
   138    69    67    1
   139    59    58    1
   140   105   107   ar
   141    68    67    1
   142    82    83    1
   143    58    55    1
   144   162   163   ar
   145    83    86    1
   146   109   107   ar
   147   109   110    1
   148    67    66    1
   149   159   161   ar
   150    86    87    1
   151   163   161   ar
   152    66    63    1
   153    55    54    1
   154    55    56    1
   155    63    62    1
   156    63    64    1
   157    56    57    2
   158    87    88    1
   159    64    65    2
   160    89    88   ar
   161    88    90   ar
