@<TRIPOS>MOLECULE
tmp/3nckA00.pdb
 123 117 0 0 0
SMALL
GASTEIGER

@<TRIPOS>ATOM
      1  N        -17.5990  -12.6160    4.3570 N.3    41  CYS41      -0.1221
      2  CA       -16.1940  -12.3910    4.1750 C.3    41  CYS41       0.1808
      3  C        -15.5840  -12.0960    5.5490 C.2    41  CYS41       0.2601
      4  O        -15.9820  -12.7110    6.5400 O.2    41  CYS41      -0.2717
      5  CB       -15.9370  -11.2480    3.2010 C.3    41  CYS41       0.0970
      6  SG       -16.1000  -11.7570    1.4810 S.3    41  CYS41      -0.0800
      7  N        -14.6350  -11.1660    5.6370 N.am   42  SER42      -0.1952
      8  CA       -14.0790  -10.8890    6.9500 C.3    42  SER42       0.1924
      9  C        -14.9800  -10.0760    7.8610 C.2    42  SER42       0.2314
     10  O        -14.7110   -9.9630    9.0510 O.2    42  SER42      -0.2863
     11  CB       -12.7700  -10.1380    6.8060 C.3    42  SER42       0.2116
     12  OG       -11.6850  -10.8310    6.2080 O.3    42  SER42      -0.2180
     13  N        -17.6520  -10.5690    9.3580 N.3    44  PHE44      -0.1227
     14  CA       -18.1680  -11.2850   10.5400 C.3    44  PHE44       0.1736
     15  C        -17.2710  -11.0720   11.7510 C.2    44  PHE44       0.2595
     16  O        -17.7040  -11.2150   12.8840 O.2    44  PHE44      -0.2718
     17  CB       -18.3310  -12.7950   10.2700 C.3    44  PHE44       0.0547
     18  CG       -17.0200  -13.5650   10.2330 C.ar   44  PHE44      -0.0202
     19  CD1      -16.5500  -14.2360   11.3620 C.ar   44  PHE44      -0.0042
     20  CD2      -16.2520  -13.6060    9.0740 C.ar   44  PHE44      -0.0042
     21  CE1      -15.3180  -14.9390   11.3230 C.ar   44  PHE44      -0.0003
     22  CE2      -15.0340  -14.2830    9.0330 C.ar   44  PHE44      -0.0003
     23  CZ       -14.5610  -14.9530   10.1560 C.ar   44  PHE44      -0.0000
     24  N        -16.0190  -10.7190   11.5140 N.am   45  LYS45      -0.1980
     25  CA       -15.0600  -10.6200   12.6040 C.3    45  LYS45       0.1596
     26  C        -15.4260   -9.5690   13.6290 C.2    45  LYS45       0.2287
     27  O        -15.1780   -9.7510   14.8170 O.2    45  LYS45      -0.2864
     28  CB       -13.6430  -10.4240   12.0760 C.3    45  LYS45       0.0298
     29  CG       -13.1030  -11.7050   11.4680 C.3    45  LYS45       0.0038
     30  CD       -11.8080  -11.4940   10.7760 C.3    45  LYS45       0.0206
     31  CE       -11.7120  -12.4140    9.6000 C.3    45  LYS45       0.1093
     32  NZ       -10.5380  -12.0450    8.7540 N.3    45  LYS45      -0.1314
     33  N         -4.9640  -19.0220    6.6220 N.3    74  SER74      -0.1202
     34  CA        -5.2980  -17.8390    5.8160 C.3    74  SER74       0.2020
     35  C         -4.3930  -16.6290    6.1400 C.2    74  SER74       0.2618
     36  O         -3.5410  -16.7040    7.0360 O.2    74  SER74      -0.2717
     37  CB        -6.7920  -17.4920    5.9310 C.3    74  SER74       0.2103
     38  OG        -7.1800  -17.3280    7.2830 O.3    74  SER74      -0.2182
     39  N         -4.5570  -15.5420    5.3820 N.am   75  ILE75      -0.1979
     40  CA        -3.8250  -14.3020    5.6200 C.3    75  ILE75       0.1595
     41  C         -3.8910  -13.9220    7.1100 C.2    75  ILE75       0.2287
     42  O         -4.9750  -13.6390    7.6370 O.2    75  ILE75      -0.2864
     43  CB        -4.3790  -13.1600    4.7320 C.3    75  ILE75       0.0276
     44  CG1       -4.1610  -13.4910    3.2550 C.3    75  ILE75       0.0022
     45  CG2       -3.7440  -11.8150    5.1010 C.3    75  ILE75       0.0022
     46  CD1       -4.7900  -12.4850    2.2960 C.3    75  ILE75       0.0001
     47  N         -6.5660   -5.8260   11.5640 N.3    99  TYR99      -0.1227
     48  CA        -5.7660   -6.4070   10.4910 C.3    99  TYR99       0.1736
     49  C         -6.4810   -7.5380    9.7780 C.2    99  TYR99       0.2596
     50  O         -5.9060   -8.1680    8.8940 O.2    99  TYR99      -0.2718
     51  CB        -4.4450   -6.9260   11.0390 C.3    99  TYR99       0.0548
     52  CG        -3.4630   -5.8320   11.3810 C.ar   99  TYR99      -0.0200
     53  CD1       -3.4050   -5.3020   12.6760 C.ar   99  TYR99      -0.0009
     54  CD2       -2.5900   -5.3180   10.4100 C.ar   99  TYR99      -0.0009
     55  CE1       -2.5060   -4.2990   12.9970 C.ar   99  TYR99       0.0417
     56  CE2       -1.6850   -4.3050   10.7230 C.ar   99  TYR99       0.0417
     57  CZ        -1.6530   -3.8100   12.0140 C.ar   99  TYR99       0.1957
     58  OH        -0.7750   -2.8120   12.3340 O.3    99  TYR99      -0.2866
     59  N         -7.7260   -7.8110   10.1720 N.am  100  SER100     -0.1952
     60  CA        -8.5000   -8.8880    9.5740 C.3   100  SER100      0.1924
     61  C         -7.6870  -10.2030    9.5890 C.2   100  SER100      0.2314
     62  O         -7.6350  -10.9460    8.5980 O.2   100  SER100     -0.2863
     63  CB        -8.9210   -8.4800    8.1550 C.3   100  SER100      0.2116
     64  OG        -9.9930   -9.2600    7.6650 O.3   100  SER100     -0.2180
     65  N         -6.9690  -13.7550    9.9060 N.3   102  GLY102     -0.1225
     66  CA        -7.7930  -14.9720    9.7300 C.3   102  GLY102      0.1811
     67  C         -7.6140  -16.0590   10.7760 C.2   102  GLY102      0.2280
     68  O         -8.5480  -16.7760   11.1240 O.2   102  GLY102     -0.2866
     69  N         -7.2540   -1.4190    7.5300 N.3   181  THR181     -0.1218
     70  CA        -7.5490   -2.0150    6.2000 C.3   181  THR181      0.1862
     71  C         -8.5930   -1.3060    5.3420 C.2   181  THR181      0.2287
     72  O         -8.8550   -1.7320    4.2210 O.2   181  THR181     -0.2866
     73  CB        -7.9470   -3.5230    6.2910 C.3   181  THR181      0.1770
     74  OG1       -9.1950   -3.6600    6.9890 O.3   181  THR181     -0.2211
     75  CG2       -6.8700   -4.3310    6.9790 C.3   181  THR181      0.0375
     76  N        -12.0690    2.6720    1.1900 N.3   185  ARG185     -0.1245
     77  CA       -13.4550    2.2560    0.9960 C.3   185  ARG185      0.1563
     78  C        -14.3080    3.3280    1.6130 C.2   185  ARG185      0.2260
     79  O        -14.0480    4.4960    1.3560 O.2   185  ARG185     -0.2867
     80  CB       -13.6820    0.8670    1.5920 C.3   185  ARG185      0.0307
     81  CG       -12.8710   -0.1730    0.8400 C.3   185  ARG185      0.0489
     82  CD       -12.8700   -1.5140    1.4840 C.3   185  ARG185      0.2205
     83  NE       -11.9750   -2.4440    0.7910 N.pl3 185  ARG185     -0.0865
     84  CZ       -12.1330   -3.7700    0.7490 C.cat 185  ARG185      0.5346
     85  NH1      -11.2650   -4.5060    0.0990 N.pl3 185  ARG185      0.1354
     86  NH2      -13.1680   -4.3760    1.3280 N.pl3 185  ARG185      0.1354
     87  N        -13.7080   -4.3600    7.2420 N.3   200  THR200     -0.1203
     88  CA       -13.7540   -4.7070    5.8270 C.3   200  THR200      0.1994
     89  C        -13.7910   -6.2180    5.6230 C.2   200  THR200      0.2618
     90  O        -13.5480   -6.9910    6.5520 O.2   200  THR200     -0.2717
     91  CB       -12.5280   -4.1600    5.0970 C.3   200  THR200      0.1784
     92  OG1      -11.3490   -4.6280    5.7460 O.3   200  THR200     -0.2211
     93  CG2      -12.5140   -2.6510    5.1360 C.3   200  THR200      0.0376
     94  N        -14.1230   -6.6310    4.4090 N.am  201  GLY201     -0.1942
     95  CA       -14.0390   -8.0100    3.9890 C.3   201  GLY201      0.2014
     96  C        -13.7290   -7.9950    2.5070 C.2   201  GLY201      0.2640
     97  O        -14.0600   -7.0250    1.8140 O.2   201  GLY201     -0.2714
     98  N        -13.1030   -9.0760    2.0340 N.am  202  THR202     -0.1936
     99  CA       -12.6010   -9.2240    0.6700 C.3   202  THR202      0.2028
    100  C        -12.4340  -10.7170    0.3760 C.2   202  THR202      0.2643
    101  O        -12.0260  -11.4910    1.2490 O.2   202  THR202     -0.2714
    102  CB       -11.2410   -8.5580    0.5120 C.3   202  THR202      0.1808
    103  OG1      -11.2880   -7.2140    1.0040 O.3   202  THR202     -0.2208
    104  CG2      -10.8640   -8.5100   -0.9190 C.3   202  THR202      0.0379
    105  N        -12.7440  -11.1230   -0.8530 N.am  203  GLY203     -0.1939
    106  CA       -12.8720  -12.5460   -1.1840 C.3   203  GLY203      0.2014
    107  C        -12.8200  -12.8230   -2.6780 C.2   203  GLY203      0.2638
    108  O        -12.4550  -11.9470   -3.4530 O.2   203  GLY203     -0.2714
    109  N        -13.1630  -14.0380   -3.0950 N.am  204  ASP204     -0.1971
    110  CA       -13.0420  -14.3590   -4.5130 C.3   204  ASP204      0.1709
    111  C        -14.2770  -13.8200   -5.1990 C.2   204  ASP204      0.2293
    112  O        -15.1100  -13.2010   -4.5360 O.2   204  ASP204     -0.2864
    113  CB       -12.8780  -15.8670   -4.7280 C.3   204  ASP204      0.1436
    114  CG       -11.7540  -16.4500   -3.8870 C.2   204  ASP204      0.3671
    115  OD1      -10.5830  -16.0320   -4.1150 O.co2 204  ASP204     -0.2456
    116  OD2      -12.0440  -17.3170   -3.0110 O.co2 204  ASP204     -0.2456
    117  N        -11.3110   -7.5200   -6.6770 N.3   239  PRO239     -0.2116
    118  CA       -12.1530   -6.6460   -5.8930 C.3   239  PRO239      0.1372
    119  C        -11.8940   -5.2430   -6.3730 C.2   239  PRO239      0.2244
    120  O        -10.7360   -4.9190   -6.6890 O.2   239  PRO239     -0.2868
    121  CB       -11.5740   -6.7870   -4.4830 C.3   239  PRO239      0.0268
    122  CG       -10.8120   -8.0410   -4.5030 C.3   239  PRO239      0.0207
    123  CD       -10.2280   -8.0830   -5.8640 C.3   239  PRO239      0.0892
@<TRIPOS>BOND
     1   120   119    2
     2   117   118    1
     3   117   123    1
     4   119   118    1
     5   118   121    1
     6   123   122    1
     7   111   112    2
     8   111   110    1
     9   113   110    1
    10   113   114    1
    11   110   109    1
    12   122   121    1
    13   115   114   ar
    14   114   116   ar
    15   108   107    2
    16   109   107   am
    17   107   106    1
    18   106   105    1
    19   104   102    1
    20   105   100   am
    21    85    84    1
    22   100    99    1
    23   100   101    2
    24   102    99    1
    25   102   103    1
    26    99    98    1
    27    84    83    2
    28    84    86    1
    29    83    82    1
    30    81    82    1
    31    81    80    1
    32    77    76    1
    33    77    80    1
    34    77    78    1
    35    79    78    2
    36     6     5    1
    37    97    96    2
    38    98    96   am
    39    46    44    1
    40    96    95    1
    41     5     2    1
    42    44    43    1
    43    95    94    1
    44     2     1    1
    45     2     3    1
    46    72    71    2
    47    94    89   am
    48    43    45    1
    49    43    40    1
    50    91    93    1
    51    91    92    1
    52    91    88    1
    53    71    70    1
    54    39    40    1
    55    39    35   am
    56     3     7   am
    57     3     4    2
    58    40    41    1
    59    89    88    1
    60    89    90    2
    61     7     8    1
    62    34    37    1
    63    34    35    1
    64    34    33    1
    65    88    87    1
    66    37    38    1
    67    35    36    2
    68    70    73    1
    69    70    69    1
    70    12    11    1
    71    73    75    1
    72    73    74    1
    73    11     8    1
    74     8     9    1
    75    41    42    2
    76    64    63    1
    77     9    10    2
    78    63    60    1
    79    62    61    2
    80    32    31    1
    81    50    49    2
    82    22    20   ar
    83    22    23   ar
    84    20    18   ar
    85    13    14    1
    86    60    61    1
    87    60    59    1
    88    31    30    1
    89    66    65    1
    90    66    67    1
    91    49    59   am
    92    49    48    1
    93    23    21   ar
    94    18    17    1
    95    18    19   ar
    96    17    14    1
    97    54    56   ar
    98    54    52   ar
    99    48    51    1
   100    48    47    1
   101    14    15    1
   102    56    57   ar
   103    30    29    1
   104    67    68    2
   105    51    52    1
   106    21    19   ar
   107    52    53   ar
   108    29    28    1
   109    24    15   am
   110    24    25    1
   111    15    16    2
   112    57    58    1
   113    57    55   ar
   114    28    25    1
   115    25    26    1
   116    53    55   ar
   117    26    27    2
