@<TRIPOS>MOLECULE
tmp/3nclA00.pdb
 134 132 0 0 0
SMALL
GASTEIGER

@<TRIPOS>ATOM
      1  N         21.9870   18.4690   31.1410 N.3    26  ILE26      -0.1231
      2  CA        21.7140   19.2970   29.9620 C.3    26  ILE26       0.1692
      3  C         20.7430   20.4280   30.2670 C.2    26  ILE26       0.2592
      4  O         20.9520   21.5550   29.8330 O.2    26  ILE26      -0.2718
      5  CB        21.1230   18.4500   28.8210 C.3    26  ILE26       0.0266
      6  CG1       22.1120   17.3480   28.4420 C.3    26  ILE26       0.0019
      7  CG2       20.7830   19.3240   27.5970 C.3    26  ILE26       0.0020
      8  CD1       23.3920   17.8730   27.8070 C.3    26  ILE26       0.0001
      9  N         19.6610   20.1070   30.9670 N.am   27  CYS27      -0.1970
     10  CA        18.6160   21.0870   31.2320 C.3    27  CYS27       0.1712
     11  C         18.0280   20.9500   32.6210 C.2    27  CYS27       0.2296
     12  O         18.1940   19.9210   33.2730 O.2    27  CYS27      -0.2864
     13  CB        17.4930   20.9620   30.1890 C.3    27  CYS27       0.0983
     14  SG        17.8440   21.7720   28.5910 S.3    27  CYS27      -0.0798
     15  N         12.6630   23.2350   23.9160 N.3    42  HIS42      -0.1241
     16  CA        13.8330   23.2290   23.0510 C.3    42  HIS42       0.1621
     17  C         14.8950   22.2550   23.5380 C.2    42  HIS42       0.2264
     18  O         15.7650   21.8650   22.7690 O.2    42  HIS42      -0.2867
     19  CB        14.4150   24.6320   22.8840 C.3    42  HIS42       0.0745
     20  CG        15.3160   25.0640   24.0060 C.ar   42  HIS42       0.0817
     21  ND1       14.9410   26.0000   24.9430 N.ar   42  HIS42      -0.2268
     22  CD2       16.5970   24.7290   24.2980 C.ar   42  HIS42       0.1154
     23  CE1       15.9350   26.1970   25.7960 C.ar   42  HIS42       0.1986
     24  NE2       16.9530   25.4370   25.4200 N.ar   42  HIS42      -0.2212
     25  N         11.8890   29.8990   19.1080 N.3    94  PHE94      -0.1241
     26  CA        11.6070   29.4700   20.4860 C.3    94  PHE94       0.1605
     27  C         10.2800   29.9780   21.0600 C.2    94  PHE94       0.2264
     28  O         10.0790   29.9590   22.2770 O.2    94  PHE94      -0.2867
     29  CB        12.7440   29.8100   21.4610 C.3    94  PHE94       0.0534
     30  CG        13.9360   28.8810   21.3780 C.ar   94  PHE94      -0.0203
     31  CD1       14.8350   28.8010   22.4380 C.ar   94  PHE94      -0.0042
     32  CD2       14.1840   28.1110   20.2450 C.ar   94  PHE94      -0.0042
     33  CE1       15.9490   27.9690   22.3710 C.ar   94  PHE94      -0.0003
     34  CE2       15.2940   27.2790   20.1760 C.ar   94  PHE94      -0.0003
     35  CZ        16.1760   27.2040   21.2400 C.ar   94  PHE94      -0.0000
     36  N         22.1420   36.4970   35.6260 N.3   185  ASP185     -0.1225
     37  CA        21.3810   35.9980   34.4900 C.3   185  ASP185      0.1805
     38  C         21.4470   34.4750   34.4990 C.2   185  ASP185      0.2598
     39  O         22.3480   33.8820   35.0870 O.2   185  ASP185     -0.2718
     40  CB        22.0060   36.5780   33.2030 C.3   185  ASP185      0.1424
     41  CG        21.1310   36.4150   31.9400 C.2   185  ASP185      0.3668
     42  OD1       19.9540   35.9830   32.0130 O.co2 185  ASP185     -0.2456
     43  OD2       21.6600   36.7460   30.8650 O.co2 185  ASP185     -0.2456
     44  N         20.4970   33.8270   33.8430 N.am  186  SER186     -0.1938
     45  CA        20.6800   32.4240   33.5200 C.3   186  SER186      0.2055
     46  C         21.7020   32.2610   32.3830 C.2   186  SER186      0.2643
     47  O         22.1040   33.2390   31.7420 O.2   186  SER186     -0.2714
     48  CB        19.3400   31.8090   33.1600 C.3   186  SER186      0.2130
     49  OG        18.6630   32.6340   32.2620 O.3   186  SER186     -0.2179
     50  N         22.1070   31.0270   32.1420 N.am  187  CYS187     -0.1953
     51  CA        23.0910   30.7450   31.1260 C.3   187  CYS187      0.1843
     52  C         22.9860   29.2660   30.7260 C.2   187  CYS187      0.2625
     53  O         22.1940   28.5100   31.3060 O.2   187  CYS187     -0.2714
     54  CB        24.4980   31.0950   31.6340 C.3   187  CYS187      0.0997
     55  SG        25.7290   31.4330   30.3360 S.3   187  CYS187     -0.0797
     56  N         23.7790   28.8510   29.7390 N.am  188  GLN188     -0.1963
     57  CA        23.6470   27.5150   29.1620 C.3   188  GLN188      0.1733
     58  C         23.5960   26.4190   30.2280 C.2   188  GLN188      0.2617
     59  O         24.4950   26.3390   31.0780 O.2   188  GLN188     -0.2715
     60  CB        24.7850   27.2160   28.2050 C.3   188  GLN188      0.0408
     61  CG        24.6490   25.8650   27.5580 C.3   188  GLN188      0.0908
     62  CD        25.7810   25.5760   26.6080 C.2   188  GLN188      0.2608
     63  OE1       26.3890   24.5110   26.6520 O.2   188  GLN188     -0.2717
     64  NE2       26.0710   26.5230   25.7380 N.am  188  GLN188     -0.0878
     65  N         22.5830   25.5520   30.1650 N.am  189  GLY189     -0.1940
     66  CA        22.3810   24.5240   31.1630 C.3   189  GLY189      0.2014
     67  C         21.2760   24.8540   32.1640 C.2   189  GLY189      0.2639
     68  O         20.8020   23.9730   32.8860 O.2   189  GLY189     -0.2714
     69  N         20.8540   26.1180   32.2150 N.am  190  ASP190     -0.1957
     70  CA        19.7400   26.5110   33.0720 C.3   190  ASP190      0.1840
     71  C         18.3800   26.3070   32.3970 C.2   190  ASP190      0.2622
     72  O         17.3620   26.2740   33.0790 O.2   190  ASP190     -0.2715
     73  CB        19.8910   27.9560   33.4850 C.3   190  ASP190      0.1450
     74  CG        21.0370   28.1810   34.4620 C.2   190  ASP190      0.3671
     75  OD1       21.3140   27.2670   35.2780 O.co2 190  ASP190     -0.2456
     76  OD2       21.6360   29.2760   34.4140 O.co2 190  ASP190     -0.2456
     77  N         18.3710   26.2400   31.0730 N.am  191  SER191     -0.1950
     78  CA        17.1630   26.0600   30.2680 C.3   191  SER191      0.1924
     79  C         16.2590   25.0530   30.8650 C.2   191  SER191      0.2314
     80  O         16.6930   23.9890   31.2190 O.2   191  SER191     -0.2863
     81  CB        17.4680   25.5320   28.8780 C.3   191  SER191      0.2116
     82  OG        18.3050   26.4560   28.1680 O.3   191  SER191     -0.2180
     83  N         13.0700   28.9040   32.1330 N.3   210  VAL210     -0.1231
     84  CA        14.2660   29.4260   31.4680 C.3   210  VAL210      0.1692
     85  C         14.2570   29.0110   29.9940 C.2   210  VAL210      0.2593
     86  O         14.1110   27.8300   29.7090 O.2   210  VAL210     -0.2718
     87  CB        15.5410   28.8980   32.1440 C.3   210  VAL210      0.0266
     88  CG1       16.7770   29.4470   31.4270 C.3   210  VAL210      0.0020
     89  CG2       15.6000   29.2430   33.6300 C.3   210  VAL210      0.0020
     90  N         14.3860   29.9720   29.0780 N.am  211  SER211     -0.1938
     91  CA        14.2690   29.6680   27.6560 C.3   211  SER211      0.2055
     92  C         15.5300   29.9810   26.8250 C.2   211  SER211      0.2643
     93  O         16.1590   29.0650   26.2870 O.2   211  SER211     -0.2714
     94  CB        13.0290   30.3500   27.0460 C.3   211  SER211      0.2130
     95  OG        12.8390   30.0270   25.6770 O.3   211  SER211     -0.2179
     96  N         15.9120   31.2470   26.7250 N.am  212  TRP212     -0.1959
     97  CA        17.0690   31.6200   25.9190 C.3   212  TRP212      0.1771
     98  C         17.6280   32.9900   26.2860 C.2   212  TRP212      0.2620
     99  O         17.0550   33.7170   27.0960 O.2   212  TRP212     -0.2715
    100  CB        16.7190   31.5860   24.4160 C.3   212  TRP212      0.0590
    101  CG        15.6370   32.5550   23.9460 C.ar  212  TRP212      0.0006
    102  CD1       14.2840   32.3400   23.9830 C.ar  212  TRP212      0.0946
    103  CD2       15.8140   33.8560   23.3590 C.ar  212  TRP212      0.0152
    104  NE1       13.6130   33.4230   23.4440 N.ar  212  TRP212     -0.2442
    105  CE2       14.5280   34.3580   23.0570 C.ar  212  TRP212      0.0810
    106  CE3       16.9340   34.6410   23.0420 C.ar  212  TRP212      0.0012
    107  CZ2       14.3340   35.6060   22.4760 C.ar  212  TRP212      0.0191
    108  CZ3       16.7310   35.8740   22.4630 C.ar  212  TRP212      0.0001
    109  CH2       15.4410   36.3450   22.1820 C.ar  212  TRP212      0.0015
    110  N         18.7420   33.3590   25.6710 N.am  213  GLY213     -0.1954
    111  CA        19.3040   34.6790   25.8560 C.3   213  GLY213      0.1869
    112  C         20.3480   34.9880   24.8170 C.2   213  GLY213      0.2309
    113  O         20.7710   34.0940   24.1150 O.2   213  GLY213     -0.2863
    114  N         23.9520   35.9300   24.6890 N.3   215  GLY215     -0.1210
    115  CA        25.0200   35.8590   25.6830 C.3   215  GLY215      0.1956
    116  C         24.4640   35.5480   27.0750 C.2   215  GLY215      0.2612
    117  O         23.3610   35.0300   27.2120 O.2   215  GLY215     -0.2717
    118  N         25.2410   35.8660   28.1090 N.am  216  CYS216     -0.1970
    119  CA        24.7850   35.7440   29.4840 C.3   216  CYS216      0.1712
    120  C         25.2880   36.9240   30.3080 C.2   216  CYS216      0.2296
    121  O         26.4670   37.2700   30.2330 O.2   216  CYS216     -0.2864
    122  CB        25.2780   34.4410   30.1160 C.3   216  CYS216      0.0983
    123  SG        24.8840   32.9690   29.2320 S.3   216  CYS216     -0.0798
    124  N         17.8940   37.7330   30.2640 N.3   223  GLY223     -0.1210
    125  CA        17.4140   36.4510   29.8130 C.3   223  GLY223      0.1956
    126  C         15.9440   36.4860   29.4370 C.2   223  GLY223      0.2611
    127  O         15.1580   37.2930   29.9490 O.2   223  GLY223     -0.2717
    128  N         15.5720   35.5380   28.5740 N.am  224  VAL224     -0.1979
    129  CA        14.2020   35.3780   28.1100 C.3   224  VAL224      0.1595
    130  C         13.6090   34.0700   28.6360 C.2   224  VAL224      0.2287
    131  O         14.2570   33.0130   28.6270 O.2   224  VAL224     -0.2864
    132  CB        14.1070   35.4250   26.5650 C.3   224  VAL224      0.0276
    133  CG1       12.6450   35.4160   26.1490 C.3   224  VAL224      0.0022
    134  CG2       14.8040   36.6630   26.0490 C.3   224  VAL224      0.0022
@<TRIPOS>BOND
     1    25    26    1
     2    34    32   ar
     3    34    35   ar
     4    32    30   ar
     5    26    27    1
     6    26    29    1
     7    27    28    2
     8    35    33   ar
     9    30    29    1
    10    30    31   ar
    11   109   108   ar
    12   109   107   ar
    13    33    31   ar
    14   108   106   ar
    15   107   105   ar
    16    18    17    2
    17    19    16    1
    18    19    20    1
    19   106   103   ar
    20    16    17    1
    21    16    15    1
    22   105   103   ar
    23   105   104   ar
    24   103   101   ar
    25   104   102   ar
    26   101   102   ar
    27   101   100    1
    28    20    22   ar
    29    20    21   ar
    30   113   112    2
    31    22    24   ar
    32   100    97    1
    33   114   115    1
    34   112   111    1
    35    21    23   ar
    36    24    23   ar
    37   110   111    1
    38   110    98   am
    39    95    94    1
    40   115   116    1
    41    64    62   am
    42    97    98    1
    43    97    96    1
    44   134   132    1
    45   133   132    1
    46    98    99    2
    47    93    92    2
    48   132   129    1
    49    62    63    2
    50    62    61    1
    51    96    92   am
    52    92    91    1
    53    94    91    1
    54   116   117    2
    55   116   118   am
    56    61    60    1
    57     7     5    1
    58    91    90    1
    59     8     6    1
    60   118   119    1
    61   129   128    1
    62   129   130    1
    63    82    81    1
    64    60    57    1
    65     6     5    1
    66   128   126   am
    67    14    13    1
    68   131   130    2
    69     5     2    1
    70    81    78    1
    71    90    85   am
    72    57    56    1
    73    57    58    1
    74   123   122    1
    75   123    55    1
    76   126   125    1
    77   126   127    2
    78   119   122    1
    79   119   120    1
    80    86    85    2
    81    56    52   am
    82   125   124    1
    83     4     3    2
    84     2     3    1
    85     2     1    1
    86    85    84    1
    87    65    58   am
    88    65    66    1
    89    13    10    1
    90    58    59    2
    91   121   120    2
    92     3     9   am
    93    78    79    1
    94    78    77    1
    95    55    54    1
    96    52    51    1
    97    52    53    2
    98    43    41   ar
    99    79    80    2
   100     9    10    1
   101    77    71   am
   102    51    54    1
   103    51    50    1
   104    66    67    1
   105    10    11    1
   106    88    87    1
   107    84    83    1
   108    84    87    1
   109    47    46    2
   110    41    42   ar
   111    41    40    1
   112    50    46   am
   113    87    89    1
   114    67    69   am
   115    67    68    2
   116    69    70    1
   117    49    48    1
   118    46    45    1
   119    71    70    1
   120    71    72    2
   121    11    12    2
   122    70    73    1
   123    48    45    1
   124    40    37    1
   125    73    74    1
   126    45    44    1
   127    44    38   am
   128    76    74   ar
   129    74    75   ar
   130    37    38    1
   131    37    36    1
   132    38    39    2
