@<TRIPOS>MOLECULE
tmp/3ncqA00.pdb
 119 116 0 0 0
SMALL
GASTEIGER

@<TRIPOS>ATOM
      1  N         17.9350   21.2120   33.4850 N.3     7  ILE7       -0.1245
      2  CA        18.8100   21.4040   32.3320 C.3     7  ILE7        0.1561
      3  C         17.9160   22.0000   31.2610 C.2     7  ILE7        0.2260
      4  O         16.9660   21.3470   30.8560 O.2     7  ILE7       -0.2867
      5  CB        19.4100   20.0860   31.8520 C.3     7  ILE7        0.0252
      6  CG1       20.0620   19.2900   33.0160 C.3     7  ILE7        0.0019
      7  CG2       20.3460   20.3620   30.6590 C.3     7  ILE7        0.0019
      8  CD1       21.1610   20.0460   33.7090 C.3     7  ILE7        0.0001
      9  N         26.8470   23.6420   30.6420 N.3    33  VAL33      -0.1231
     10  CA        27.0870   22.1840   30.4990 C.3    33  VAL33       0.1692
     11  C         26.8760   21.8010   29.0630 C.2    33  VAL33       0.2592
     12  O         26.5280   22.6450   28.2120 O.2    33  VAL33      -0.2718
     13  CB        26.0920   21.3420   31.3920 C.3    33  VAL33       0.0266
     14  CG1       26.3420   21.7440   32.8850 C.3    33  VAL33       0.0020
     15  CG2       24.5730   21.5480   31.0190 C.3    33  VAL33       0.0020
     16  N         27.1390   20.5440   28.7560 N.am   34  LYS34      -0.1966
     17  CA        26.7790   19.9850   27.4600 C.3    34  LYS34       0.1728
     18  C         25.9480   18.7600   27.6140 C.2    34  LYS34       0.2617
     19  O         26.0940   18.1140   28.6780 O.2    34  LYS34      -0.2715
     20  CB        28.0220   19.6460   26.6010 C.3    34  LYS34       0.0311
     21  CG        28.7660   20.9070   26.2550 C.3    34  LYS34       0.0038
     22  CD        29.8650   20.7330   25.2320 C.3    34  LYS34       0.0206
     23  CE        30.6240   22.0970   25.1660 C.3    34  LYS34       0.1093
     24  NZ        29.9790   23.1260   24.2120 N.3    34  LYS34      -0.1314
     25  N         25.0830   18.4200   26.6720 N.am   35  GLY35      -0.1940
     26  CA        24.3140   17.2350   26.9180 C.3    35  GLY35       0.2014
     27  C         23.8060   16.6330   25.6080 C.2    35  GLY35       0.2639
     28  O         23.8360   17.2980   24.5620 O.2    35  GLY35      -0.2714
     29  N         23.3180   15.4150   25.6890 N.am   36  ARG36      -0.1963
     30  CA        22.4450   14.8840   24.6190 C.3    36  ARG36       0.1729
     31  C         21.2470   14.2100   25.2730 C.2    36  ARG36       0.2617
     32  O         21.2520   13.9290   26.5180 O.2    36  ARG36      -0.2715
     33  CB        23.2510   13.8940   23.7350 C.3    36  ARG36       0.0348
     34  CG        23.6910   12.6050   24.4630 C.3    36  ARG36       0.0492
     35  CD        23.9550   11.4190   23.5120 C.3    36  ARG36       0.2205
     36  NE        22.6550   11.0760   22.9140 N.pl3  36  ARG36      -0.0865
     37  CZ        22.4840   10.1630   21.9570 C.cat  36  ARG36       0.5346
     38  NH1       23.5360    9.4560   21.5650 N.pl3  36  ARG36       0.1354
     39  NH2       21.2610    9.9780   21.3700 N.pl3  36  ARG36       0.1354
     40  N         20.2210   13.9400   24.4550 N.am   37  GLY37      -0.1940
     41  CA        19.0600   13.1960   24.9080 C.3    37  GLY37       0.2014
     42  C         18.9150   12.0080   23.9580 C.2    37  GLY37       0.2639
     43  O         19.8460   11.6170   23.2130 O.2    37  GLY37      -0.2714
     44  N         17.6440   11.5770   23.8620 N.am   38  GLN38      -0.1963
     45  CA        17.3500   10.4480   22.9940 C.3    38  GLN38       0.1733
     46  C         17.4250   10.8400   21.5130 C.2    38  GLN38       0.2616
     47  O         17.7680    9.9920   20.6950 O.2    38  GLN38      -0.2715
     48  CB        16.0080    9.8070   23.3560 C.3    38  GLN38       0.0408
     49  CG        14.8000   10.6370   23.1200 C.3    38  GLN38       0.0908
     50  CD        13.5220    9.8820   23.5860 C.2    38  GLN38       0.2608
     51  OE1       12.6550   10.4270   24.3520 O.2    38  GLN38      -0.2717
     52  NE2       13.4140    8.6110   23.1470 N.am   38  GLN38      -0.0878
     53  N         17.1780   12.1120   21.1670 N.am   39  GLN39      -0.1977
     54  CA        17.1630   12.4890   19.7250 C.3    39  GLN39       0.1601
     55  C         18.5170   12.1700   19.0610 C.2    39  GLN39       0.2287
     56  O         19.5520   12.5780   19.5650 O.2    39  GLN39      -0.2864
     57  CB        16.8740   14.0090   19.5980 C.3    39  GLN39       0.0394
     58  CG        16.8420   14.4210   18.1310 C.3    39  GLN39       0.0908
     59  CD        15.8430   15.4630   17.9050 C.2    39  GLN39       0.2608
     60  OE1       16.1380   16.6460   18.0980 O.2    39  GLN39      -0.2717
     61  NE2       14.6290   15.0560   17.4760 N.am   39  GLN39      -0.0878
     62  N         24.0360   23.4510   26.9310 N.3    58  LYS58      -0.1245
     63  CA        22.7910   23.6850   27.6540 C.3    58  LYS58       0.1561
     64  C         23.0810   24.4950   28.9120 C.2    58  LYS58       0.2260
     65  O         24.2990   24.7000   29.2190 O.2    58  LYS58      -0.2867
     66  CB        22.1660   22.3390   28.1490 C.3    58  LYS58       0.0271
     67  CG        21.8200   21.3010   27.0180 C.3    58  LYS58       0.0035
     68  CD        20.5760   21.7440   26.2410 C.3    58  LYS58       0.0206
     69  CE        20.3130   20.7100   25.1070 C.3    58  LYS58       0.1093
     70  NZ        19.0960   21.1500   24.2880 N.3    58  LYS58      -0.1314
     71  N          9.8230   20.9970   21.4030 N.3    85  SER85      -0.1203
     72  CA        10.7510   20.1790   20.5730 C.3    85  SER85       0.2005
     73  C         11.6660   19.3710   21.4810 C.2    85  SER85       0.2461
     74  O         11.9680   19.8130   22.6020 O.2    85  SER85      -0.2732
     75  CB        11.5770   21.0900   19.6830 C.3    85  SER85       0.2103
     76  OG        10.6670   21.6690   18.7180 O.3    85  SER85      -0.2182
     77  N         12.0310   18.1540   21.0680 N.am   86  PRO86      -0.2717
     78  CA        13.0130   17.3980   21.8430 C.3    86  PRO86       0.1536
     79  C         14.2620   18.2480   22.1220 C.2    86  PRO86       0.2599
     80  O         14.7090   19.0060   21.2890 O.2    86  PRO86      -0.2715
     81  CB        13.3540   16.2550   20.9170 C.3    86  PRO86       0.0310
     82  CG        12.1090   15.9730   20.1600 C.3    86  PRO86       0.0237
     83  CD        11.6330   17.4120   19.8230 C.3    86  PRO86       0.0939
     84  N         14.7600   18.1760   23.3400 N.am   87  GLY87      -0.1941
     85  CA        15.8950   18.9430   23.7890 C.3    87  GLY87       0.2014
     86  C         15.4590   20.0250   24.7730 C.2    87  GLY87       0.2639
     87  O         16.3350   20.7310   25.2820 O.2    87  GLY87      -0.2714
     88  N         14.1420   20.1190   25.1210 N.am   88  ASP88      -0.1957
     89  CA        13.6960   21.1380   26.1000 C.3    88  ASP88       0.1840
     90  C         14.2520   20.8540   27.4760 C.2    88  ASP88       0.2623
     91  O         14.3840   21.8240   28.2570 O.2    88  ASP88      -0.2715
     92  CB        12.2060   21.1100   26.2480 C.3    88  ASP88       0.1450
     93  CG        11.4800   21.9050   25.2200 C.2    88  ASP88       0.3671
     94  OD1       10.2320   21.8510   25.2100 O.co2  88  ASP88      -0.2456
     95  OD2       12.1080   22.4900   24.3050 O.co2  88  ASP88      -0.2456
     96  N         14.6240   19.6400   27.8330 N.am   89  GLY89      -0.1940
     97  CA        15.3300   19.4170   29.1070 C.3    89  GLY89       0.2014
     98  C         14.5000   18.6530   30.1500 C.2    89  GLY89       0.2638
     99  O         13.3520   18.1750   29.8860 O.2    89  GLY89      -0.2714
    100  N         15.1140   18.4820   31.3050 N.am   90  LYS90      -0.1977
    101  CA        14.5020   17.6750   32.3220 C.3    90  LYS90       0.1596
    102  C         14.7860   18.4400   33.6250 C.2    90  LYS90       0.2287
    103  O         15.7100   19.2770   33.7220 O.2    90  LYS90      -0.2864
    104  CB        15.1370   16.3080   32.4320 C.3    90  LYS90       0.0298
    105  CG        14.8200   15.3840   31.2320 C.3    90  LYS90       0.0038
    106  CD        14.8560   13.8970   31.5800 C.3    90  LYS90       0.0206
    107  CE        14.4970   12.9400   30.3740 C.3    90  LYS90       0.1093
    108  NZ        15.3260   13.1100   29.3790 N.3    90  LYS90      -0.1314
    109  N         15.3440   17.5490   37.7740 N.3    92  PHE92      -0.1241
    110  CA        15.5800   16.5060   38.7730 C.3    92  PHE92       0.1605
    111  C         15.3610   17.0970   40.1540 C.2    92  PHE92       0.2264
    112  O         15.8800   18.2030   40.4310 O.2    92  PHE92      -0.2867
    113  CB        17.0650   16.0640   38.6490 C.3    92  PHE92       0.0534
    114  CG        17.4350   15.6590   37.2670 C.ar   92  PHE92      -0.0203
    115  CD1       18.5920   16.1730   36.6720 C.ar   92  PHE92      -0.0042
    116  CD2       16.6950   14.7050   36.5640 C.ar   92  PHE92      -0.0042
    117  CE1       18.9930   15.8400   35.3780 C.ar   92  PHE92      -0.0003
    118  CE2       17.0960   14.3160   35.2470 C.ar   92  PHE92      -0.0003
    119  CZ        18.2140   14.9290   34.6410 C.ar   92  PHE92      -0.0000
@<TRIPOS>BOND
     1    61    59   am
     2    59    60    2
     3    59    58    1
     4    58    57    1
     5    76    75    1
     6    55    56    2
     7    55    54    1
     8    57    54    1
     9    75    72    1
    10    54    53    1
    11    83    82    1
    12    83    77    1
    13    82    81    1
    14    72    71    1
    15    72    73    1
    16    47    46    2
    17    81    78    1
    18    77    73   am
    19    77    78    1
    20    53    46   am
    21    80    79    2
    22    39    37    1
    23    73    74    2
    24    46    45    1
    25    38    37    1
    26    78    79    1
    27    37    36    2
    28    79    84   am
    29    36    35    1
    30    45    48    1
    31    45    44    1
    32    49    48    1
    33    49    50    1
    34    52    50   am
    35    43    42    2
    36    84    85    1
    37    35    34    1
    38    50    51    2
    39    33    34    1
    40    33    30    1
    41    85    86    1
    42    44    42   am
    43    42    41    1
    44    24    23    1
    45    70    69    1
    46    95    93   ar
    47    40    41    1
    48    40    31   am
    49    28    27    2
    50    30    31    1
    51    30    29    1
    52    86    88   am
    53    86    87    2
    54    69    68    1
    55    88    89    1
    56    23    22    1
    57    94    93   ar
    58    93    92    1
    59    22    21    1
    60    31    32    2
    61    27    29   am
    62    27    26    1
    63    89    92    1
    64    89    90    1
    65    68    67    1
    66    21    20    1
    67    20    17    1
    68    25    26    1
    69    25    18   am
    70    62    63    1
    71    67    66    1
    72    17    18    1
    73    17    16    1
    74    90    96   am
    75    90    91    2
    76    18    19    2
    77    63    66    1
    78    63    64    1
    79    96    97    1
    80    12    11    2
    81    16    11   am
    82    64    65    2
    83    11    10    1
    84    97    98    1
    85   108   107    1
    86    99    98    2
    87    98   100   am
    88   107   106    1
    89    10     9    1
    90    10    13    1
    91     7     5    1
    92     4     3    2
    93    15    13    1
    94   105   106    1
    95   105   104    1
    96     3     2    1
    97   100   101    1
    98    13    14    1
    99     5     2    1
   100     5     6    1
   101   101   104    1
   102   101   102    1
   103     2     1    1
   104     6     8    1
   105   102   103    2
   106   119   118   ar
   107   119   117   ar
   108   118   116   ar
   109   117   115   ar
   110   116   114   ar
   111   115   114   ar
   112   114   113    1
   113   109   110    1
   114   113   110    1
   115   110   111    1
   116   111   112    2
