@<TRIPOS>MOLECULE
tmp/3ncrC01.pdb
 113 110 0 0 0
SMALL
GASTEIGER

@<TRIPOS>ATOM
      1  N         29.5690   27.3020   47.9340 N.3     7  ILE7       -0.1301
      2  CA        29.7460   28.3580   46.9360 C.3     7  ILE7        0.1246
      3  C         30.4300   29.5120   47.6400 C.3     7  ILE7        0.2009
      4  O         29.8260   30.1030   48.6130 O.3     7  ILE7       -0.2188
      5  CB        28.3990   28.8290   46.3470 C.3     7  ILE7        0.0202
      6  CG1       27.5180   27.6280   45.8610 C.3     7  ILE7        0.0015
      7  CG2       28.6340   29.9170   45.1940 C.3     7  ILE7        0.0016
      8  CD1       28.1590   26.7210   44.8470 C.3     7  ILE7        0.0000
      9  N         31.6040   29.0120   38.5880 N.3    33  VAL33      -0.1231
     10  CA        30.1890   29.1920   38.4180 C.3    33  VAL33       0.1692
     11  C         29.8510   30.6730   38.4770 C.2    33  VAL33       0.2592
     12  O         30.7520   31.5200   38.6750 O.2    33  VAL33      -0.2718
     13  CB        29.3650   28.3620   39.5030 C.3    33  VAL33       0.0266
     14  CG1       29.6760   26.8260   39.4640 C.3    33  VAL33       0.0020
     15  CG2       29.6050   28.9680   40.9210 C.3    33  VAL33       0.0020
     16  N         28.5640   31.0250   38.2990 N.am   34  LYS34      -0.1966
     17  CA        28.1060   32.4240   38.5180 C.3    34  LYS34       0.1728
     18  C         26.8970   32.3720   39.4290 C.2    34  LYS34       0.2617
     19  O         26.1690   31.3280   39.4980 O.2    34  LYS34      -0.2715
     20  CB        27.7000   33.1470   37.1840 C.3    34  LYS34       0.0311
     21  CG        28.9780   33.3000   36.1590 C.3    34  LYS34       0.0038
     22  CD        28.5010   34.0340   34.9440 C.3    34  LYS34       0.0206
     23  CE        29.5420   33.7750   33.8950 C.3    34  LYS34       0.1093
     24  NZ        30.6740   34.6160   34.3690 N.3    34  LYS34      -0.1314
     25  N         26.6300   33.4410   40.1490 N.am   35  GLY35      -0.1940
     26  CA        25.4820   33.4070   41.0440 C.3    35  GLY35       0.2014
     27  C         24.9850   34.8040   41.3860 C.2    35  GLY35       0.2639
     28  O         25.7020   35.8380   41.2110 O.2    35  GLY35      -0.2714
     29  N         23.7520   34.8340   41.8970 N.am   36  ARG36      -0.1963
     30  CA        23.3040   36.0530   42.6310 C.3    36  ARG36       0.1729
     31  C         22.6160   35.5770   43.8980 C.2    36  ARG36       0.2617
     32  O         22.2420   34.3760   44.0420 O.2    36  ARG36      -0.2715
     33  CB        22.3090   36.9670   41.8310 C.3    36  ARG36       0.0348
     34  CG        20.9930   36.2770   41.3230 C.3    36  ARG36       0.0492
     35  CD        19.7630   37.1860   41.0650 C.3    36  ARG36       0.2205
     36  NE        19.4530   37.9850   42.2730 N.pl3  36  ARG36      -0.0865
     37  CZ        18.6260   39.0340   42.3380 C.cat  36  ARG36       0.5346
     38  NH1       17.8650   39.4140   41.2650 N.pl3  36  ARG36       0.1354
     39  NH2       18.5750   39.6900   43.5160 N.pl3  36  ARG36       0.1354
     40  N         22.3820   36.5530   44.7610 N.am   37  GLY37      -0.1940
     41  CA        21.7060   36.3170   46.0750 C.3    37  GLY37       0.2014
     42  C         20.5830   37.3430   46.1670 C.2    37  GLY37       0.2639
     43  O         20.1580   37.9240   45.1550 O.2    37  GLY37      -0.2714
     44  N         20.1650   37.6570   47.3970 N.am   38  GLN38      -0.1963
     45  CA        19.1580   38.6650   47.5960 C.3    38  GLN38       0.1733
     46  C         19.5780   40.1020   47.2400 C.2    38  GLN38       0.2616
     47  O         18.7230   40.9240   46.8820 O.2    38  GLN38      -0.2715
     48  CB        18.8390   38.6650   49.0810 C.3    38  GLN38       0.0408
     49  CG        17.4530   38.5670   49.3150 C.3    38  GLN38       0.0908
     50  CD        17.0100   37.1450   49.3080 C.2    38  GLN38       0.2608
     51  OE1       17.8260   36.2010   49.1950 O.2    38  GLN38      -0.2717
     52  NE2       15.6970   36.9600   49.4660 N.am   38  GLN38      -0.0878
     53  N         20.8750   40.4170   47.4170 N.am   39  GLN39      -0.1977
     54  CA        21.3680   41.8250   47.1980 C.3    39  GLN39       0.1601
     55  C         20.9920   42.3340   45.7870 C.2    39  GLN39       0.2287
     56  O         21.2330   41.6350   44.7820 O.2    39  GLN39      -0.2864
     57  CB        22.8590   41.9420   47.4110 C.3    39  GLN39       0.0394
     58  CG        23.3490   43.4210   47.3820 C.3    39  GLN39       0.0908
     59  CD        24.8090   43.5890   47.8980 C.2    39  GLN39       0.2608
     60  OE1       25.0400   44.2540   48.9130 O.2    39  GLN39      -0.2717
     61  NE2       25.7750   42.9600   47.2250 N.am   39  GLN39      -0.0878
     62  N         31.7950   33.0350   40.9700 N.3    58  LYS58      -0.1245
     63  CA        32.0660   32.4840   42.3220 C.3    58  LYS58       0.1561
     64  C         32.7950   31.1510   42.0970 C.2    58  LYS58       0.2260
     65  O         32.9390   30.6850   40.9400 O.2    58  LYS58      -0.2867
     66  CB        30.7200   32.1790   43.0880 C.3    58  LYS58       0.0271
     67  CG        29.7200   33.3670   43.2860 C.3    58  LYS58       0.0035
     68  CD        30.2260   34.2980   44.3780 C.3    58  LYS58       0.0206
     69  CE        29.2270   35.4230   44.5650 C.3    58  LYS58       0.1093
     70  NZ        29.6670   36.4200   45.7350 N.3    58  LYS58      -0.1314
     71  N         27.4110   40.8400   52.5390 N.3    86  PRO86      -0.2102
     72  CA        26.5200   40.0410   51.6530 C.3    86  PRO86       0.1504
     73  C         27.3120   39.5030   50.4170 C.2    86  PRO86       0.2576
     74  O         28.1660   40.2390   49.8700 O.2    86  PRO86      -0.2718
     75  CB        25.4380   41.0690   51.2240 C.3    86  PRO86       0.0282
     76  CG        25.4640   42.1200   52.4580 C.3    86  PRO86       0.0208
     77  CD        26.9340   42.2300   52.7390 C.3    86  PRO86       0.0893
     78  N         27.0690   38.2250   50.0570 N.am   87  GLY87      -0.1943
     79  CA        27.7790   37.5690   48.9510 C.3    87  GLY87       0.2014
     80  C         28.8340   36.5460   49.4610 C.2    87  GLY87       0.2639
     81  O         29.5220   35.9360   48.6540 O.2    87  GLY87      -0.2714
     82  N         28.9480   36.2980   50.7930 N.am   88  ASP88      -0.1957
     83  CA        29.9540   35.3170   51.2990 C.3    88  ASP88       0.1840
     84  C         29.6760   33.8340   50.9370 C.2    88  ASP88       0.2623
     85  O         30.6380   33.0250   50.8320 O.2    88  ASP88      -0.2715
     86  CB        29.9750   35.3740   52.8360 C.3    88  ASP88       0.1450
     87  CG        30.9610   36.4090   53.4000 C.2    88  ASP88       0.3671
     88  OD1       31.0320   36.5250   54.6480 O.co2  88  ASP88      -0.2456
     89  OD2       31.6690   37.1440   52.6450 O.co2  88  ASP88      -0.2456
     90  N         28.3970   33.4700   50.6590 N.am   89  GLY89      -0.1940
     91  CA        28.1000   32.1350   50.1270 C.3    89  GLY89       0.2014
     92  C         27.3660   31.2330   51.0770 C.2    89  GLY89       0.2638
     93  O         26.9020   31.6260   52.1950 O.2    89  GLY89      -0.2714
     94  N         27.1150   30.0380   50.6000 N.am   90  LYS90      -0.1977
     95  CA        26.2890   29.0730   51.3510 C.3    90  LYS90       0.1596
     96  C         26.8980   27.6830   51.1860 C.2    90  LYS90       0.2287
     97  O         27.6280   27.4440   50.1710 O.2    90  LYS90      -0.2864
     98  CB        24.8590   29.0290   50.7730 C.3    90  LYS90       0.0298
     99  CG        23.8920   30.2780   51.0890 C.3    90  LYS90       0.0038
    100  CD        22.3660   30.0120   50.8420 C.3    90  LYS90       0.0206
    101  CE        21.3990   31.2950   51.1400 C.3    90  LYS90       0.1093
    102  NZ        21.2050   32.0850   49.9730 N.3    90  LYS90      -0.1314
    103  N         25.6870   23.5010   51.1430 N.3    92  PHE92      -0.1241
    104  CA        24.5520   22.5480   51.1230 C.3    92  PHE92       0.1605
    105  C         25.1140   21.1660   51.4700 C.2    92  PHE92       0.2264
    106  O         26.1630   20.7780   50.9140 O.2    92  PHE92      -0.2867
    107  CB        23.9720   22.4710   49.6670 C.3    92  PHE92       0.0534
    108  CG        23.6230   23.8480   49.0580 C.ar   92  PHE92      -0.0203
    109  CD1       24.1630   24.2450   47.8080 C.ar   92  PHE92      -0.0042
    110  CD2       22.8160   24.7270   49.7510 C.ar   92  PHE92      -0.0042
    111  CE1       23.8500   25.5080   47.2360 C.ar   92  PHE92      -0.0003
    112  CE2       22.5350   26.0090   49.2180 C.ar   92  PHE92      -0.0003
    113  CZ        23.0620   26.4130   47.9910 C.ar   92  PHE92      -0.0000
@<TRIPOS>BOND
     1    23    24    1
     2    23    22    1
     3    22    21    1
     4    21    20    1
     5    20    17    1
     6    16    11   am
     7    16    17    1
     8    10    11    1
     9    10     9    1
    10    10    13    1
    11    11    12    2
    12    17    18    1
    13    18    19    2
    14    18    25   am
    15    14    13    1
    16    13    15    1
    17    25    26    1
    18    65    64    2
    19    62    63    1
    20    26    27    1
    21    35    34    1
    22    35    36    1
    23    28    27    2
    24    38    37    1
    25    34    33    1
    26    27    29   am
    27    33    30    1
    28    29    30    1
    29    64    63    1
    30    36    37    2
    31    63    66    1
    32    37    39    1
    33    30    31    1
    34    66    67    1
    35    67    68    1
    36    31    32    2
    37    31    40   am
    38    68    69    1
    39    69    70    1
    40    40    41    1
    41    56    55    2
    42     8     6    1
    43    43    42    2
    44     7     5    1
    45    55    54    1
    46     6     5    1
    47    41    42    1
    48    42    44   am
    49     5     2    1
    50    47    46    2
    51     2     3    1
    52     2     1    1
    53    54    57    1
    54    54    53    1
    55    61    59   am
    56   111   109   ar
    57   111   113   ar
    58    46    53   am
    59    46    45    1
    60    58    57    1
    61    58    59    1
    62    44    45    1
    63    45    48    1
    64     3     4    1
    65   109   108   ar
    66    59    60    2
    67   113   112   ar
    68    81    80    2
    69    79    80    1
    70    79    78    1
    71   108   107    1
    72   108   110   ar
    73    48    49    1
    74    51    50    2
    75   112   110   ar
    76    50    49    1
    77    50    52   am
    78    80    82   am
    79   107   104    1
    80    74    73    2
    81   102   101    1
    82    78    73   am
    83    91    90    1
    84    91    92    1
    85    97    96    2
    86    73    72    1
    87    94    92   am
    88    94    95    1
    89    90    84   am
    90    98    99    1
    91    98    95    1
    92    82    83    1
    93    85    84    2
    94   100    99    1
    95   100   101    1
    96   106   105    2
    97    84    83    1
    98    92    93    2
    99   104   103    1
   100   104   105    1
   101    96    95    1
   102    75    72    1
   103    75    76    1
   104    83    86    1
   105    72    71    1
   106    76    77    1
   107    71    77    1
   108    89    87   ar
   109    86    87    1
   110    87    88   ar
