@<TRIPOS>MOLECULE
tmp/3nczA00.pdb
 170 159 0 0 0
SMALL
GASTEIGER

@<TRIPOS>ATOM
      1  N         -5.3170   -2.4630   39.7350 N.3    79  ILE79      -0.1231
      2  CA        -5.8590   -1.7400   40.8950 C.3    79  ILE79       0.1696
      3  C         -7.0930   -2.4070   41.5090 C.2    79  ILE79       0.2632
      4  O         -7.7140   -1.8320   42.4020 O.2    79  ILE79      -0.2714
      5  CB        -6.2120   -0.2580   40.5970 C.3    79  ILE79       0.0266
      6  CG1       -7.5320   -0.1470   39.8410 C.3    79  ILE79       0.0019
      7  CG2       -5.1140    0.4110   39.8080 C.3    79  ILE79       0.0020
      8  CD1       -7.8160    1.2310   39.3500 C.3    79  ILE79       0.0001
      9  N         -7.4520   -3.6080   41.0440 N.am   80  GLY80      -0.1718
     10  CA        -8.6140   -4.2990   41.5830 C.2    80  GLY80       0.1480
     11  C         -8.8770   -5.6900   41.0310 C.2    80  GLY80       0.2820
     12  O         -8.3090   -6.0750   40.0090 O.2    80  GLY80      -0.2669
     13  N         -9.7550   -6.4360   41.7110 N.am   81  ARG81      -0.1929
     14  CA       -10.1000   -7.8070   41.3280 C.3    81  ARG81       0.1732
     15  C        -11.5390   -8.1870   41.6850 C.2    81  ARG81       0.2617
     16  O        -11.9070   -8.2470   42.8540 O.2    81  ARG81      -0.2715
     17  CB        -9.1240   -8.8030   41.9670 C.3    81  ARG81       0.0348
     18  CG        -9.4590  -10.2490   41.6940 C.3    81  ARG81       0.0492
     19  CD        -8.3210  -11.1560   42.0750 C.3    81  ARG81       0.2205
     20  NE        -7.1950  -11.0150   41.1650 N.pl3  81  ARG81      -0.0865
     21  CZ        -6.0870  -10.3450   41.4580 C.cat  81  ARG81       0.5346
     22  NH1       -5.9650   -9.7620   42.6460 N.pl3  81  ARG81       0.1354
     23  NH2       -5.1020  -10.2610   40.5640 N.pl3  81  ARG81       0.1354
     24  N        -12.3440   -8.4460   40.6610 N.am   82  GLY82      -0.1940
     25  CA       -13.6940   -8.9550   40.8480 C.3    82  GLY82       0.2014
     26  C        -13.7220  -10.4740   40.7910 C.2    82  GLY82       0.2638
     27  O        -12.6790  -11.1250   40.9110 O.2    82  GLY82      -0.2714
     28  N        -14.9040  -11.0520   40.5990 N.am   83  ALA83      -0.1977
     29  CA       -15.0250  -12.5110   40.5960 C.3    83  ALA83       0.1597
     30  C        -14.5240  -13.1120   39.3120 C.2    83  ALA83       0.2287
     31  O        -13.9150  -14.1820   39.3200 O.2    83  ALA83      -0.2864
     32  CB       -16.4520  -12.9410   40.8080 C.3    83  ALA83       0.0319
     33  N         -9.3090   -5.8340   37.4460 N.3    87  VAL87      -0.1245
     34  CA        -9.6440   -4.4970   37.0170 C.3    87  VAL87       0.1561
     35  C         -8.3500   -3.6700   37.0510 C.2    87  VAL87       0.2260
     36  O         -7.7890   -3.4540   38.1240 O.2    87  VAL87      -0.2867
     37  CB       -10.7270   -3.9280   37.9640 C.3    87  VAL87       0.0252
     38  CG1      -11.0190   -2.4590   37.6810 C.3    87  VAL87       0.0019
     39  CG2      -12.0090   -4.7550   37.8430 C.3    87  VAL87       0.0019
     40  N         -9.9250    2.9220   33.0760 N.3   100  ALA100     -0.1245
     41  CA        -9.9140    1.7220   33.9150 C.3   100  ALA100      0.1562
     42  C        -10.6020    0.5680   33.1690 C.2   100  ALA100      0.2260
     43  O        -11.7810    0.6570   32.8420 O.2   100  ALA100     -0.2867
     44  CB       -10.6310    2.0100   35.2520 C.3   100  ALA100      0.0290
     45  N        -11.9160   -3.2300   33.0530 N.3   102  LYS102     -0.1245
     46  CA       -12.3030   -4.3950   33.8350 C.3   102  LYS102      0.1561
     47  C        -12.3710   -5.5860   32.9120 C.2   102  LYS102      0.2260
     48  O        -13.0090   -5.5090   31.8640 O.2   102  LYS102     -0.2867
     49  CB       -13.6740   -4.1820   34.4680 C.3   102  LYS102      0.0271
     50  CG       -14.2800   -5.4420   35.0550 C.3   102  LYS102      0.0035
     51  CD       -15.0330   -5.1390   36.3330 C.3   102  LYS102      0.0206
     52  CE       -16.3390   -4.4420   36.0410 C.3   102  LYS102      0.1093
     53  NZ       -16.8060   -3.6710   37.2180 N.3   102  LYS102     -0.1314
     54  N        -20.5650    5.6820   36.9670 N.3   134  VAL134     -0.1245
     55  CA       -19.3110    5.6030   36.2500 C.3   134  VAL134      0.1561
     56  C        -19.6320    5.3470   34.7970 C.2   134  VAL134      0.2260
     57  O        -20.5880    4.6320   34.5260 O.2   134  VAL134     -0.2867
     58  CB       -18.4230    4.4910   36.7990 C.3   134  VAL134      0.0252
     59  CG1      -17.4280    4.0280   35.7290 C.3   134  VAL134      0.0019
     60  CG2      -17.6830    4.9800   38.0330 C.3   134  VAL134      0.0019
     61  N        -13.4790    2.1760   30.8940 N.3   150  MET150     -0.1230
     62  CA       -14.3850    3.1190   31.5340 C.3   150  MET150      0.1702
     63  C        -13.7490    4.1820   32.4300 C.2   150  MET150      0.2592
     64  O        -12.7480    3.9140   33.0930 O.2   150  MET150     -0.2718
     65  CB       -15.4220    2.3350   32.3330 C.3   150  MET150      0.0401
     66  CG       -14.8410    1.3220   33.3020 C.3   150  MET150      0.0596
     67  SD       -16.1260    0.2730   34.0030 S.3   150  MET150     -0.1393
     68  CE       -15.1460   -0.9290   34.8850 C.3   150  MET150      0.0692
     69  N        -14.3440    5.3800   32.4290 N.am  151  GLU151     -0.1966
     70  CA       -13.9610    6.4940   33.3120 C.3   151  GLU151      0.1733
     71  C        -13.1320    6.0220   34.5140 C.2   151  GLU151      0.2616
     72  O        -13.6550    5.3130   35.3800 O.2   151  GLU151     -0.2715
     73  CB       -15.2400    7.1870   33.8110 C.3   151  GLU151      0.0429
     74  CG       -15.0770    8.3710   34.7520 C.3   151  GLU151      0.1163
     75  CD       -16.3830    9.1530   34.9190 C.2   151  GLU151      0.3649
     76  OE1      -17.4320    8.6970   34.4060 O.co2 151  GLU151     -0.2457
     77  OE2      -16.3600   10.2300   35.5590 O.co2 151  GLU151     -0.2457
     78  N        -11.8460    6.3710   34.5760 N.am  152  TYR152     -0.1960
     79  CA       -11.0370    5.9860   35.7390 C.3   152  TYR152      0.1771
     80  C        -11.3420    6.8830   36.9240 C.2   152  TYR152      0.2619
     81  O        -11.6330    8.0620   36.7590 O.2   152  TYR152     -0.2715
     82  CB        -9.5500    6.0260   35.4120 C.3   152  TYR152      0.0574
     83  CG        -8.5990    6.0840   36.5990 C.ar  152  TYR152     -0.0198
     84  CD1       -8.2960    4.9490   37.3400 C.ar  152  TYR152     -0.0009
     85  CD2       -7.9630    7.2640   36.9350 C.ar  152  TYR152     -0.0009
     86  CE1       -7.4080    5.0030   38.4030 C.ar  152  TYR152      0.0417
     87  CE2       -7.0760    7.3270   37.9900 C.ar  152  TYR152      0.0417
     88  CZ        -6.7920    6.1970   38.7230 C.ar  152  TYR152      0.1957
     89  OH        -5.8960    6.2620   39.7780 O.3   152  TYR152     -0.2866
     90  N        -11.2890    6.3170   38.1210 N.am  153  MET153     -0.1977
     91  CA       -11.6520    7.0660   39.3160 C.3   153  MET153      0.1605
     92  C        -10.4800    7.1390   40.2900 C.2   153  MET153      0.2287
     93  O        -10.2960    6.2410   41.1140 O.2   153  MET153     -0.2864
     94  CB       -12.8920    6.4740   39.9780 C.3   153  MET153      0.0413
     95  CG       -14.1270    6.5970   39.1210 C.3   153  MET153      0.0598
     96  SD       -15.2810    7.7860   39.8100 S.3   153  MET153     -0.1393
     97  CE       -15.4570    8.9610   38.4700 C.3   153  MET153      0.0692
     98  N        -11.9260    3.6700   46.5200 N.3   157  ASP157     -0.1239
     99  CA       -13.1960    3.1630   47.0400 C.3   157  ASP157      0.1674
    100  C        -13.4000    3.6260   48.4650 C.2   157  ASP157      0.2266
    101  O        -12.4410    4.0010   49.1270 O.2   157  ASP157     -0.2867
    102  CB       -13.2680    1.6370   46.9540 C.3   157  ASP157      0.1410
    103  CG       -12.2970    0.9490   47.8740 C.2   157  ASP157      0.3668
    104  OD1      -12.5150   -0.2410   48.1930 O.co2 157  ASP157     -0.2456
    105  OD2      -11.3080    1.5910   48.2700 O.co2 157  ASP157     -0.2456
    106  N        -26.9600   -4.6020   45.6170 N.3   195  ASP195     -0.1239
    107  CA       -25.6380   -4.7910   46.2210 C.3   195  ASP195      0.1674
    108  C        -24.9180   -3.4970   46.5940 C.2   195  ASP195      0.2266
    109  O        -23.8500   -3.2210   46.0680 O.2   195  ASP195     -0.2867
    110  CB       -24.7370   -5.6260   45.3120 C.3   195  ASP195      0.1410
    111  CG       -23.5040   -6.1020   46.0220 C.2   195  ASP195      0.3668
    112  OD1      -22.6370   -6.7370   45.3910 O.co2 195  ASP195     -0.2456
    113  OD2      -23.4110   -5.8280   47.2310 O.co2 195  ASP195     -0.2456
    114  N        -22.6340   -1.2000   48.7970 N.3   197  LYS197     -0.1245
    115  CA       -21.5100   -1.4580   49.6880 C.3   197  LYS197      0.1561
    116  C        -20.2960   -0.5890   49.3270 C.2   197  LYS197      0.2260
    117  O        -20.0790   -0.2990   48.1560 O.2   197  LYS197     -0.2867
    118  CB       -21.1530   -2.9510   49.6620 C.3   197  LYS197      0.0271
    119  CG       -20.8630   -3.5200   48.2860 C.3   197  LYS197      0.0035
    120  CD       -20.1260   -4.8320   48.4310 C.3   197  LYS197      0.0206
    121  CE       -19.6690   -5.3800   47.1050 C.3   197  LYS197      0.1093
    122  NZ       -19.0140   -6.7040   47.2740 N.3   197  LYS197     -0.1314
    123  N        -17.2950   -1.0500   48.9400 N.3   199  ASP199     -0.1225
    124  CA       -16.5530   -1.6720   47.8620 C.3   199  ASP199      0.1805
    125  C        -16.9770   -1.1890   46.4650 C.2   199  ASP199      0.2597
    126  O        -16.1590   -1.1410   45.5420 O.2   199  ASP199     -0.2718
    127  CB       -16.7170   -3.1880   47.9730 C.3   199  ASP199      0.1424
    128  CG       -16.3890   -3.6960   49.3530 C.2   199  ASP199      0.3668
    129  OD1      -15.3540   -4.3720   49.5030 O.co2 199  ASP199     -0.2456
    130  OD2      -17.1540   -3.3960   50.2920 O.co2 199  ASP199     -0.2456
    131  N        -18.2510   -0.8460   46.3080 N.am  200  ASN200     -0.1974
    132  CA       -18.7710   -0.3760   45.0280 C.3   200  ASN200      0.1688
    133  C        -18.7820    1.1470   44.8780 C.2   200  ASN200      0.2292
    134  O        -19.0820    1.6640   43.7960 O.2   200  ASN200     -0.2864
    135  CB       -20.2020   -0.8570   44.8370 C.3   200  ASN200      0.1181
    136  CG       -20.2810   -2.2840   44.4470 C.2   200  ASN200      0.2629
    137  OD1      -19.3940   -2.7870   43.7730 O.2   200  ASN200     -0.2716
    138  ND2      -21.3440   -2.9640   44.8710 N.am  200  ASN200     -0.0877
    139  N        -17.0150    4.5110   44.4590 N.3   202  LEU202     -0.1245
    140  CA       -15.7360    5.1090   44.0830 C.3   202  LEU202      0.1561
    141  C        -15.7550    6.6390   44.1000 C.2   202  LEU202      0.2260
    142  O        -16.8360    7.2430   44.1720 O.2   202  LEU202     -0.2867
    143  CB       -15.3250    4.6300   42.7120 C.3   202  LEU202      0.0270
    144  CG       -14.9460    3.1610   42.7110 C.3   202  LEU202      0.0019
    145  CD1      -13.9430    2.8700   41.6270 C.3   202  LEU202      0.0001
    146  CD2      -14.3510    2.8180   44.0080 C.3   202  LEU202      0.0001
    147  N        -19.7280    2.0140   41.0630 N.3   212  ALA212     -0.1231
    148  CA       -18.7110    1.4870   40.1530 C.3   212  ALA212      0.1694
    149  C        -18.9270    0.0700   39.6520 C.2   212  ALA212      0.2592
    150  O        -18.2270   -0.3730   38.7450 O.2   212  ALA212     -0.2718
    151  CB       -17.3360    1.5940   40.7950 C.3   212  ALA212      0.0304
    152  N        -19.8470   -0.6760   40.2440 N.am  213  ASP213     -0.1974
    153  CA       -20.0950   -2.0260   39.7390 C.3   213  ASP213      0.1709
    154  C        -21.5840   -2.3020   39.7230 C.2   213  ASP213      0.2293
    155  O        -22.2880   -2.0000   40.6790 O.2   213  ASP213     -0.2864
    156  CB       -19.3040   -3.0750   40.5410 C.3   213  ASP213      0.1436
    157  CG       -19.6790   -4.5060   40.1900 C.2   213  ASP213      0.3671
    158  OD1      -20.8510   -4.8550   40.3830 O.co2 213  ASP213     -0.2456
    159  OD2      -18.8060   -5.2950   39.7710 O.co2 213  ASP213     -0.2456
    160  N         -5.1070    3.1030   45.8390 N.3   365  PHE365     -0.1241
    161  CA        -5.3410    1.6890   45.6170 C.3   365  PHE365      0.1605
    162  C         -4.2380    0.8130   46.2280 C.2   365  PHE365      0.2264
    163  O         -3.1800    0.6020   45.6020 O.2   365  PHE365     -0.2867
    164  CB        -5.4600    1.4050   44.1220 C.3   365  PHE365      0.0534
    165  CG        -6.6440    2.0520   43.4810 C.ar  365  PHE365     -0.0203
    166  CD1       -7.8950    1.4800   43.5750 C.ar  365  PHE365     -0.0042
    167  CD2       -6.5090    3.2300   42.7960 C.ar  365  PHE365     -0.0042
    168  CE1       -8.9910    2.0750   42.9940 C.ar  365  PHE365     -0.0003
    169  CE2       -7.5950    3.8240   42.2080 C.ar  365  PHE365     -0.0003
    170  CZ        -8.8390    3.2480   42.3070 C.ar  365  PHE365     -0.0000
@<TRIPOS>BOND
     1    61    62    1
     2    62    65    1
     3    62    63    1
     4    48    47    2
     5    65    66    1
     6    69    63   am
     7    69    70    1
     8    63    64    2
     9    43    42    2
    10    47    46    1
    11    45    46    1
    12    40    41    1
    13    42    41    1
    14    66    67    1
    15    70    73    1
    16    70    71    1
    17    73    74    1
    18    46    49    1
    19    41    44    1
    20    67    68    1
    21    76    75   ar
    22    49    50    1
    23    71    78   am
    24    71    72    2
    25    57    56    2
    26    78    79    1
    27    74    75    1
    28    56    55    1
    29    75    77   ar
    30    50    51    1
    31    82    79    1
    32    82    83    1
    33    59    58    1
    34    79    80    1
    35    52    51    1
    36    52    53    1
    37    55    58    1
    38    55    54    1
    39    83    85   ar
    40    83    84   ar
    41    81    80    2
    42    58    60    1
    43    80    90   am
    44    85    87   ar
    45    34    35    1
    46    34    33    1
    47    34    37    1
    48    35    36    2
    49    84    86   ar
    50    38    37    1
    51    39    37    1
    52    87    88   ar
    53    90    91    1
    54    86    88   ar
    55    97    96    1
    56    88    89    1
    57   150   149    2
    58    95    96    1
    59    95    94    1
    60    30    31    2
    61    30    29    1
    62    91    94    1
    63    91    92    1
    64     8     6    1
    65   149   148    1
    66   149   152   am
    67   154   153    1
    68   154   155    2
    69     1     2    1
    70   153   152    1
    71   153   156    1
    72   159   157   ar
    73     7     5    1
    74     6     5    1
    75    12    11    2
    76   148   151    1
    77   148   147    1
    78   157   158   ar
    79   157   156    1
    80    92    93    2
    81    23    21    1
    82    29    28    1
    83    29    32    1
    84     5     2    1
    85    28    26   am
    86    24    25    1
    87    24    15   am
    88    26    25    1
    89    26    27    2
    90     2     3    1
    91    11    10    1
    92    11    13   am
    93     9     3    1
    94     9    10    2
    95    20    21    2
    96    20    19    1
    97    14    15    1
    98    14    13    1
    99    14    17    1
   100    21    22    1
   101     3     4    2
   102   145   144    1
   103    15    16    2
   104    18    17    1
   105    18    19    1
   106   169   170   ar
   107   169   167   ar
   108   170   168   ar
   109   144   143    1
   110   144   146    1
   111   143   140    1
   112   167   165   ar
   113   168   166   ar
   114   165   166   ar
   115   165   164    1
   116   137   136    2
   117   134   133    2
   118   140   141    1
   119   140   139    1
   120   141   142    2
   121   164   161    1
   122   136   135    1
   123   136   138   am
   124   135   132    1
   125   133   132    1
   126   132   131    1
   127   110   111    1
   128   110   107    1
   129   112   111   ar
   130   126   125    2
   131   163   162    2
   132   161   160    1
   133   161   162    1
   134   106   107    1
   135   111   113   ar
   136   109   108    2
   137   107   108    1
   138   131   125   am
   139   125   124    1
   140    98    99    1
   141   102    99    1
   142   102   103    1
   143    99   100    1
   144   121   122    1
   145   121   120    1
   146   124   127    1
   147   124   123    1
   148   103   104   ar
   149   103   105   ar
   150   127   128    1
   151   117   116    2
   152   119   120    1
   153   119   118    1
   154   100   101    2
   155   114   115    1
   156   116   115    1
   157   128   129   ar
   158   128   130   ar
   159   118   115    1
