@<TRIPOS>MOLECULE
tmp/3nd1B00.pdb
 146 140 0 0 0
SMALL
GASTEIGER

@<TRIPOS>ATOM
      1  N         53.6390   76.1340   23.7060 N.3    12  THR12      -0.1218
      2  CA        54.6540   75.3240   23.0090 C.3    12  THR12       0.1862
      3  C         55.6470   76.0750   22.1170 C.2    12  THR12       0.2287
      4  O         56.3360   75.4640   21.2840 O.2    12  THR12      -0.2866
      5  CB        54.0200   74.1400   22.2320 C.3    12  THR12       0.1770
      6  OG1       53.4330   74.6060   21.0080 O.3    12  THR12      -0.2211
      7  CG2       52.9830   73.4760   23.0880 C.3    12  THR12       0.0375
      8  N         57.3380   75.3640   30.0490 N.3   109  TRP109     -0.1227
      9  CA        56.9110   75.1460   28.6610 C.3   109  TRP109      0.1737
     10  C         55.7230   74.1790   28.5990 C.2   109  TRP109      0.2596
     11  O         55.6570   73.2020   29.3510 O.2   109  TRP109     -0.2718
     12  CB        58.0550   74.6260   27.7870 C.3   109  TRP109      0.0564
     13  CG        59.0920   75.6650   27.4800 C.ar  109  TRP109      0.0003
     14  CD1       60.3980   75.6410   27.8640 C.ar  109  TRP109      0.0946
     15  CD2       58.9080   76.8870   26.7430 C.ar  109  TRP109      0.0152
     16  NE1       61.0460   76.7680   27.4060 N.ar  109  TRP109     -0.2442
     17  CE2       60.1560   77.5490   26.7180 C.ar  109  TRP109      0.0810
     18  CE3       57.8140   77.4840   26.0980 C.ar  109  TRP109      0.0012
     19  CZ2       60.3400   78.7820   26.0740 C.ar  109  TRP109      0.0191
     20  CZ3       57.9990   78.7140   25.4580 C.ar  109  TRP109      0.0001
     21  CH2       59.2540   79.3480   25.4550 C.ar  109  TRP109      0.0015
     22  N         54.7900   74.4680   27.6960 N.am  110  GLY110     -0.1942
     23  CA        53.5920   73.6400   27.5510 C.3   110  GLY110      0.2014
     24  C         52.6970   73.7460   28.7660 C.2   110  GLY110      0.2638
     25  O         52.3350   74.8420   29.1850 O.2   110  GLY110     -0.2714
     26  N         52.3000   72.5910   29.2860 N.am  111  ASP111     -0.1971
     27  CA        51.5260   72.5070   30.5260 C.3   111  ASP111      0.1709
     28  C         52.3850   71.8330   31.5910 C.2   111  ASP111      0.2293
     29  O         53.0850   70.8660   31.2870 O.2   111  ASP111     -0.2864
     30  CB        50.2600   71.6800   30.2990 C.3   111  ASP111      0.1436
     31  CG        49.3240   71.7220   31.4800 C.2   111  ASP111      0.3671
     32  OD1       48.4130   72.5730   31.4640 O.co2 111  ASP111     -0.2456
     33  OD2       49.4990   70.9200   32.4210 O.co2 111  ASP111     -0.2456
     34  N         52.5140   67.7750   32.1630 N.3   114  LEU114     -0.1231
     35  CA        52.8320   66.8180   31.0940 C.3   114  LEU114      0.1693
     36  C         54.3360   66.6170   30.8480 C.2   114  LEU114      0.2592
     37  O         55.0060   67.4950   30.3040 O.2   114  LEU114     -0.2718
     38  CB        52.1110   67.2330   29.8020 C.3   114  LEU114      0.0284
     39  CG        52.2790   66.3100   28.5920 C.3   114  LEU114      0.0019
     40  CD1       51.7310   64.9310   28.8680 C.3   114  LEU114      0.0001
     41  CD2       51.5930   66.9070   27.3670 C.3   114  LEU114      0.0001
     42  N         54.8540   65.4590   31.2550 N.am  115  TYR115     -0.1962
     43  CA        56.2880   65.1180   31.1110 C.3   115  TYR115      0.1771
     44  C         57.2150   66.2890   31.4340 C.2   115  TYR115      0.2619
     45  O         58.0800   66.6750   30.6360 O.2   115  TYR115     -0.2715
     46  CB        56.5940   64.5250   29.7240 C.3   115  TYR115      0.0574
     47  CG        55.8580   63.2380   29.4510 C.ar  115  TYR115     -0.0198
     48  CD1       56.0830   62.1060   30.2340 C.ar  115  TYR115     -0.0009
     49  CD2       54.9390   63.1460   28.4070 C.ar  115  TYR115     -0.0009
     50  CE1       55.3970   60.9280   30.0020 C.ar  115  TYR115      0.0417
     51  CE2       54.2570   61.9680   28.1630 C.ar  115  TYR115      0.0417
     52  CZ        54.4890   60.8640   28.9660 C.ar  115  TYR115      0.1957
     53  OH        53.8010   59.7020   28.7240 O.3   115  TYR115     -0.2866
     54  N         57.0110   66.8630   32.6120 N.am  116  ASP116     -0.1971
     55  CA        57.8200   67.9780   33.0660 C.3   116  ASP116      0.1709
     56  C         58.1190   67.8010   34.5420 C.2   116  ASP116      0.2293
     57  O         57.2300   67.4890   35.3390 O.2   116  ASP116     -0.2864
     58  CB        57.1090   69.3040   32.7940 C.3   116  ASP116      0.1436
     59  CG        57.9590   70.5090   33.1670 C.2   116  ASP116      0.3671
     60  OD1       58.6810   71.0470   32.2980 O.co2 116  ASP116     -0.2456
     61  OD2       57.9140   70.9100   34.3460 O.co2 116  ASP116     -0.2456
     62  N         49.5630   72.3210   25.4530 N.3   140  THR140     -0.1203
     63  CA        50.5180   71.2140   25.3460 C.3   140  THR140      0.1994
     64  C         50.9370   70.9710   23.9060 C.2   140  THR140      0.2617
     65  O         50.2510   71.3850   22.9630 O.2   140  THR140     -0.2717
     66  CB        49.9480   69.8700   25.8420 C.3   140  THR140      0.1784
     67  OG1       48.9190   69.4380   24.9490 O.3   140  THR140     -0.2211
     68  CG2       49.4000   69.9750   27.2620 C.3   140  THR140      0.0376
     69  N         52.0410   70.2520   23.7450 N.am  141  ALA141     -0.1979
     70  CA        52.5180   69.8990   22.4170 C.3   141  ALA141      0.1597
     71  C         51.5380   68.9560   21.7240 C.2   141  ALA141      0.2287
     72  O         51.4490   68.9580   20.4950 O.2   141  ALA141     -0.2864
     73  CB        53.8970   69.2800   22.4870 C.3   141  ALA141      0.0319
     74  N         55.7680   61.2310   23.0240 N.3   183  MET183     -0.1230
     75  CA        56.5410   62.3980   23.4410 C.3   183  MET183      0.1702
     76  C         57.9170   61.9580   23.9280 C.2   183  MET183      0.2592
     77  O         58.1630   60.7660   24.0830 O.2   183  MET183     -0.2718
     78  CB        55.7860   63.1300   24.5410 C.3   183  MET183      0.0401
     79  CG        54.4150   63.6030   24.0610 C.3   183  MET183      0.0596
     80  SD        53.5420   64.6150   25.2240 S.3   183  MET183     -0.1393
     81  CE        54.6510   66.0050   25.3890 C.3   183  MET183      0.0692
     82  N         58.8120   62.9250   24.1440 N.am  184  LEU184     -0.1966
     83  CA        60.1630   62.6580   24.6720 C.3   184  LEU184      0.1728
     84  C         60.9410   61.6870   23.7920 C.2   184  LEU184      0.2616
     85  O         61.7930   60.9390   24.2750 O.2   184  LEU184     -0.2715
     86  CB        60.1120   62.1190   26.1130 C.3   184  LEU184      0.0311
     87  CG        59.6120   63.0570   27.2110 C.3   184  LEU184      0.0022
     88  CD1       59.5600   62.3240   28.5510 C.3   184  LEU184      0.0001
     89  CD2       60.4810   64.2940   27.2940 C.3   184  LEU184      0.0001
     90  N         60.6330   61.6830   22.5050 N.am  185  ASP185     -0.1971
     91  CA        61.2540   60.7480   21.5940 C.3   185  ASP185      0.1709
     92  C         62.3570   61.4430   20.8150 C.2   185  ASP185      0.2293
     93  O         62.0970   62.3540   20.0280 O.2   185  ASP185     -0.2864
     94  CB        60.2040   60.1620   20.6500 C.3   185  ASP185      0.1436
     95  CG        60.7230   58.9800   19.8540 C.2   185  ASP185      0.3671
     96  OD1       61.8960   58.5810   20.0300 O.co2 185  ASP185     -0.2456
     97  OD2       59.9340   58.4520   19.0520 O.co2 185  ASP185     -0.2456
     98  N         55.1100   66.1870   13.6920 N.3   203  GLY203     -0.1225
     99  CA        55.4580   67.5980   13.6760 C.3   203  GLY203      0.1811
    100  C         56.7090   67.8750   14.4700 C.2   203  GLY203      0.2280
    101  O         56.9150   67.3150   15.5500 O.2   203  GLY203     -0.2866
    102  N         59.0640   71.2090   15.9440 N.3   205  CYS205     -0.1221
    103  CA        59.0070   72.6520   16.2330 C.3   205  CYS205      0.1808
    104  C         57.6150   73.2220   15.9660 C.2   205  CYS205      0.2601
    105  O         57.4440   74.2820   15.3540 O.2   205  CYS205     -0.2717
    106  CB        60.0850   73.3960   15.4490 C.3   205  CYS205      0.0970
    107  SG        61.7380   72.8150   15.8830 S.3   205  CYS205     -0.0800
    108  N         56.6180   72.4760   16.4250 N.am  206  VAL206     -0.1979
    109  CA        55.2220   72.8190   16.2190 C.3   206  VAL206      0.1595
    110  C         54.9010   74.1710   16.8660 C.2   206  VAL206      0.2287
    111  O         55.3540   74.4640   17.9880 O.2   206  VAL206     -0.2864
    112  CB        54.2960   71.6950   16.7630 C.3   206  VAL206      0.0276
    113  CG1       52.8220   72.0140   16.5100 C.3   206  VAL206      0.0022
    114  CG2       54.6660   70.3420   16.1220 C.3   206  VAL206      0.0022
    115  N         55.9690   76.9850   16.0400 N.3   208  MET208     -0.1245
    116  CA        57.0900   77.9070   15.9290 C.3   208  MET208      0.1570
    117  C         57.3710   78.1950   14.4610 C.2   208  MET208      0.2261
    118  O         56.8580   77.4920   13.5970 O.2   208  MET208     -0.2867
    119  CB        58.2980   77.3350   16.6540 C.3   208  MET208      0.0387
    120  CG        58.0150   77.2320   18.1450 C.3   208  MET208      0.0595
    121  SD        59.4690   77.0720   19.1530 S.3   208  MET208     -0.1393
    122  CE        59.9990   75.5010   18.5400 C.3   208  MET208      0.0692
    123  N         62.7850   69.3970   18.5650 N.3   240  MET240     -0.1230
    124  CA        61.7790   68.7040   19.3680 C.3   240  MET240      0.1702
    125  C         60.6770   68.2730   18.4240 C.2   240  MET240      0.2592
    126  O         60.1730   69.0830   17.6430 O.2   240  MET240     -0.2718
    127  CB        61.2020   69.6000   20.4710 C.3   240  MET240      0.0401
    128  CG        62.1450   69.8310   21.6520 C.3   240  MET240      0.0596
    129  SD        61.3140   70.5970   23.0730 S.3   240  MET240     -0.1393
    130  CE        60.8660   72.1970   22.4030 C.3   240  MET240      0.0692
    131  N         60.3190   66.9970   18.4810 N.am  241  ASP241     -0.1960
    132  CA        59.2230   66.5000   17.6630 C.3   241  ASP241      0.1840
    133  C         58.2330   65.6850   18.4740 C.2   241  ASP241      0.2621
    134  O         58.5340   65.2210   19.5830 O.2   241  ASP241     -0.2715
    135  CB        59.7220   65.7260   16.4290 C.3   241  ASP241      0.1450
    136  CG        60.5360   64.4910   16.7860 C.2   241  ASP241      0.3671
    137  OD1       61.1440   64.4410   17.8740 O.co2 241  ASP241     -0.2456
    138  OD2       60.5870   63.5670   15.9450 O.co2 241  ASP241     -0.2456
    139  N         57.0480   65.5380   17.9040 N.am  242  ILE242     -0.1977
    140  CA        55.9530   64.8090   18.5220 C.3   242  ILE242      0.1596
    141  C         55.1350   64.2160   17.3840 C.2   242  ILE242      0.2287
    142  O         55.1260   64.7540   16.2710 O.2   242  ILE242     -0.2864
    143  CB        55.0840   65.7390   19.4350 C.3   242  ILE242      0.0276
    144  CG1       54.0490   64.9170   20.2140 C.3   242  ILE242      0.0022
    145  CG2       54.4250   66.8670   18.6220 C.3   242  ILE242      0.0022
    146  CD1       53.2820   65.7050   21.2930 C.3   242  ILE242      0.0001
@<TRIPOS>BOND
     1   118   117    2
     2    99    98    1
     3    99   100    1
     4   117   116    1
     5   100   101    2
     6   105   104    2
     7   106   107    1
     8   106   103    1
     9   116   115    1
    10   116   119    1
    11   102   103    1
    12   138   136   ar
    13   104   103    1
    14   104   108   am
    15   114   112    1
    16   109   108    1
    17   109   112    1
    18   109   110    1
    19   142   141    2
    20   135   136    1
    21   135   132    1
    22   113   112    1
    23   119   120    1
    24   136   137   ar
    25   110   111    2
    26   141   140    1
    27   126   125    2
    28   132   133    1
    29   132   131    1
    30   139   133   am
    31   139   140    1
    32   120   121    1
    33   125   131   am
    34   125   124    1
    35   133   134    2
    36   140   143    1
    37   122   121    1
    38   123   124    1
    39   145   143    1
    40    97    95   ar
    41   124   127    1
    42   143   144    1
    43    95    96   ar
    44    95    94    1
    45    93    92    2
    46   144   146    1
    47   127   128    1
    48    72    71    2
    49    94    91    1
    50    92    91    1
    51     6     5    1
    52     4     3    2
    53    91    90    1
    54   128   129    1
    55    71    70    1
    56     3     2    1
    57     5     2    1
    58     5     7    1
    59   130   129    1
    60    70    73    1
    61    70    69    1
    62    90    84   am
    63    65    64    2
    64     2     1    1
    65    74    75    1
    66    75    76    1
    67    75    78    1
    68    69    64   am
    69    84    85    2
    70    84    83    1
    71    64    63    1
    72    76    77    2
    73    76    82   am
    74    79    78    1
    75    79    80    1
    76    82    83    1
    77    83    86    1
    78    67    66    1
    79    80    81    1
    80    63    62    1
    81    63    66    1
    82    21    20   ar
    83    21    19   ar
    84    20    18   ar
    85    66    68    1
    86    19    17   ar
    87    18    15   ar
    88    86    87    1
    89    17    15   ar
    90    17    16   ar
    91    15    13   ar
    92    87    89    1
    93    87    88    1
    94    41    39    1
    95    16    14   ar
    96    13    12    1
    97    13    14   ar
    98    23    22    1
    99    23    24    1
   100    22    10   am
   101    12     9    1
   102    51    49   ar
   103    51    52   ar
   104    49    47   ar
   105    39    40    1
   106    39    38    1
   107    10     9    1
   108    10    11    2
   109     9     8    1
   110    53    52    1
   111    24    25    2
   112    24    26   am
   113    52    50   ar
   114    26    27    1
   115    47    46    1
   116    47    48   ar
   117    46    43    1
   118    38    35    1
   119    50    48   ar
   120    30    27    1
   121    30    31    1
   122    37    36    2
   123    27    28    1
   124    45    44    2
   125    36    35    1
   126    36    42   am
   127    35    34    1
   128    43    42    1
   129    43    44    1
   130    29    28    2
   131    44    54   am
   132    32    31   ar
   133    31    33   ar
   134    60    59   ar
   135    54    55    1
   136    58    55    1
   137    58    59    1
   138    55    56    1
   139    59    61   ar
   140    56    57    2
