@<TRIPOS>MOLECULE
tmp/3nd6C00.pdb
 199 193 0 0 0
SMALL
GASTEIGER

@<TRIPOS>ATOM
      1  N        -32.1070  -21.7420    1.0700 N.3     7  PHE7       -0.1228
      2  CA       -31.7020  -20.8590    2.1650 C.3     7  PHE7        0.1721
      3  C        -31.9780  -21.5480    3.4920 C.2     7  PHE7        0.2437
      4  O        -33.0400  -21.3560    4.0760 O.2     7  PHE7       -0.2733
      5  CB       -32.4450  -19.5090    2.0920 C.3     7  PHE7        0.0547
      6  CG       -32.0340  -18.5130    3.1640 C.ar    7  PHE7       -0.0202
      7  CD1      -30.7110  -18.3930    3.5550 C.ar    7  PHE7       -0.0042
      8  CD2      -32.9670  -17.6770    3.7430 C.ar    7  PHE7       -0.0042
      9  CE1      -30.3370  -17.4710    4.5240 C.ar    7  PHE7       -0.0003
     10  CE2      -32.5970  -16.7570    4.7210 C.ar    7  PHE7       -0.0003
     11  CZ       -31.2850  -16.6590    5.1100 C.ar    7  PHE7       -0.0000
     12  N        -31.0230  -22.3690    3.9590 N.am    8  PRO8       -0.2718
     13  CA       -31.1810  -23.1580    5.1870 C.3     8  PRO8        0.1535
     14  C        -31.0750  -22.2410    6.3980 C.2     8  PRO8        0.2599
     15  O        -30.3170  -21.2730    6.3560 O.2     8  PRO8       -0.2715
     16  CB       -29.9690  -24.1010    5.1770 C.3     8  PRO8        0.0310
     17  CG       -29.2180  -23.8240    3.9130 C.3     8  PRO8        0.0237
     18  CD       -29.6810  -22.5160    3.3660 C.3     8  PRO8        0.0939
     19  N        -31.8230  -22.5450    7.4530 N.am    9  GLY9       -0.1941
     20  CA       -31.7870  -21.7730    8.6790 C.3     9  GLY9        0.2014
     21  C        -32.7440  -22.3440    9.7040 C.2     9  GLY9        0.2640
     22  O        -33.4990  -23.2660    9.4010 O.2     9  GLY9       -0.2714
     23  N        -32.7080  -21.7960   10.9160 N.am   10  SER10      -0.1935
     24  CA       -33.5670  -22.2540   12.0010 C.3    10  SER10       0.2055
     25  C        -34.8610  -21.4600   12.0190 C.2    10  SER10       0.2643
     26  O        -35.9370  -22.0080   12.2690 O.2    10  SER10      -0.2714
     27  CB       -32.8550  -22.0990   13.3500 C.3    10  SER10       0.2130
     28  OG       -31.5520  -22.6520   13.3060 O.3    10  SER10      -0.2179
     29  N        -34.7320  -20.1570   11.7800 N.am   11  PHE11      -0.1959
     30  CA       -35.8670  -19.2430   11.7250 C.3    11  PHE11       0.1771
     31  C        -36.8250  -19.3370   12.9170 C.2    11  PHE11       0.2619
     32  O        -38.0400  -19.3930   12.7330 O.2    11  PHE11      -0.2715
     33  CB       -36.6300  -19.4100   10.4010 C.3    11  PHE11       0.0574
     34  CG       -35.7450  -19.3870    9.1850 C.ar   11  PHE11      -0.0200
     35  CD1      -35.4740  -20.5520    8.4840 C.ar   11  PHE11      -0.0042
     36  CD2      -35.1640  -18.2030    8.7570 C.ar   11  PHE11      -0.0042
     37  CE1      -34.6520  -20.5380    7.3730 C.ar   11  PHE11      -0.0003
     38  CE2      -34.3400  -18.1760    7.6580 C.ar   11  PHE11      -0.0003
     39  CZ       -34.0810  -19.3410    6.9570 C.ar   11  PHE11      -0.0000
     40  N        -36.2830  -19.3520   14.1340 N.am   12  ASP12      -0.1971
     41  CA       -37.1180  -19.2120   15.3290 C.3    12  ASP12       0.1709
     42  C        -36.6860  -18.0140   16.1710 C.2    12  ASP12       0.2293
     43  O        -35.8540  -18.1420   17.0660 O.2    12  ASP12      -0.2864
     44  CB       -37.1740  -20.5050   16.1760 C.3    12  ASP12       0.1436
     45  CG       -35.8660  -20.7980   16.9100 C.2    12  ASP12       0.3671
     46  OD1      -35.9120  -21.3200   18.0560 O.co2  12  ASP12      -0.2456
     47  OD2      -34.7920  -20.5040   16.3360 O.co2  12  ASP12      -0.2456
     48  N        -36.2930  -13.1950   11.2320 N.3    15  THR15      -0.1218
     49  CA       -36.1760  -11.7660   11.4860 C.3    15  THR15       0.1862
     50  C        -36.2040  -10.9940   10.1710 C.2    15  THR15       0.2287
     51  O        -36.1420  -11.5830    9.0910 O.2    15  THR15      -0.2866
     52  CB       -34.8440  -11.4250   12.1740 C.3    15  THR15       0.1770
     53  OG1      -33.7950  -11.4140   11.1920 O.3    15  THR15      -0.2211
     54  CG2      -34.5120  -12.4490   13.2550 C.3    15  THR15       0.0375
     55  N        -33.7810   -9.5740    9.2820 N.3    17  GLY17      -0.1210
     56  CA       -32.4770   -9.9330    8.7570 C.3    17  GLY17       0.1956
     57  C        -32.5820  -11.0280    7.7010 C.2    17  GLY17       0.2611
     58  O        -32.0330  -10.9040    6.6050 O.2    17  GLY17      -0.2717
     59  N        -33.2800  -12.1090    8.0430 N.am   18  HIS18      -0.1975
     60  CA       -33.5510  -13.1840    7.1020 C.3    18  HIS18       0.1656
     61  C        -34.3160  -12.6470    5.9060 C.2    18  HIS18       0.2291
     62  O        -33.9310  -12.8730    4.7620 O.2    18  HIS18      -0.2864
     63  CB       -34.3950  -14.2810    7.7530 C.3    18  HIS18       0.0771
     64  CG       -33.7470  -14.9300    8.9290 C.ar   18  HIS18       0.0820
     65  ND1      -34.2900  -14.8830   10.1930 N.ar   18  HIS18      -0.2267
     66  CD2      -32.5980  -15.6390    9.0370 C.ar   18  HIS18       0.1154
     67  CE1      -33.5100  -15.5470   11.0270 C.ar   18  HIS18       0.1986
     68  NE2      -32.4750  -16.0120   10.3510 N.ar   18  HIS18      -0.2212
     69  N        -34.4890   -9.7810    4.6860 N.3    20  ASN20      -0.1225
     70  CA       -33.5980   -8.9820    3.8580 C.3    20  ASN20       0.1785
     71  C        -32.7820   -9.8410    2.8970 C.2    20  ASN20       0.2597
     72  O        -32.6240   -9.4830    1.7360 O.2    20  ASN20      -0.2718
     73  CB       -32.6760   -8.1070    4.7120 C.3    20  ASN20       0.1169
     74  CG       -31.6730   -7.3400    3.8780 C.2    20  ASN20       0.2627
     75  OD1      -30.5200   -7.7400    3.7530 O.2    20  ASN20      -0.2716
     76  ND2      -32.1170   -6.2450    3.2790 N.am   20  ASN20      -0.0877
     77  N        -32.2620  -10.9710    3.3700 N.am   21  LEU21      -0.1980
     78  CA       -31.4720  -11.8280    2.4960 C.3    21  LEU21       0.1596
     79  C        -32.3620  -12.4720    1.4350 C.2    21  LEU21       0.2287
     80  O        -31.9210  -12.7150    0.3200 O.2    21  LEU21      -0.2864
     81  CB       -30.7530  -12.9300    3.2800 C.3    21  LEU21       0.0297
     82  CG       -29.6310  -12.5410    4.2420 C.3    21  LEU21       0.0022
     83  CD1      -29.1290  -13.7730    4.9820 C.3    21  LEU21       0.0001
     84  CD2      -28.4900  -11.8710    3.5050 C.3    21  LEU21       0.0001
     85  N        -26.0910  -17.9730    1.9510 N.3    83  ARG83      -0.1231
     86  CA       -25.8300  -17.6440    3.3620 C.3    83  ARG83       0.1694
     87  C        -25.6260  -16.1500    3.5440 C.2    83  ARG83       0.2592
     88  O        -25.2760  -15.4470    2.6010 O.2    83  ARG83      -0.2718
     89  CB       -24.5700  -18.3450    3.9170 C.3    83  ARG83       0.0321
     90  CG       -24.3040  -19.7670    3.4940 C.3    83  ARG83       0.0489
     91  CD       -25.4520  -20.6530    3.7970 C.3    83  ARG83       0.2205
     92  NE       -25.6180  -20.9120    5.2170 N.pl3  83  ARG83      -0.0865
     93  CZ       -26.7670  -20.7500    5.8550 C.cat  83  ARG83       0.5346
     94  NH1      -27.8310  -20.2980    5.1870 N.pl3  83  ARG83       0.1354
     95  NH2      -26.8550  -21.0240    7.1550 N.pl3  83  ARG83       0.1354
     96  N        -25.8060  -15.6900    4.7810 N.am   84  GLY84      -0.1957
     97  CA       -25.4940  -14.3300    5.1680 C.3    84  GLY84       0.1869
     98  C        -24.3200  -14.2750    6.1370 C.2    84  GLY84       0.2309
     99  O        -24.1010  -15.1960    6.9360 O.2    84  GLY84      -0.2863
    100  N        -22.8430  -11.5960    8.9670 N.3    86  ARG86      -0.1245
    101  CA       -23.0340  -10.3600    9.7110 C.3    86  ARG86       0.1563
    102  C        -21.6990   -9.8340   10.2270 C.2    86  ARG86       0.2260
    103  O        -21.5610   -8.6470   10.4500 O.2    86  ARG86      -0.2867
    104  CB       -23.9740  -10.5660   10.9070 C.3    86  ARG86       0.0307
    105  CG       -25.4050  -10.8870   10.5530 C.3    86  ARG86       0.0489
    106  CD       -26.0850  -11.6230   11.7140 C.3    86  ARG86       0.2205
    107  NE       -25.2100  -12.6000   12.3770 N.pl3  86  ARG86      -0.0865
    108  CZ       -24.5910  -12.4030   13.5600 C.cat  86  ARG86       0.5346
    109  NH1      -24.7480  -11.2450   14.2380 N.pl3  86  ARG86       0.1354
    110  NH2      -23.8070  -13.3650   14.0860 N.pl3  86  ARG86       0.1354
    111  N        -19.5370  -14.9950   11.9870 N.3    90  ASP90      -0.1239
    112  CA       -20.3510  -15.6330   10.9380 C.3    90  ASP90       0.1674
    113  C        -19.4560  -16.1060    9.8160 C.2    90  ASP90       0.2266
    114  O        -19.5860  -17.2130    9.3330 O.2    90  ASP90      -0.2867
    115  CB       -21.3480  -14.6550   10.3220 C.3    90  ASP90       0.1410
    116  CG       -22.5980  -14.4570   11.1620 C.2    90  ASP90       0.3668
    117  OD1      -22.8300  -15.2140   12.1200 O.co2  90  ASP90      -0.2456
    118  OD2      -23.3710  -13.5330   10.8320 O.co2  90  ASP90      -0.2456
    119  N        -17.4620  -19.2900   10.7070 N.3    93  TYR93      -0.1227
    120  CA       -18.3970  -20.3720   10.8910 C.3    93  TYR93       0.1736
    121  C        -18.9520  -20.8390    9.5210 C.2    93  TYR93       0.2595
    122  O        -18.9200  -22.0330    9.2060 O.2    93  TYR93      -0.2718
    123  CB       -19.5190  -19.8960   11.8140 C.3    93  TYR93       0.0548
    124  CG       -20.6860  -20.8390   11.9190 C.ar   93  TYR93      -0.0200
    125  CD1      -20.6100  -21.9850   12.6930 C.ar   93  TYR93      -0.0009
    126  CD2      -21.8770  -20.5710   11.2490 C.ar   93  TYR93      -0.0009
    127  CE1      -21.6800  -22.8480   12.7920 C.ar   93  TYR93       0.0417
    128  CE2      -22.9580  -21.4280   11.3420 C.ar   93  TYR93       0.0417
    129  CZ       -22.8540  -22.5640   12.1160 C.ar   93  TYR93       0.1957
    130  OH       -23.9280  -23.4130   12.2180 O.3    93  TYR93      -0.2866
    131  N        -19.4230  -19.8990    8.6990 N.am   94  GLU94      -0.1979
    132  CA       -19.9730  -20.2470    7.3820 C.3    94  GLU94       0.1602
    133  C        -18.8810  -20.7730    6.4510 C.2    94  GLU94       0.2287
    134  O        -19.1480  -21.6160    5.5880 O.2    94  GLU94      -0.2864
    135  CB       -20.7050  -19.0560    6.7410 C.3    94  GLU94       0.0415
    136  CG       -21.9330  -18.5690    7.5160 C.3    94  GLU94       0.1163
    137  CD       -23.1100  -19.5420    7.4530 C.2    94  GLU94       0.3649
    138  OE1      -22.9860  -20.5760    6.7630 O.co2  94  GLU94      -0.2457
    139  OE2      -24.1530  -19.2820    8.1050 O.co2  94  GLU94      -0.2457
    140  N        -24.6980   -8.8970    5.5690 N.3   115  ALA115     -0.1231
    141  CA       -25.8490   -8.2580    6.2150 C.3   115  ALA115      0.1694
    142  C        -25.8870   -6.7800    5.8520 C.2   115  ALA115      0.2591
    143  O        -24.8490   -6.1330    5.7360 O.2   115  ALA115     -0.2718
    144  CB       -25.7640   -8.4030    7.7080 C.3   115  ALA115      0.0304
    145  N        -27.0690   -6.2190    5.6630 N.am  116  GLU116     -0.1979
    146  CA       -27.0610   -4.7840    5.4890 C.3   116  GLU116      0.1602
    147  C        -27.2360   -4.0800    6.8240 C.2   116  GLU116      0.2287
    148  O        -27.9200   -4.5750    7.7190 O.2   116  GLU116     -0.2864
    149  CB       -27.9830   -4.2800    4.3700 C.3   116  GLU116      0.0415
    150  CG       -29.4650   -4.4750    4.5400 C.3   116  GLU116      0.1163
    151  CD       -30.2260   -3.7440    3.4430 C.2   116  GLU116      0.3649
    152  OE1      -30.2740   -4.2400    2.2810 O.co2 116  GLU116     -0.2457
    153  OE2      -30.7490   -2.6490    3.7470 O.co2 116  GLU116     -0.2457
    154  N        -29.4280   -4.4150   10.1130 N.3   119  TYR119     -0.1241
    155  CA       -29.6790   -5.7070   10.7350 C.3   119  TYR119      0.1605
    156  C        -28.4330   -6.5170   11.0660 C.2   119  TYR119      0.2264
    157  O        -28.5360   -7.7000   11.3660 O.2   119  TYR119     -0.2867
    158  CB       -30.5790   -6.5500    9.8280 C.3   119  TYR119      0.0534
    159  CG       -31.8410   -5.8470    9.4190 C.ar  119  TYR119     -0.0201
    160  CD1      -32.7600   -5.4310   10.3720 C.ar  119  TYR119     -0.0009
    161  CD2      -32.1190   -5.5970    8.0800 C.ar  119  TYR119     -0.0009
    162  CE1      -33.9270   -4.7740   10.0050 C.ar  119  TYR119      0.0417
    163  CE2      -33.2810   -4.9390    7.7030 C.ar  119  TYR119      0.0417
    164  CZ       -34.1810   -4.5350    8.6670 C.ar  119  TYR119      0.1957
    165  OH       -35.3320   -3.8800    8.2980 O.3   119  TYR119     -0.2866
    166  N        -28.4830   -8.1280   14.3560 N.3   122  VAL122     -0.1231
    167  CA       -29.7050   -8.8550   14.6620 C.3   122  VAL122      0.1692
    168  C        -29.5390  -10.3560   14.4700 C.2   122  VAL122      0.2593
    169  O        -29.0800  -10.8150   13.4200 O.2   122  VAL122     -0.2718
    170  CB       -30.8710   -8.3690   13.7840 C.3   122  VAL122      0.0266
    171  CG1      -32.0660   -9.3340   13.8740 C.3   122  VAL122      0.0020
    172  CG2      -31.2640   -6.9600   14.1730 C.3   122  VAL122      0.0020
    173  N        -29.9160  -11.1060   15.4950 N.am  123  SER123     -0.1938
    174  CA       -30.0490  -12.5540   15.3990 C.3   123  SER123      0.2055
    175  C        -31.2960  -12.9770   16.1670 C.2   123  SER123      0.2644
    176  O        -31.7430  -12.2750   17.0850 O.2   123  SER123     -0.2714
    177  CB       -28.8150  -13.2530   15.9760 C.3   123  SER123      0.2130
    178  OG       -28.5310  -12.7790   17.2860 O.3   123  SER123     -0.2179
    179  N        -31.8590  -14.1200   15.7930 N.am  124  SER124     -0.1935
    180  CA       -33.0370  -14.6430   16.4840 C.3   124  SER124      0.2055
    181  C        -32.8240  -14.6820   17.9910 C.2   124  SER124      0.2643
    182  O        -33.6910  -14.2650   18.7580 O.2   124  SER124     -0.2714
    183  CB       -33.3870  -16.0520   15.9900 C.3   124  SER124      0.2130
    184  OG       -33.7920  -16.0400   14.6390 O.3   124  SER124     -0.2179
    185  N        -31.6710  -15.1890   18.4120 N.am  125  SER125     -0.1949
    186  CA       -31.4120  -15.3860   19.8390 C.3   125  SER125      0.1924
    187  C        -31.2300  -14.0760   20.6120 C.2   125  SER125      0.2314
    188  O        -31.7720  -13.9280   21.7080 O.2   125  SER125     -0.2863
    189  CB       -30.2100  -16.3020   20.0500 C.3   125  SER125      0.2116
    190  OG       -29.0150  -15.5450   20.0670 O.3   125  SER125     -0.2180
    191  N        -34.6060  -12.8620   21.0350 N.3   128  LYS128     -0.1245
    192  CA       -35.3840  -13.5690   22.0390 C.3   128  LYS128      0.1561
    193  C        -35.0090  -13.1000   23.4420 C.2   128  LYS128      0.2260
    194  O        -35.8850  -12.7540   24.2360 O.2   128  LYS128     -0.2867
    195  CB       -35.2680  -15.0910   21.8690 C.3   128  LYS128      0.0271
    196  CG       -36.2330  -15.6320   20.8030 C.3   128  LYS128      0.0035
    197  CD       -36.0650  -17.1250   20.5300 C.3   128  LYS128      0.0206
    198  CE       -34.6520  -17.4610   20.1120 C.3   128  LYS128      0.1093
    199  NZ       -34.5170  -18.9110   19.7960 N.3   128  LYS128     -0.1314
@<TRIPOS>BOND
     1    80    79    2
     2     1     2    1
     3    79    78    1
     4    72    71    2
     5    85    86    1
     6     5     2    1
     7     5     6    1
     8     2     3    1
     9   152   151   ar
    10    78    81    1
    11    78    77    1
    12    88    87    2
    13    71    77   am
    14    71    70    1
    15     6     7   ar
    16     6     8   ar
    17    76    74   am
    18    81    82    1
    19    86    87    1
    20    86    89    1
    21    18    17    1
    22    18    12    1
    23   151   153   ar
    24   151   150    1
    25     3    12   am
    26     3     4    2
    27    90    91    1
    28    90    89    1
    29    84    82    1
    30    87    96   am
    31     7     9   ar
    32     8    10   ar
    33    75    74    2
    34    91    92    1
    35    70    69    1
    36    70    73    1
    37    74    73    1
    38    17    16    1
    39    12    13    1
    40    82    83    1
    41   149   150    1
    42   149   146    1
    43     9    11   ar
    44    10    11   ar
    45    62    61    2
    46    96    97    1
    47    97    98    1
    48    16    13    1
    49    13    14    1
    50    94    93    1
    51    92    93    2
    52   146   145    1
    53   146   147    1
    54   140   141    1
    55   134   133    2
    56   145   142   am
    57   143   142    2
    58   142   141    1
    59    93    95    1
    60    61    60    1
    61    98    99    2
    62   141   144    1
    63    15    14    2
    64    14    19   am
    65   133   132    1
    66    58    57    2
    67   135   132    1
    68   135   136    1
    69   138   137   ar
    70   147   148    2
    71    39    37   ar
    72    39    38   ar
    73    60    63    1
    74    60    59    1
    75    37    35   ar
    76   132   131    1
    77   137   136    1
    78   137   139   ar
    79    19    20    1
    80    38    36   ar
    81    57    59   am
    82    57    56    1
    83   163   161   ar
    84   163   164   ar
    85    63    64    1
    86   161   159   ar
    87   165   164    1
    88    35    34   ar
    89   164   162   ar
    90    20    21    1
    91   131   121   am
    92    36    34   ar
    93    56    55    1
    94    64    66   ar
    95    64    65   ar
    96   100   101    1
    97    66    68   ar
    98    51    50    2
    99    34    33    1
   100   122   121    2
   101   114   113    2
   102    22    21    2
   103   159   158    1
   104   159   160   ar
   105   121   120    1
   106    21    23   am
   107   101   102    1
   108   101   104    1
   109   113   112    1
   110   158   155    1
   111   162   160   ar
   112   154   155    1
   113    50    49    1
   114    65    67   ar
   115   102   103    2
   116   115   112    1
   117   115   116    1
   118    68    67   ar
   119    33    30    1
   120   105   104    1
   121   105   106    1
   122   119   120    1
   123   155   156    1
   124   118   116   ar
   125   120   123    1
   126    23    24    1
   127   112   111    1
   128   156   157    2
   129   116   117   ar
   130    53    52    1
   131    48    49    1
   132   126   128   ar
   133   126   124   ar
   134   128   129   ar
   135    49    52    1
   136   106   107    1
   137    30    29    1
   138    30    31    1
   139    29    25   am
   140   123   124    1
   141   124   125   ar
   142    24    25    1
   143    24    27    1
   144    25    26    2
   145   129   130    1
   146   129   127   ar
   147    52    54    1
   148   107   108    2
   149   125   127   ar
   150    32    31    2
   151    31    40   am
   152    28    27    1
   153   169   168    2
   154   108   110    1
   155   108   109    1
   156   170   171    1
   157   170   172    1
   158   170   167    1
   159    40    41    1
   160   166   167    1
   161   168   167    1
   162   168   173   am
   163   184   183    1
   164    41    42    1
   165    41    44    1
   166   174   173    1
   167   174   177    1
   168   174   175    1
   169   179   175   am
   170   179   180    1
   171   177   178    1
   172   183   180    1
   173   175   176    2
   174    42    43    2
   175    44    45    1
   176    47    45   ar
   177   180   181    1
   178    45    46   ar
   179   181   185   am
   180   181   182    2
   181   185   186    1
   182   199   198    1
   183   186   189    1
   184   186   187    1
   185   189   190    1
   186   198   197    1
   187   197   196    1
   188   187   188    2
   189   196   195    1
   190   191   192    1
   191   195   192    1
   192   192   193    1
   193   193   194    2
