@<TRIPOS>MOLECULE
tmp/3nd7F00.pdb
 123 118 0 0 0
SMALL
GASTEIGER

@<TRIPOS>ATOM
      1  N        -14.0550   16.8790   10.9080 N.3     8  PRO8       -0.2102
      2  CA       -14.3730   15.7850   10.0140 C.3     8  PRO8        0.1504
      3  C        -13.7750   14.5000   10.5980 C.2     8  PRO8        0.2576
      4  O        -12.8050   14.5730   11.3230 O.2     8  PRO8       -0.2718
      5  CB       -13.6230   16.1620    8.7070 C.3     8  PRO8        0.0282
      6  CG       -12.4950   16.8780    9.1250 C.3     8  PRO8        0.0208
      7  CD       -12.9020   17.6410   10.4150 C.3     8  PRO8        0.0893
      8  N        -14.3480   13.3510   10.2780 N.am    9  GLY9       -0.1943
      9  CA       -13.6940   12.0470   10.5090 C.3     9  GLY9        0.2014
     10  C        -14.7050   10.9460   10.2750 C.2     9  GLY9        0.2639
     11  O        -15.9060   11.2410   10.1570 O.2     9  GLY9       -0.2714
     12  N        -14.2430    9.6960   10.2110 N.am   10  SER10      -0.1949
     13  CA       -15.1720    8.5510   10.0390 C.3    10  SER10       0.1924
     14  C        -15.8160    8.0290   11.3270 C.2    10  SER10       0.2314
     15  O        -16.8890    7.4110   11.2740 O.2    10  SER10      -0.2863
     16  CB       -14.5250    7.4160    9.2420 C.3    10  SER10       0.2116
     17  OG       -13.1440    7.5410    9.3690 O.3    10  SER10      -0.2180
     18  N        -18.2880   11.2790    7.6110 N.3    37  PHE37      -0.1241
     19  CA       -18.1300   10.9250    6.2160 C.3    37  PHE37       0.1605
     20  C        -18.2550    9.4030    6.0470 C.2    37  PHE37       0.2264
     21  O        -17.4640    8.6430    6.6410 O.2    37  PHE37      -0.2867
     22  CB       -16.7830   11.4750    5.6780 C.3    37  PHE37       0.0534
     23  CG       -16.7210   12.9940    5.6410 C.ar   37  PHE37      -0.0203
     24  CD1      -16.7930   13.6850    4.4250 C.ar   37  PHE37      -0.0042
     25  CD2      -16.6500   13.7510    6.8400 C.ar   37  PHE37      -0.0042
     26  CE1      -16.7530   15.1250    4.3950 C.ar   37  PHE37      -0.0003
     27  CE2      -16.6240   15.1740    6.8180 C.ar   37  PHE37      -0.0003
     28  CZ       -16.6650   15.8600    5.5950 C.ar   37  PHE37      -0.0000
     29  N        -18.7980   11.4490    0.9950 N.3    66  THR66      -0.1203
     30  CA       -17.4260   11.9670    0.8330 C.3    66  THR66       0.1994
     31  C        -17.3760   12.9100   -0.3810 C.2    66  THR66       0.2618
     32  O        -17.9560   12.6520   -1.4520 O.2    66  THR66      -0.2717
     33  CB       -16.2480   10.8780    0.9080 C.3    66  THR66       0.1784
     34  OG1      -16.6140    9.8010    1.7930 O.3    66  THR66      -0.2211
     35  CG2      -14.9020   11.5120    1.4100 C.3    66  THR66       0.0376
     36  N        -16.7520   14.0520   -0.1210 N.am   67  GLN67      -0.1965
     37  CA       -16.4660   15.0980   -1.0800 C.3    67  GLN67       0.1733
     38  C        -15.3120   15.8180   -0.4010 C.2    67  GLN67       0.2616
     39  O        -15.0410   15.5220    0.7550 O.2    67  GLN67      -0.2715
     40  CB       -17.6530   16.0290   -1.1950 C.3    67  GLN67       0.0408
     41  CG       -17.8160   16.9380   -0.0090 C.3    67  GLN67       0.0908
     42  CD       -19.1760   17.5670    0.0350 C.2    67  GLN67       0.2608
     43  OE1      -19.3230   18.7540   -0.2690 O.2    67  GLN67      -0.2717
     44  NE2      -20.1990   16.7700    0.3970 N.am   67  GLN67      -0.0878
     45  N        -14.6230   16.7290   -1.0900 N.am   68  LEU68      -0.1963
     46  CA       -13.5300   17.4530   -0.4350 C.3    68  LEU68       0.1728
     47  C        -13.9740   18.0140    0.9020 C.2    68  LEU68       0.2616
     48  O        -15.0860   18.5280    1.0200 O.2    68  LEU68      -0.2715
     49  CB       -13.0460   18.5780   -1.3000 C.3    68  LEU68       0.0311
     50  CG       -11.7210   18.3530   -1.9930 C.3    68  LEU68       0.0022
     51  CD1      -11.3380   16.9040   -2.0390 C.3    68  LEU68       0.0001
     52  CD2      -11.7720   18.9750   -3.3800 C.3    68  LEU68       0.0001
     53  N        -13.1170   17.8800    1.9140 N.am   69  THR69      -0.1951
     54  CA       -13.4420   18.3860    3.2510 C.3    69  THR69       0.1897
     55  C        -13.6600   19.9110    3.2470 C.2    69  THR69       0.2313
     56  O        -14.7000   20.3500    3.7580 O.2    69  THR69      -0.2863
     57  CB       -12.3970   17.9410    4.3110 C.3    69  THR69       0.1794
     58  OG1      -12.3890   16.5130    4.3800 O.3    69  THR69      -0.2208
     59  CG2      -12.7120   18.4730    5.6750 C.3    69  THR69       0.0378
     60  N         -8.5000   19.5290   13.8940 N.3    83  ARG83      -0.1245
     61  CA        -7.8860   18.1820   13.9450 C.3    83  ARG83       0.1563
     62  C         -7.1210   17.8850   15.2670 C.2    83  ARG83       0.2260
     63  O         -6.6760   18.7910   15.9500 O.2    83  ARG83      -0.2867
     64  CB        -6.8320   18.0070   12.8190 C.3    83  ARG83       0.0307
     65  CG        -7.1970   18.5150   11.4130 C.3    83  ARG83       0.0489
     66  CD        -8.4180   17.9180   10.8550 C.3    83  ARG83       0.2205
     67  NE        -8.2450   16.5060   10.7570 N.pl3  83  ARG83      -0.0865
     68  CZ        -9.1260   15.6330   11.2210 C.cat  83  ARG83       0.5346
     69  NH1      -10.2380   16.0720   11.8030 N.pl3  83  ARG83       0.1354
     70  NH2       -8.8940   14.3290   11.1050 N.pl3  83  ARG83       0.1354
     71  N          1.1890   13.4930    8.8100 N.3    93  TYR93      -0.1227
     72  CA         0.0840   13.1920    8.0070 C.3    93  TYR93       0.1736
     73  C         -0.8720   14.4390    7.9590 C.2    93  TYR93       0.2595
     74  O         -1.1430   14.9760    6.8880 O.2    93  TYR93      -0.2718
     75  CB        -0.5870   11.9350    8.5480 C.3    93  TYR93       0.0548
     76  CG        -1.9650   11.7280    7.9760 C.ar   93  TYR93      -0.0200
     77  CD1       -2.1280   11.2170    6.6950 C.ar   93  TYR93      -0.0009
     78  CD2       -3.1170   12.0420    8.7320 C.ar   93  TYR93      -0.0009
     79  CE1       -3.3780   11.0310    6.1540 C.ar   93  TYR93       0.0417
     80  CE2       -4.3770   11.8840    8.2080 C.ar   93  TYR93       0.0417
     81  CZ        -4.5050   11.3790    6.9100 C.ar   93  TYR93       0.1957
     82  OH        -5.7480   11.1940    6.3630 O.3    93  TYR93      -0.2866
     83  N         -1.3230   14.9250    9.1170 N.am   94  GLU94      -0.1979
     84  CA        -2.2610   16.0680    9.1920 C.3    94  GLU94       0.1602
     85  C         -1.6560   17.3150    8.5570 C.2    94  GLU94       0.2287
     86  O         -2.3670   18.0850    7.9100 O.2    94  GLU94      -0.2864
     87  CB        -2.6380   16.3650   10.6440 C.3    94  GLU94       0.0415
     88  CG        -3.5310   15.3060   11.3020 C.3    94  GLU94       0.1163
     89  CD        -4.8650   15.1330   10.6330 C.2    94  GLU94       0.3649
     90  OE1       -5.2990   16.0050    9.8240 O.co2  94  GLU94      -0.2457
     91  OE2       -5.5520   14.1350   10.9540 O.co2  94  GLU94      -0.2457
     92  N         -2.1860   17.1920    4.9010 N.3    97  ILE97      -0.1245
     93  CA        -3.5680   17.4840    4.5570 C.3    97  ILE97       0.1561
     94  C         -3.8490   18.9630    4.7340 C.2    97  ILE97       0.2260
     95  O         -4.5710   19.5780    3.9310 O.2    97  ILE97      -0.2867
     96  CB        -4.4830   16.5850    5.3600 C.3    97  ILE97       0.0252
     97  CG1       -4.3030   15.1550    4.8080 C.3    97  ILE97       0.0019
     98  CG2       -5.9550   17.0640    5.3360 C.3    97  ILE97       0.0019
     99  CD1       -5.0170   14.1180    5.5390 C.3    97  ILE97       0.0001
    100  N         -2.3520   20.9880    1.9030 N.3   100  MET100     -0.1230
    101  CA        -3.1640   20.8020    0.7290 C.3   100  MET100      0.1702
    102  C         -4.4770   21.5640    0.8590 C.2   100  MET100      0.2592
    103  O         -4.9250   22.1830   -0.1300 O.2   100  MET100     -0.2718
    104  CB        -3.4100   19.3070    0.3870 C.3   100  MET100      0.0401
    105  CG        -4.3610   19.0400   -0.8870 C.3   100  MET100      0.0596
    106  SD        -3.5720   19.7560   -2.3520 S.3   100  MET100     -0.1393
    107  CE        -2.0000   18.9520   -2.4110 C.3   100  MET100      0.0692
    108  N         -5.1110   21.5170    2.0360 N.am  101  ASN101     -0.1974
    109  CA        -6.3470   22.2840    2.2300 C.3   101  ASN101      0.1688
    110  C         -6.1480   23.7660    2.1860 C.2   101  ASN101      0.2292
    111  O         -7.0640   24.4910    1.8440 O.2   101  ASN101     -0.2864
    112  CB        -7.0830   21.8950    3.4810 C.3   101  ASN101      0.1181
    113  CG        -7.6220   20.5260    3.3740 C.2   101  ASN101      0.2629
    114  OD1       -7.8060   20.0060    2.2550 O.2   101  ASN101     -0.2716
    115  ND2       -7.8190   19.8790    4.5090 N.am  101  ASN101     -0.0877
    116  N         -6.3700   24.5970   -1.4600 N.3   104  LEU104     -0.1245
    117  CA        -7.6960   24.5070   -2.0530 C.3   104  LEU104      0.1561
    118  C         -8.6480   25.5590   -1.5500 C.2   104  LEU104      0.2260
    119  O         -9.6330   25.8860   -2.2200 O.2   104  LEU104     -0.2867
    120  CB        -8.3170   23.1600   -1.7100 C.3   104  LEU104      0.0270
    121  CG        -7.5400   21.9210   -2.2030 C.3   104  LEU104      0.0019
    122  CD1       -8.1640   20.6010   -1.7170 C.3   104  LEU104      0.0001
    123  CD2       -7.3600   21.9140   -3.7410 C.3   104  LEU104      0.0001
@<TRIPOS>BOND
     1   123   121    1
     2    52    50    1
     3   107   106    1
     4   106   105    1
     5   119   118    2
     6   121   122    1
     7   121   120    1
     8   117   120    1
     9   117   118    1
    10   117   116    1
    11    51    50    1
    12    50    49    1
    13    32    31    2
    14    49    46    1
    15    40    37    1
    16    40    41    1
    17    45    46    1
    18    45    38   am
    19    37    38    1
    20    37    36    1
    21   105   104    1
    22    46    47    1
    23    38    39    2
    24    31    36   am
    25    31    30    1
    26    43    42    2
    27   103   102    2
    28    41    42    1
    29    42    44   am
    30   104   101    1
    31   101   102    1
    32   101   100    1
    33    30    33    1
    34    30    29    1
    35   102   108   am
    36    47    48    2
    37    47    53   am
    38    33    35    1
    39    33    34    1
    40   111   110    2
    41    53    54    1
    42   108   109    1
    43   110   109    1
    44   109   112    1
    45   114   113    2
    46    55    54    1
    47    55    56    2
    48    54    57    1
    49   113   112    1
    50   113   115   am
    51    95    94    2
    52    57    58    1
    53    57    59    1
    54    26    24   ar
    55    26    28   ar
    56    24    23   ar
    57    93    94    1
    58    93    92    1
    59    93    96    1
    60    97    96    1
    61    97    99    1
    62    98    96    1
    63    28    27   ar
    64    23    22    1
    65    23    25   ar
    66    22    19    1
    67    20    19    1
    68    20    21    2
    69    79    77   ar
    70    79    81   ar
    71    19    18    1
    72    82    81    1
    73    77    76   ar
    74    27    25   ar
    75    74    73    2
    76    81    80   ar
    77    86    85    2
    78    73    72    1
    79    73    83   am
    80    76    75    1
    81    76    78   ar
    82    72    75    1
    83    72    71    1
    84    80    78   ar
    85    85    84    1
    86     5     6    1
    87     5     2    1
    88    83    84    1
    89     6     7    1
    90    84    87    1
    91    16    17    1
    92    16    13    1
    93    90    89   ar
    94     2     3    1
    95     2     1    1
    96    13    12    1
    97    13    14    1
    98    11    10    2
    99    12    10   am
   100    10     9    1
   101     8     9    1
   102     8     3   am
   103     7     1    1
   104     3     4    2
   105    89    91   ar
   106    89    88    1
   107    87    88    1
   108    67    66    1
   109    67    68    2
   110    66    65    1
   111    70    68    1
   112    68    69    1
   113    15    14    2
   114    65    64    1
   115    64    61    1
   116    60    61    1
   117    61    62    1
   118    62    63    2
