@<TRIPOS>MOLECULE
tmp/3ndcA00.pdb
 165 161 0 0 0
SMALL
GASTEIGER

@<TRIPOS>ATOM
      1  N         31.4990  -26.7470   -2.2670 N.3    13  PRO13      -0.2116
      2  CA        32.6100  -27.1850   -3.1130 C.3    13  PRO13       0.1372
      3  C         33.4870  -26.0810   -3.7130 C.2    13  PRO13       0.2244
      4  O         34.5380  -26.3900   -4.2870 O.2    13  PRO13      -0.2868
      5  CB        31.9070  -27.9280   -4.2520 C.3    13  PRO13       0.0268
      6  CG        30.5700  -27.2940   -4.3450 C.3    13  PRO13       0.0207
      7  CD        30.1920  -27.0000   -2.9020 C.3    13  PRO13       0.0892
      8  N         40.5280  -22.4370   -0.1400 N.3    39  LEU39      -0.1245
      9  CA        39.4420  -23.3160   -0.6390 C.3    39  LEU39       0.1561
     10  C         38.0470  -22.8730   -0.1530 C.2    39  LEU39       0.2260
     11  O         37.0310  -23.3590   -0.6280 O.2    39  LEU39      -0.2867
     12  CB        39.7260  -24.8140   -0.4170 C.3    39  LEU39       0.0270
     13  CG        40.8520  -25.3750   -1.3200 C.3    39  LEU39       0.0019
     14  CD1       41.3550  -26.7630   -0.8930 C.3    39  LEU39       0.0001
     15  CD2       40.4610  -25.3550   -2.8120 C.3    39  LEU39       0.0001
     16  N         35.8180  -26.0690    3.7530 N.3    84  SER84      -0.1202
     17  CA        35.4580  -26.4540    2.3900 C.3    84  SER84       0.2020
     18  C         34.5120  -27.6750    2.3780 C.2    84  SER84       0.2619
     19  O         34.6970  -28.6190    3.1530 O.2    84  SER84      -0.2717
     20  CB        36.7430  -26.7850    1.6410 C.3    84  SER84       0.2103
     21  OG        36.4700  -27.3680    0.3820 O.3    84  SER84      -0.2182
     22  N         33.4910  -27.6410    1.5290 N.am   85  GLY85      -0.1942
     23  CA        32.6170  -28.8090    1.3240 C.3    85  GLY85       0.2014
     24  C         31.6400  -29.0270    2.4630 C.2    85  GLY85       0.2638
     25  O         30.9480  -28.0800    2.8810 O.2    85  GLY85      -0.2714
     26  N         31.5520  -30.2780    2.9320 N.am   86  ASP86      -0.1971
     27  CA        30.7970  -30.6150    4.1330 C.3    86  ASP86       0.1709
     28  C         31.7280  -30.9720    5.2870 C.2    86  ASP86       0.2293
     29  O         32.8990  -31.3290    5.0530 O.2    86  ASP86      -0.2864
     30  CB        29.8420  -31.7950    3.8760 C.3    86  ASP86       0.1436
     31  CG        29.0640  -32.1770    5.1320 C.2    86  ASP86       0.3671
     32  OD1       28.4240  -31.2700    5.7340 O.co2  86  ASP86      -0.2456
     33  OD2       29.1420  -33.3630    5.5540 O.co2  86  ASP86      -0.2456
     34  N         33.3390  -35.2520    6.4730 N.3    89  ILE89      -0.1231
     35  CA        34.4080  -36.0470    5.8480 C.3    89  ILE89       0.1692
     36  C         35.6710  -35.2370    5.5840 C.2    89  ILE89       0.2592
     37  O         35.6410  -34.2440    4.8340 O.2    89  ILE89      -0.2718
     38  CB        33.9280  -36.7290    4.5380 C.3    89  ILE89       0.0266
     39  CG1       33.3000  -35.6880    3.5890 C.3    89  ILE89       0.0019
     40  CG2       32.8960  -37.8290    4.8680 C.3    89  ILE89       0.0020
     41  CD1       32.5940  -36.2360    2.3760 C.3    89  ILE89       0.0001
     42  N         36.7760  -35.6860    6.1910 N.am   90  TRP90      -0.1962
     43  CA        38.1080  -35.0880    6.0270 C.3    90  TRP90       0.1771
     44  C         38.1290  -33.5660    6.1890 C.2    90  TRP90       0.2620
     45  O         38.7860  -32.8750    5.4190 O.2    90  TRP90      -0.2715
     46  CB        38.7530  -35.4960    4.6840 C.3    90  TRP90       0.0590
     47  CG        38.7580  -36.9850    4.4890 C.ar   90  TRP90       0.0006
     48  CD1       39.4920  -37.8960    5.1910 C.ar   90  TRP90       0.0946
     49  CD2       37.9500  -37.7300    3.5720 C.ar   90  TRP90       0.0152
     50  NE1       39.1950  -39.1710    4.7610 N.ar   90  TRP90      -0.2442
     51  CE2       38.2590  -39.0990    3.7610 C.ar   90  TRP90       0.0810
     52  CE3       37.0050  -37.3740    2.5950 C.ar   90  TRP90       0.0012
     53  CZ2       37.6590  -40.1140    3.0120 C.ar   90  TRP90       0.0191
     54  CZ3       36.4010  -38.3740    1.8610 C.ar   90  TRP90       0.0001
     55  CH2       36.7310  -39.7430    2.0730 C.ar   90  TRP90       0.0015
     56  N         37.4030  -33.0650    7.1830 N.am   91  SER91      -0.1950
     57  CA        37.3110  -31.6260    7.4560 C.3    91  SER91       0.1924
     58  C         38.2850  -31.1590    8.5550 C.2    91  SER91       0.2314
     59  O         38.5640  -29.9770    8.6690 O.2    91  SER91      -0.2863
     60  CB        35.8880  -31.2820    7.8980 C.3    91  SER91       0.2116
     61  OG        35.5740  -31.9730    9.0990 O.3    91  SER91      -0.2180
     62  N         28.9710  -31.6810   -0.1350 N.3   114  PRO114     -0.2102
     63  CA        30.2840  -32.3250   -0.2190 C.3   114  PRO114      0.1504
     64  C         30.7870  -32.3710   -1.6490 C.2   114  PRO114      0.2576
     65  O         29.9970  -32.2390   -2.5840 O.2   114  PRO114     -0.2718
     66  CB        30.0230  -33.7460    0.2970 C.3   114  PRO114      0.0282
     67  CG        28.5730  -33.9780    0.0660 C.3   114  PRO114      0.0208
     68  CD        27.8900  -32.6400    0.1530 C.3   114  PRO114      0.0893
     69  N         32.0850  -32.5780   -1.8350 N.am  115  SER115     -0.1953
     70  CA        32.6300  -32.5020   -3.1790 C.3   115  SER115      0.1924
     71  C         32.2040  -33.6370   -4.1180 C.2   115  SER115      0.2314
     72  O         32.1380  -33.4290   -5.3400 O.2   115  SER115     -0.2863
     73  CB        34.1570  -32.3350   -3.1460 C.3   115  SER115      0.2116
     74  OG        34.8060  -33.4820   -2.6260 O.3   115  SER115     -0.2180
     75  N         30.8720  -32.9800   -7.7870 N.3   119  ALA119     -0.1245
     76  CA        31.4380  -33.6700   -8.9300 C.3   119  ALA119      0.1562
     77  C         30.3790  -34.4200   -9.7410 C.2   119  ALA119      0.2260
     78  O         30.3730  -34.3340  -10.9810 O.2   119  ALA119     -0.2867
     79  CB        32.5750  -34.6190   -8.4910 C.3   119  ALA119      0.0290
     80  N         39.0240  -39.6150   -2.7850 N.3   167  HIS167     -0.1226
     81  CA        39.4800  -38.2610   -2.4530 C.3   167  HIS167      0.1752
     82  C         40.9780  -38.2600   -2.1460 C.2   167  HIS167      0.2595
     83  O         41.5650  -39.3210   -1.9080 O.2   167  HIS167     -0.2718
     84  CB        38.7440  -37.7720   -1.1980 C.3   167  HIS167      0.0759
     85  CG        37.2470  -37.7650   -1.3260 C.ar  167  HIS167      0.0818
     86  ND1       36.4990  -38.9180   -1.4720 N.ar  167  HIS167     -0.2268
     87  CD2       36.3580  -36.7420   -1.2860 C.ar  167  HIS167      0.1154
     88  CE1       35.2150  -38.6000   -1.5470 C.ar  167  HIS167      0.1986
     89  NE2       35.1020  -37.2860   -1.4410 N.ar  167  HIS167     -0.2212
     90  N         41.5970  -37.0660   -2.1420 N.am  168  LEU168     -0.1980
     91  CA        42.9710  -36.9090   -1.6580 C.3   168  LEU168      0.1596
     92  C         43.9980  -37.8080   -2.3630 C.2   168  LEU168      0.2287
     93  O         45.0510  -38.0960   -1.8000 O.2   168  LEU168     -0.2864
     94  CB        43.0170  -37.1580   -0.1480 C.3   168  LEU168      0.0297
     95  CG        42.2230  -36.1590    0.7090 C.3   168  LEU168      0.0022
     96  CD1       41.7800  -36.8290    2.0260 C.3   168  LEU168      0.0001
     97  CD2       43.0660  -34.8930    0.9670 C.3   168  LEU168      0.0001
     98  N         36.9960  -35.2590  -11.7570 N.3   193  VAL193     -0.1245
     99  CA        36.5790  -33.8670  -11.7310 C.3   193  VAL193      0.1561
    100  C         37.5430  -33.0710  -10.8510 C.2   193  VAL193      0.2260
    101  O         37.6210  -33.2900   -9.6210 O.2   193  VAL193     -0.2867
    102  CB        35.1240  -33.6830  -11.2160 C.3   193  VAL193      0.0252
    103  CG1       34.6670  -32.2390  -11.4070 C.3   193  VAL193      0.0019
    104  CG2       34.1680  -34.6270  -11.9620 C.3   193  VAL193      0.0019
    105  N         38.3800  -29.4460   -9.2780 N.3   195  ARG195     -0.1231
    106  CA        37.8710  -28.1190   -8.9440 C.3   195  ARG195      0.1694
    107  C         36.4220  -27.9310   -9.3460 C.2   195  ARG195      0.2591
    108  O         36.0240  -26.8770   -9.9010 O.2   195  ARG195     -0.2718
    109  CB        38.7640  -27.0420   -9.5840 C.3   195  ARG195      0.0321
    110  CG        40.2150  -27.1370   -9.1460 C.3   195  ARG195      0.0489
    111  CD        40.4710  -26.2530   -7.9570 C.3   195  ARG195      0.2205
    112  NE        40.3600  -24.8520   -8.3760 N.pl3 195  ARG195     -0.0865
    113  CZ        40.4090  -23.8130   -7.5580 C.cat 195  ARG195      0.5346
    114  NH1       40.5930  -23.9840   -6.2540 N.pl3 195  ARG195      0.1354
    115  NH2       40.2810  -22.5960   -8.0630 N.pl3 195  ARG195      0.1354
    116  N         35.6160  -28.9510   -9.0520 N.am  196  ALA196     -0.1980
    117  CA        34.1750  -28.8710   -9.2790 C.3   196  ALA196      0.1597
    118  C         33.5840  -27.5920   -8.7170 C.2   196  ALA196      0.2287
    119  O         33.7470  -27.2990   -7.5200 O.2   196  ALA196     -0.2864
    120  CB        33.4620  -30.0860   -8.6580 C.3   196  ALA196      0.0319
    121  N         34.3200  -24.5190   -9.3460 N.3   198  TRP198     -0.1241
    122  CA        35.2270  -23.3670   -9.4610 C.3   198  TRP198      0.1605
    123  C         35.2590  -22.8460  -10.9130 C.2   198  TRP198      0.2264
    124  O         34.9600  -23.6030  -11.8430 O.2   198  TRP198     -0.2867
    125  CB        36.6340  -23.7530   -9.0060 C.3   198  TRP198      0.0550
    126  CG        36.7640  -24.0260   -7.5190 C.ar  198  TRP198      0.0003
    127  CD1       36.6390  -25.2350   -6.8870 C.ar  198  TRP198      0.0946
    128  CD2       37.0610  -23.0680   -6.4890 C.ar  198  TRP198      0.0152
    129  NE1       36.8540  -25.0890   -5.5340 N.ar  198  TRP198     -0.2442
    130  CE2       37.1020  -23.7700   -5.2610 C.ar  198  TRP198      0.0810
    131  CE3       37.2980  -21.6820   -6.4880 C.ar  198  TRP198      0.0012
    132  CZ2       37.3650  -23.1340   -4.0350 C.ar  198  TRP198      0.0191
    133  CZ3       37.5640  -21.0490   -5.2680 C.ar  198  TRP198      0.0001
    134  CH2       37.5900  -21.7820   -4.0590 C.ar  198  TRP198      0.0015
    135  N         45.6210  -30.3970   -7.1330 N.3   221  ARG221     -0.1231
    136  CA        45.3200  -31.5840   -6.3300 C.3   221  ARG221      0.1694
    137  C         43.8570  -31.6630   -5.8570 C.2   221  ARG221      0.2593
    138  O         43.4330  -32.6600   -5.2940 O.2   221  ARG221     -0.2718
    139  CB        46.2780  -31.6730   -5.1410 C.3   221  ARG221      0.0321
    140  CG        47.5460  -32.5070   -5.4230 C.3   221  ARG221      0.0489
    141  CD        48.6230  -32.2620   -4.3480 C.3   221  ARG221      0.2205
    142  NE        49.3190  -33.4870   -3.9270 N.pl3 221  ARG221     -0.0865
    143  CZ        50.5960  -33.5370   -3.5390 C.cat 221  ARG221      0.5346
    144  NH1       51.3420  -32.4350   -3.5340 N.pl3 221  ARG221      0.1354
    145  NH2       51.1410  -34.6930   -3.1700 N.pl3 221  ARG221      0.1354
    146  N         43.0880  -30.6130   -6.0810 N.am  222  THR222     -0.1939
    147  CA        41.6810  -30.6300   -5.7010 C.3   222  THR222      0.2028
    148  C         40.9130  -31.3650   -6.7980 C.2   222  THR222      0.2642
    149  O         40.3580  -30.7430   -7.7120 O.2   222  THR222     -0.2714
    150  CB        41.1500  -29.1980   -5.5130 C.3   222  THR222      0.1808
    151  OG1       41.8790  -28.5810   -4.4610 O.3   222  THR222     -0.2208
    152  CG2       39.6640  -29.1900   -5.1460 C.3   222  THR222      0.0379
    153  N         40.9130  -32.6930   -6.7140 N.am  223  ALA223     -0.1963
    154  CA        40.2180  -33.5180   -7.7000 C.3   223  ALA223      0.1728
    155  C         39.6270  -34.7590   -7.0640 C.2   223  ALA223      0.2616
    156  O         40.2030  -35.3310   -6.1470 O.2   223  ALA223     -0.2715
    157  CB        41.1540  -33.9180   -8.8430 C.3   223  ALA223      0.0334
    158  N         38.4720  -35.1550   -7.5840 N.am  224  LEU224     -0.1977
    159  CA        37.7430  -36.3150   -7.1050 C.3   224  LEU224      0.1596
    160  C         37.7070  -37.4010   -8.1990 C.2   224  LEU224      0.2287
    161  O         37.3310  -37.1240   -9.3560 O.2   224  LEU224     -0.2864
    162  CB        36.3210  -35.8990   -6.7450 C.3   224  LEU224      0.0297
    163  CG        35.5450  -37.0910   -6.2030 C.3   224  LEU224      0.0022
    164  CD1       35.9390  -37.3650   -4.7410 C.3   224  LEU224      0.0001
    165  CD2       34.0850  -36.8930   -6.3680 C.3   224  LEU224      0.0001
@<TRIPOS>BOND
     1   104   102    1
     2   124   123    2
     3    98    99    1
     4    99   102    1
     5    99   100    1
     6   103   102    1
     7    78    77    2
     8   123   122    1
     9   100   101    2
    10   108   107    2
    11    77    76    1
    12   109   110    1
    13   109   106    1
    14   122   121    1
    15   122   125    1
    16   161   160    2
    17   107   116   am
    18   107   106    1
    19   117   116    1
    20   117   118    1
    21   117   120    1
    22   105   106    1
    23   110   111    1
    24   125   126    1
    25    76    79    1
    26    76    75    1
    27   157   154    1
    28   118   119    2
    29   112   111    1
    30   112   113    2
    31   160   159    1
    32   115   113    1
    33   149   148    2
    34   154   155    1
    35   154   153    1
    36   158   159    1
    37   158   155   am
    38   113   114    1
    39   126   127   ar
    40   126   128   ar
    41   135   136    1
    42   159   162    1
    43   155   156    2
    44   127   129   ar
    45   148   153   am
    46   148   147    1
    47   162   163    1
    48   128   131   ar
    49   128   130   ar
    50   131   133   ar
    51   165   163    1
    52   136   137    1
    53   136   139    1
    54   163   164    1
    55   146   137   am
    56   146   147    1
    57   137   138    2
    58   147   150    1
    59   129   130   ar
    60   150   152    1
    61   150   151    1
    62   140   139    1
    63   140   141    1
    64    72    71    2
    65   133   134   ar
    66   130   132   ar
    67   141   142    1
    68     6     5    1
    69     6     7    1
    70     4     3    2
    71     5     2    1
    72    71    70    1
    73   134   132   ar
    74   142   143    2
    75     3     2    1
    76   143   144    1
    77   143   145    1
    78    70    73    1
    79    70    69    1
    80    73    74    1
    81     2     1    1
    82     7     1    1
    83    15    13    1
    84    80    81    1
    85    65    64    2
    86    81    82    1
    87    81    84    1
    88    92    93    2
    89    92    91    1
    90    82    90   am
    91    82    83    2
    92    90    91    1
    93    69    64   am
    94    91    94    1
    95    64    63    1
    96    88    86   ar
    97    88    89   ar
    98    86    85   ar
    99    89    87   ar
   100    85    87   ar
   101    85    84    1
   102    13    14    1
   103    13    12    1
   104     9    12    1
   105     9    10    1
   106     9     8    1
   107    11    10    2
   108    63    62    1
   109    63    66    1
   110    94    95    1
   111    62    68    1
   112    67    68    1
   113    67    66    1
   114    21    20    1
   115    95    97    1
   116    95    96    1
   117    23    22    1
   118    23    24    1
   119    22    18   am
   120    20    17    1
   121    54    55   ar
   122    54    52   ar
   123    55    53   ar
   124    41    39    1
   125    18    17    1
   126    18    19    2
   127    17    16    1
   128    24    25    2
   129    24    26   am
   130    52    49   ar
   131    26    27    1
   132    53    51   ar
   133    49    51   ar
   134    49    47   ar
   135    39    38    1
   136    51    50   ar
   137    30    27    1
   138    30    31    1
   139    27    28    1
   140    47    46    1
   141    47    48   ar
   142    38    40    1
   143    38    35    1
   144    46    43    1
   145    50    48   ar
   146    37    36    2
   147    29    28    2
   148    31    33   ar
   149    31    32   ar
   150    45    44    2
   151    36    35    1
   152    36    42   am
   153    35    34    1
   154    43    44    1
   155    43    42    1
   156    44    56   am
   157    56    57    1
   158    57    60    1
   159    57    58    1
   160    60    61    1
   161    58    59    2
