@<TRIPOS>MOLECULE
tmp/3ndeA00.pdb
 145 135 0 0 0
SMALL
GASTEIGER

@<TRIPOS>ATOM
      1  N        -17.8430  -12.4300    3.9920 N.3    41  CYS41      -0.1221
      2  CA       -16.3760  -12.3030    4.0420 C.3    41  CYS41       0.1808
      3  C        -15.9810  -11.8810    5.4560 C.2    41  CYS41       0.2601
      4  O        -16.6400  -12.2860    6.4430 O.2    41  CYS41      -0.2717
      5  CB       -15.8460  -11.3580    2.9490 C.3    41  CYS41       0.0970
      6  SG       -16.3280  -11.9570    1.2900 S.3    41  CYS41      -0.0800
      7  N        -14.9530  -11.0560    5.5860 N.am   42  SER42      -0.1952
      8  CA       -14.4250  -10.7720    6.9400 C.3    42  SER42       0.1924
      9  C        -15.3110   -9.8930    7.7890 C.2    42  SER42       0.2314
     10  O        -14.9790   -9.6340    8.9490 O.2    42  SER42      -0.2863
     11  CB       -13.0770  -10.0830    6.8830 C.3    42  SER42       0.2116
     12  OG       -12.0730  -11.0250    6.5100 O.3    42  SER42      -0.2180
     13  N        -16.3040  -10.6530   11.4550 N.3    45  LYS45      -0.1245
     14  CA       -15.3900  -10.5420   12.5880 C.3    45  LYS45       0.1561
     15  C        -15.8380   -9.5020   13.5950 C.2    45  LYS45       0.2260
     16  O        -15.5040   -9.6260   14.7580 O.2    45  LYS45      -0.2867
     17  CB       -13.9480  -10.2810   12.1140 C.3    45  LYS45       0.0271
     18  CG       -13.3900  -11.5100   11.4150 C.3    45  LYS45       0.0035
     19  CD       -12.1530  -11.2240   10.5860 C.3    45  LYS45       0.0206
     20  CE       -11.8640  -12.3980    9.6910 C.3    45  LYS45       0.1093
     21  NZ       -10.6450  -12.1210    8.8710 N.3    45  LYS45      -0.1314
     22  N         -4.7320  -18.7870    6.3210 N.3    74  SER74      -0.1202
     23  CA        -5.3730  -17.6230    5.6860 C.3    74  SER74       0.2020
     24  C         -4.5640  -16.3700    5.9840 C.2    74  SER74       0.2618
     25  O         -3.6760  -16.4020    6.8200 O.2    74  SER74      -0.2717
     26  CB        -6.7970  -17.4510    6.2500 C.3    74  SER74       0.2103
     27  OG        -6.7410  -17.1560    7.6400 O.3    74  SER74      -0.2182
     28  N         -4.8810  -15.2510    5.3270 N.am   75  ILE75      -0.1979
     29  CA        -4.1810  -13.9810    5.5980 C.3    75  ILE75       0.1595
     30  C         -4.3310  -13.6500    7.0800 C.2    75  ILE75       0.2287
     31  O         -5.4510  -13.5810    7.5900 O.2    75  ILE75      -0.2864
     32  CB        -4.6920  -12.8130    4.7250 C.3    75  ILE75       0.0276
     33  CG1       -4.2690  -13.0210    3.2570 C.3    75  ILE75       0.0022
     34  CG2       -4.1770  -11.4690    5.2470 C.3    75  ILE75       0.0022
     35  CD1       -4.9890  -12.1000    2.2650 C.3    75  ILE75       0.0001
     36  N         -6.7810   -5.8190   11.5130 N.3    99  TYR99      -0.1227
     37  CA        -5.9680   -6.3960   10.4370 C.3    99  TYR99       0.1736
     38  C         -6.6890   -7.4920    9.6700 C.2    99  TYR99       0.2596
     39  O         -6.1080   -8.1290    8.7710 O.2    99  TYR99      -0.2718
     40  CB        -4.6140   -6.8950   10.9720 C.3    99  TYR99       0.0548
     41  CG        -3.7230   -5.7410   11.3560 C.ar   99  TYR99      -0.0200
     42  CD1       -3.6840   -5.2800   12.6660 C.ar   99  TYR99      -0.0009
     43  CD2       -2.9550   -5.0790   10.3980 C.ar   99  TYR99      -0.0009
     44  CE1       -2.8750   -4.1920   13.0230 C.ar   99  TYR99       0.0417
     45  CE2       -2.1500   -3.9970   10.7430 C.ar   99  TYR99       0.0417
     46  CZ        -2.1140   -3.5620   12.0520 C.ar   99  TYR99       0.1957
     47  OH        -1.3240   -2.4770   12.3780 O.3    99  TYR99      -0.2866
     48  N         -7.9680   -7.6850    9.9920 N.am  100  SER100     -0.1952
     49  CA        -8.7900   -8.7270    9.3940 C.3   100  SER100      0.1924
     50  C         -8.0720  -10.0860    9.4190 C.2   100  SER100      0.2314
     51  O         -8.0460  -10.8350    8.4410 O.2   100  SER100     -0.2863
     52  CB        -9.2560   -8.3340    7.9940 C.3   100  SER100      0.2116
     53  OG       -10.4540   -9.0360    7.7120 O.3   100  SER100     -0.2180
     54  N         -7.2670  -13.7340    9.8340 N.3   102  GLY102     -0.1225
     55  CA        -8.0830  -14.9520    9.6620 C.3   102  GLY102      0.1811
     56  C         -7.8450  -15.9820   10.7450 C.2   102  GLY102      0.2280
     57  O         -8.7920  -16.6230   11.2320 O.2   102  GLY102     -0.2866
     58  N        -12.2810  -19.3400    8.2450 N.3   140  ALA140     -0.1231
     59  CA       -11.3020  -18.8810    7.2610 C.3   140  ALA140      0.1679
     60  C        -10.4130  -20.0790    6.8550 C.2   140  ALA140      0.2434
     61  O        -10.0440  -20.8910    7.7030 O.2   140  ALA140     -0.2733
     62  CB       -10.4920  -17.7380    7.8440 C.3   140  ALA140      0.0304
     63  N        -10.0930  -20.2370    5.5470 N.am  141  PRO141     -0.2729
     64  CA       -10.3600  -19.4370    4.3590 C.3   141  PRO141      0.1401
     65  C        -11.6910  -19.7310    3.6570 C.2   141  PRO141      0.2269
     66  O        -12.1250  -18.9560    2.7940 O.2   141  PRO141     -0.2865
     67  CB        -9.2150  -19.8770    3.4220 C.3   141  PRO141      0.0296
     68  CG        -9.0510  -21.3340    3.7120 C.3   141  PRO141      0.0237
     69  CD        -9.2420  -21.4090    5.2320 C.3   141  PRO141      0.0939
     70  N        -14.8110  -19.5790    4.0830 N.3   143  LEU143     -0.1231
     71  CA       -16.0450  -18.7880    4.1030 C.3   143  LEU143      0.1693
     72  C        -16.1060  -17.7410    2.9940 C.2   143  LEU143      0.2592
     73  O        -17.1860  -17.2150    2.7020 O.2   143  LEU143     -0.2718
     74  CB       -16.2510  -18.1290    5.4780 C.3   143  LEU143      0.0284
     75  CG       -15.1920  -17.0930    5.8660 C.3   143  LEU143      0.0019
     76  CD1      -15.5650  -15.7070    5.3870 C.3   143  LEU143      0.0001
     77  CD2      -15.0450  -17.0940    7.3780 C.3   143  LEU143      0.0001
     78  N        -14.9630  -17.4410    2.3730 N.am  144  ASN144     -0.1974
     79  CA       -14.9120  -16.4750    1.2720 C.3   144  ASN144      0.1688
     80  C        -15.1520  -17.0530   -0.1260 C.2   144  ASN144      0.2292
     81  O        -15.1580  -16.3000   -1.1170 O.2   144  ASN144     -0.2864
     82  CB       -13.5680  -15.7250    1.2940 C.3   144  ASN144      0.1181
     83  CG       -13.3440  -14.9980    2.5900 C.2   144  ASN144      0.2629
     84  OD1      -14.1040  -14.0990    2.9320 O.2   144  ASN144     -0.2716
     85  ND2      -12.3070  -15.3830    3.3300 N.am  144  ASN144     -0.0877
     86  N         -7.7190   -1.2960    7.6540 N.3   190  THR190     -0.1218
     87  CA        -7.9470   -1.8750    6.3200 C.3   190  THR190      0.1862
     88  C         -8.9710   -1.1460    5.4660 C.2   190  THR190      0.2287
     89  O         -9.2520   -1.5880    4.3400 O.2   190  THR190     -0.2866
     90  CB        -8.4120   -3.3410    6.4190 C.3   190  THR190      0.1770
     91  OG1       -9.7350   -3.3820    6.9830 O.3   190  THR190     -0.2211
     92  CG2       -7.4280   -4.1710    7.2750 C.3   190  THR190      0.0375
     93  N        -12.4630    2.5720    1.4130 N.3   194  ARG194     -0.1245
     94  CA       -13.8630    2.1500    1.2660 C.3   194  ARG194      0.1563
     95  C        -14.8200    3.2130    1.7740 C.2   194  ARG194      0.2260
     96  O        -14.8020    4.3190    1.2350 O.2   194  ARG194     -0.2867
     97  CB       -14.0770    0.7460    1.8490 C.3   194  ARG194      0.0307
     98  CG       -13.2000   -0.2310    1.0640 C.3   194  ARG194      0.0489
     99  CD       -13.2580   -1.6910    1.5560 C.3   194  ARG194      0.2205
    100  NE       -12.2510   -2.5090    0.8650 N.pl3 194  ARG194     -0.0865
    101  CZ       -12.2780   -3.8460    0.7740 C.cat 194  ARG194      0.5346
    102  NH1      -11.3010   -4.4810    0.1360 N.pl3 194  ARG194      0.1354
    103  NH2      -13.2850   -4.5450    1.2890 N.pl3 194  ARG194      0.1354
    104  N        -14.0130   -4.2650    7.2210 N.3   209  THR209     -0.1218
    105  CA       -14.0810   -4.6160    5.8050 C.3   209  THR209      0.1862
    106  C        -14.2570   -6.1190    5.5840 C.2   209  THR209      0.2287
    107  O        -14.1300   -6.9180    6.5170 O.2   209  THR209     -0.2866
    108  CB       -12.7740   -4.2000    5.1080 C.3   209  THR209      0.1770
    109  OG1      -11.6650   -4.7680    5.8390 O.3   209  THR209     -0.2211
    110  CG2      -12.6430   -2.6780    5.0650 C.3   209  THR209      0.0375
    111  N        -13.2940   -8.9500    2.1390 N.3   211  THR211     -0.1203
    112  CA       -12.8740   -9.1320    0.7520 C.3   211  THR211      0.1994
    113  C        -12.8310  -10.6340    0.4710 C.2   211  THR211      0.2618
    114  O        -12.4020  -11.4100    1.3210 O.2   211  THR211     -0.2717
    115  CB       -11.4850   -8.4780    0.5000 C.3   211  THR211      0.1784
    116  OG1      -11.4900   -7.1170    0.9650 O.3   211  THR211     -0.2211
    117  CG2      -11.1440   -8.4530   -0.9560 C.3   211  THR211      0.0376
    118  N        -13.2760  -11.0500   -0.7100 N.am  212  GLY212     -0.1942
    119  CA       -13.3240  -12.4780   -0.9950 C.3   212  GLY212      0.2014
    120  C        -13.1950  -12.7790   -2.4720 C.2   212  GLY212      0.2638
    121  O        -12.8760  -11.9050   -3.2750 O.2   212  GLY212     -0.2714
    122  N        -13.4220  -14.0370   -2.8250 N.am  213  ASP213     -0.1971
    123  CA       -13.3360  -14.4630   -4.1970 C.3   213  ASP213      0.1709
    124  C        -14.5290  -13.9420   -4.9620 C.2   213  ASP213      0.2293
    125  O        -15.4150  -13.3320   -4.3570 O.2   213  ASP213     -0.2864
    126  CB       -13.2260  -15.9810   -4.2130 C.3   213  ASP213      0.1436
    127  CG       -12.0030  -16.4340   -3.4470 C.2   213  ASP213      0.3671
    128  OD1      -10.8950  -16.1380   -3.9200 O.co2 213  ASP213     -0.2456
    129  OD2      -12.1570  -17.0090   -2.3580 O.co2 213  ASP213     -0.2456
    130  N        -11.5090   -7.8560   -6.5640 N.3   248  PRO248     -0.2116
    131  CA       -12.3830   -6.9800   -5.7670 C.3   248  PRO248      0.1372
    132  C        -12.0670   -5.5390   -6.1260 C.2   248  PRO248      0.2244
    133  O        -10.9050   -5.2380   -6.4320 O.2   248  PRO248     -0.2868
    134  CB       -11.9490   -7.2830   -4.3140 C.3   248  PRO248      0.0268
    135  CG       -11.3810   -8.6970   -4.3940 C.3   248  PRO248      0.0207
    136  CD       -10.6250   -8.6680   -5.7000 C.3   248  PRO248      0.0892
    137  N        -12.3510   -1.8910   -4.5660 N.3   250  GLU250     -0.1245
    138  CA       -12.6400   -0.9680   -3.4640 C.3   250  GLU250      0.1567
    139  C        -13.2660    0.3390   -3.9190 C.2   250  GLU250      0.2260
    140  O        -14.0790    0.9180   -3.2130 O.2   250  GLU250     -0.2867
    141  CB       -11.3490   -0.6120   -2.7260 C.3   250  GLU250      0.0388
    142  CG       -10.6090   -1.7850   -2.1420 C.3   250  GLU250      0.1160
    143  CD        -9.5650   -1.3000   -1.1680 C.2   250  GLU250      0.3649
    144  OE1       -8.4820   -0.8090   -1.6160 O.co2 250  GLU250     -0.2457
    145  OE2       -9.8600   -1.3820    0.0400 O.co2 250  GLU250     -0.2457
@<TRIPOS>BOND
     1   130   131    1
     2   130   136    1
     3   133   132    2
     4   132   131    1
     5   131   134    1
     6   136   135    1
     7   124   125    2
     8   124   123    1
     9   137   138    1
    10   135   134    1
    11   126   123    1
    12   126   127    1
    13   123   122    1
    14   128   127   ar
    15   139   138    1
    16   139   140    2
    17   138   141    1
    18   127   129   ar
    19   121   120    2
    20   122   120   am
    21   141   142    1
    22   120   119    1
    23   142   143    1
    24   144   143   ar
    25   143   145   ar
    26    81    80    2
    27   119   118    1
    28   117   115    1
    29   118   113   am
    30    80    79    1
    31   102   101    1
    32   113   112    1
    33   113   114    2
    34   115   112    1
    35   115   116    1
    36   112   111    1
    37   101   100    2
    38   101   103    1
    39   100    99    1
    40    98    99    1
    41    98    97    1
    42    96    95    2
    43    94    93    1
    44    94    95    1
    45    94    97    1
    46    79    82    1
    47    79    78    1
    48     6     5    1
    49    82    83    1
    50    35    33    1
    51    78    72   am
    52    83    84    2
    53    83    85   am
    54    73    72    2
    55    66    65    2
    56     5     2    1
    57    72    71    1
    58    33    32    1
    59    67    68    1
    60    67    64    1
    61    65    64    1
    62    68    69    1
    63     1     2    1
    64     2     3    1
    65    70    71    1
    66    71    74    1
    67    89    88    2
    68    64    63    1
    69    32    34    1
    70    32    29    1
    71   110   108    1
    72   108   105    1
    73   108   109    1
    74    69    63    1
    75    28    29    1
    76    28    24   am
    77    76    75    1
    78     3     7   am
    79     3     4    2
    80    88    87    1
    81    74    75    1
    82    63    60   am
    83   106   105    1
    84   106   107    2
    85     7     8    1
    86    29    30    1
    87    23    24    1
    88    23    26    1
    89    23    22    1
    90   105   104    1
    91    75    77    1
    92    24    25    2
    93    26    27    1
    94    87    90    1
    95    87    86    1
    96    90    91    1
    97    90    92    1
    98    12    11    1
    99    60    59    1
   100    60    61    2
   101    11     8    1
   102     8     9    1
   103    30    31    2
   104    59    62    1
   105    59    58    1
   106    53    52    1
   107     9    10    2
   108    52    49    1
   109    51    50    2
   110    39    38    2
   111    21    20    1
   112    49    50    1
   113    49    48    1
   114    55    54    1
   115    55    56    1
   116    38    48   am
   117    38    37    1
   118    20    19    1
   119    43    45   ar
   120    43    41   ar
   121    37    40    1
   122    37    36    1
   123    19    18    1
   124    45    46   ar
   125    56    57    2
   126    40    41    1
   127    41    42   ar
   128    18    17    1
   129    13    14    1
   130    46    47    1
   131    46    44   ar
   132    17    14    1
   133    14    15    1
   134    42    44   ar
   135    15    16    2
