@<TRIPOS>MOLECULE
tmp/3ndgA00.pdb
 137 129 0 0 0
SMALL
GASTEIGER

@<TRIPOS>ATOM
      1  N        -14.8080  -11.2610    5.6020 N.3    42  SER42      -0.1217
      2  CA       -14.2840  -11.0030    6.9080 C.3    42  SER42       0.1889
      3  C        -15.1870  -10.0970    7.7720 C.2    42  SER42       0.2288
      4  O        -14.8680   -9.9100    8.8950 O.2    42  SER42      -0.2866
      5  CB       -12.8100  -10.5250    6.9160 C.3    42  SER42       0.2089
      6  OG       -11.8680  -11.3270    6.2760 O.3    42  SER42      -0.2183
      7  N        -16.2490  -10.7080   11.5750 N.3    45  LYS45      -0.1245
      8  CA       -15.3150  -10.6170   12.7160 C.3    45  LYS45       0.1561
      9  C        -15.7190   -9.5210   13.7110 C.2    45  LYS45       0.2260
     10  O        -15.3810   -9.6080   14.8870 O.2    45  LYS45      -0.2867
     11  CB       -13.8490  -10.4110   12.2430 C.3    45  LYS45       0.0271
     12  CG       -13.3180  -11.5640   11.4010 C.3    45  LYS45       0.0035
     13  CD       -11.9540  -11.2530   10.7730 C.3    45  LYS45       0.0206
     14  CE       -11.6040  -12.3300    9.7190 C.3    45  LYS45       0.1093
     15  NZ       -10.4030  -11.8750    8.9270 N.3    45  LYS45      -0.1314
     16  N         -4.8100  -18.8200    6.4410 N.3    74  SER74      -0.1202
     17  CA        -5.4440  -17.6670    5.7950 C.3    74  SER74       0.2020
     18  C         -4.6170  -16.4130    6.0960 C.2    74  SER74       0.2618
     19  O         -3.7010  -16.4630    6.9120 O.2    74  SER74      -0.2717
     20  CB        -6.8880  -17.4970    6.3070 C.3    74  SER74       0.2103
     21  OG        -6.8660  -17.2260    7.7090 O.3    74  SER74      -0.2182
     22  N         -4.9280  -15.2970    5.4370 N.am   75  ILE75      -0.1979
     23  CA        -4.1740  -14.0570    5.5990 C.3    75  ILE75       0.1595
     24  C         -4.2540  -13.6660    7.0810 C.2    75  ILE75       0.2287
     25  O         -5.3610  -13.4750    7.6230 O.2    75  ILE75      -0.2864
     26  CB        -4.7260  -12.9300    4.6540 C.3    75  ILE75       0.0276
     27  CG1       -4.4040  -13.2460    3.1810 C.3    75  ILE75       0.0022
     28  CG2       -4.1930  -11.5370    5.0510 C.3    75  ILE75       0.0022
     29  CD1       -5.1610  -12.3510    2.1740 C.3    75  ILE75       0.0001
     30  N         -6.6390   -5.7690   11.6560 N.3    99  TYR99      -0.1227
     31  CA        -5.8330   -6.3280   10.5630 C.3    99  TYR99       0.1736
     32  C         -6.5640   -7.4120    9.8050 C.2    99  TYR99       0.2596
     33  O         -6.0180   -8.0020    8.8770 O.2    99  TYR99      -0.2718
     34  CB        -4.5190   -6.8650   11.1220 C.3    99  TYR99       0.0548
     35  CG        -3.6300   -5.7230   11.5010 C.ar   99  TYR99      -0.0200
     36  CD1       -3.5810   -5.2590   12.8230 C.ar   99  TYR99      -0.0009
     37  CD2       -2.8800   -5.0530   10.5220 C.ar   99  TYR99      -0.0009
     38  CE1       -2.7650   -4.1840   13.1760 C.ar   99  TYR99       0.0417
     39  CE2       -2.0580   -3.9760   10.8680 C.ar   99  TYR99       0.0417
     40  CZ        -2.0210   -3.5480   12.1910 C.ar   99  TYR99       0.1957
     41  OH        -1.2320   -2.4810   12.5260 O.3    99  TYR99      -0.2866
     42  N         -7.8110   -7.6450   10.1830 N.am  100  SER100     -0.1952
     43  CA        -8.5920   -8.7590    9.6500 C.3   100  SER100      0.1924
     44  C         -7.8200  -10.0890    9.6260 C.2   100  SER100      0.2314
     45  O         -7.8120  -10.8050    8.6170 O.2   100  SER100     -0.2863
     46  CB        -9.1630   -8.4140    8.2730 C.3   100  SER100      0.2116
     47  OG       -10.3210   -9.1900    8.0420 O.3   100  SER100     -0.2180
     48  N         -7.0600  -13.6920    9.9210 N.3   102  GLY102     -0.1225
     49  CA        -7.9140  -14.8690    9.7600 C.3   102  GLY102      0.1811
     50  C         -7.7060  -15.9330   10.8200 C.2   102  GLY102      0.2280
     51  O         -8.6540  -16.5730   11.2660 O.2   102  GLY102     -0.2866
     52  N        -12.4320  -19.4800    8.1330 N.3   140  ALA140     -0.1231
     53  CA       -11.4770  -19.0740    7.0930 C.3   140  ALA140      0.1679
     54  C        -10.4970  -20.2220    6.7780 C.2   140  ALA140      0.2434
     55  O        -10.0790  -20.9390    7.6950 O.2   140  ALA140     -0.2733
     56  CB       -10.7280  -17.8000    7.5180 C.3   140  ALA140      0.0304
     57  N        -10.1210  -20.4010    5.4860 N.am  141  PRO141     -0.2729
     58  CA       -10.4670  -19.6080    4.2890 C.3   141  PRO141      0.1401
     59  C        -11.8120  -19.9270    3.6150 C.2   141  PRO141      0.2269
     60  O        -12.2140  -19.2080    2.6930 O.2   141  PRO141     -0.2865
     61  CB        -9.3230  -19.9430    3.3160 C.3   141  PRO141      0.0296
     62  CG        -8.9450  -21.3540    3.6640 C.3   141  PRO141      0.0237
     63  CD        -9.1980  -21.5110    5.1570 C.3   141  PRO141      0.0939
     64  N        -15.0750  -17.4760    2.4750 N.3   144  ASN144     -0.1225
     65  CA       -14.9580  -16.4430    1.4140 C.3   144  ASN144      0.1785
     66  C        -15.1300  -17.0260   -0.0160 C.2   144  ASN144      0.2597
     67  O        -14.9840  -16.3230   -1.0300 O.2   144  ASN144     -0.2718
     68  CB       -13.6040  -15.7480    1.5040 C.3   144  ASN144      0.1169
     69  CG       -13.4020  -15.0060    2.8220 C.2   144  ASN144      0.2627
     70  OD1      -13.0360  -15.5870    3.8090 O.2   144  ASN144     -0.2716
     71  ND2      -13.5980  -13.7530    2.7990 N.am  144  ASN144     -0.0877
     72  N        -15.3790  -18.3310   -0.0550 N.am  145  ARG145     -0.1979
     73  CA       -15.2480  -19.1410   -1.2820 C.3   145  ARG145      0.1597
     74  C        -16.5420  -19.7580   -1.8250 C.2   145  ARG145      0.2287
     75  O        -16.5150  -20.4570   -2.8530 O.2   145  ARG145     -0.2864
     76  CB       -14.2670  -20.2890   -1.0340 C.3   145  ARG145      0.0334
     77  CG       -12.8410  -19.8610   -0.8110 C.3   145  ARG145      0.0492
     78  CD       -11.9650  -21.0820   -0.6260 C.3   145  ARG145      0.2205
     79  NE       -10.5870  -20.7040   -0.3370 N.pl3 145  ARG145     -0.0865
     80  CZ        -9.6200  -21.5590   -0.0170 C.cat 145  ARG145      0.5346
     81  NH1       -9.8810  -22.8650    0.0600 N.pl3 145  ARG145      0.1354
     82  NH2       -8.3920  -21.0980    0.2320 N.pl3 145  ARG145      0.1354
     83  N         -7.6060   -1.4330    7.6820 N.3   190  THR190     -0.1218
     84  CA        -7.8270   -2.0100    6.3430 C.3   190  THR190      0.1862
     85  C         -8.8660   -1.2790    5.4790 C.2   190  THR190      0.2287
     86  O         -9.2040   -1.7610    4.4000 O.2   190  THR190     -0.2866
     87  CB        -8.2920   -3.4440    6.4440 C.3   190  THR190      0.1770
     88  OG1       -9.6000   -3.4550    7.0370 O.3   190  THR190     -0.2211
     89  CG2       -7.3070   -4.2750    7.2820 C.3   190  THR190      0.0375
     90  N        -12.3180    2.4930    1.2810 N.3   194  ARG194     -0.1245
     91  CA       -13.7050    2.0780    1.1160 C.3   194  ARG194      0.1563
     92  C        -14.6420    3.1430    1.6740 C.2   194  ARG194      0.2260
     93  O        -14.6170    4.2780    1.1400 O.2   194  ARG194     -0.2867
     94  CB       -13.9190    0.6260    1.6100 C.3   194  ARG194      0.0307
     95  CG       -13.0270   -0.3510    0.8060 C.3   194  ARG194      0.0489
     96  CD       -13.0970   -1.8130    1.3160 C.3   194  ARG194      0.2205
     97  NE       -12.0870   -2.6540    0.6610 N.pl3 194  ARG194     -0.0865
     98  CZ       -12.1400   -3.9890    0.6190 C.cat 194  ARG194      0.5346
     99  NH1      -11.1790   -4.6780   -0.0030 N.pl3 194  ARG194      0.1354
    100  NH2      -13.1880   -4.6330    1.1550 N.pl3 194  ARG194      0.1354
    101  N        -13.9360   -4.3570    7.1990 N.3   209  THR209     -0.1203
    102  CA       -13.9820   -4.6780    5.7700 C.3   209  THR209      0.1994
    103  C        -14.0870   -6.2010    5.5640 C.2   209  THR209      0.2618
    104  O        -13.9160   -6.9870    6.5100 O.2   209  THR209     -0.2717
    105  CB       -12.6910   -4.1930    5.0840 C.3   209  THR209      0.1784
    106  OG1      -11.5470   -4.6040    5.8650 O.3   209  THR209     -0.2211
    107  CG2      -12.6900   -2.6330    4.9850 C.3   209  THR209      0.0376
    108  N        -14.3900   -6.6040    4.3330 N.am  210  GLY210     -0.1942
    109  CA       -14.2370   -7.9890    3.9160 C.3   210  GLY210      0.2014
    110  C        -13.8960   -8.0470    2.4430 C.2   210  GLY210      0.2640
    111  O        -14.2900   -7.1640    1.6670 O.2   210  GLY210     -0.2714
    112  N        -13.1330   -9.0730    2.0730 N.am  211  THR211     -0.1936
    113  CA       -12.7130   -9.3010    0.6830 C.3   211  THR211      0.2028
    114  C        -12.7320  -10.8210    0.4280 C.2   211  THR211      0.2643
    115  O        -12.3500  -11.6050    1.3040 O.2   211  THR211     -0.2714
    116  CB       -11.2940   -8.7390    0.4400 C.3   211  THR211      0.1808
    117  OG1      -11.2550   -7.3620    0.8300 O.3   211  THR211     -0.2208
    118  CG2      -10.8700   -8.8800   -1.0080 C.3   211  THR211      0.0379
    119  N        -13.1590  -11.2210   -0.7670 N.am  212  GLY212     -0.1939
    120  CA       -13.1840  -12.6350   -1.1510 C.3   212  GLY212      0.2014
    121  C        -12.9500  -12.8780   -2.6330 C.2   212  GLY212      0.2638
    122  O        -12.6260  -11.9790   -3.3890 O.2   212  GLY212     -0.2714
    123  N        -13.1460  -14.1290   -3.0420 N.am  213  ASP213     -0.1971
    124  CA       -13.0830  -14.5210   -4.4380 C.3   213  ASP213      0.1709
    125  C        -14.3100  -14.0010   -5.1480 C.2   213  ASP213      0.2293
    126  O        -15.1730  -13.4350   -4.4850 O.2   213  ASP213     -0.2864
    127  CB       -13.0170  -16.0380   -4.4750 C.3   213  ASP213      0.1436
    128  CG       -11.8710  -16.5370   -3.6660 C.2   213  ASP213      0.3671
    129  OD1      -10.7460  -16.1560   -4.0330 O.co2 213  ASP213     -0.2456
    130  OD2      -12.0970  -17.2460   -2.6610 O.co2 213  ASP213     -0.2456
    131  N        -11.4660   -7.8550   -6.6650 N.3   248  PRO248     -0.2116
    132  CA       -12.3340   -6.9690   -5.8550 C.3   248  PRO248      0.1372
    133  C        -12.0250   -5.5320   -6.2310 C.2   248  PRO248      0.2244
    134  O        -10.8670   -5.2250   -6.5310 O.2   248  PRO248     -0.2868
    135  CB       -11.8850   -7.2470   -4.4170 C.3   248  PRO248      0.0268
    136  CG       -11.2300   -8.5990   -4.4760 C.3   248  PRO248      0.0207
    137  CD       -10.5530   -8.6580   -5.8270 C.3   248  PRO248      0.0892
@<TRIPOS>BOND
     1   131   132    1
     2   131   137    1
     3   134   133    2
     4   133   132    1
     5   132   135    1
     6   137   136    1
     7   125   126    2
     8   125   124    1
     9   136   135    1
    10   127   124    1
    11   127   128    1
    12   124   123    1
    13   129   128   ar
    14   128   130   ar
    15   122   121    2
    16   123   121   am
    17    75    74    2
    18   121   120    1
    19    74    73    1
    20    73    76    1
    21    73    72    1
    22   120   119    1
    23    76    77    1
    24    67    66    2
    25   118   116    1
    26    77    78    1
    27   119   114   am
    28    78    79    1
    29    79    80    2
    30    72    66   am
    31    80    81    1
    32    80    82    1
    33    66    65    1
    34    99    98    1
    35   114   113    1
    36   114   115    2
    37   116   113    1
    38   116   117    1
    39    98    97    2
    40    98   100    1
    41    97    96    1
    42   113   112    1
    43    95    96    1
    44    95    94    1
    45    91    90    1
    46    91    94    1
    47    91    92    1
    48    93    92    2
    49    65    68    1
    50    65    64    1
    51    68    69    1
    52   111   110    2
    53   112   110   am
    54    29    27    1
    55   110   109    1
    56    60    59    2
    57    71    69   am
    58    69    70    2
    59    27    26    1
    60    61    62    1
    61    61    58    1
    62    59    58    1
    63    62    63    1
    64   109   108    1
    65    58    57    1
    66   108   103   am
    67    86    85    2
    68    26    28    1
    69    26    23    1
    70   107   105    1
    71   105   102    1
    72   105   106    1
    73    63    57    1
    74    22    23    1
    75    22    18   am
    76    85    84    1
    77    57    54   am
    78   103   102    1
    79   103   104    2
    80    23    24    1
    81     1     2    1
    82   102   101    1
    83    17    18    1
    84    17    20    1
    85    17    16    1
    86    18    19    2
    87     6     5    1
    88    20    21    1
    89    84    87    1
    90    84    83    1
    91    87    88    1
    92    87    89    1
    93    54    53    1
    94    54    55    2
    95     2     5    1
    96     2     3    1
    97    24    25    2
    98    53    56    1
    99    53    52    1
   100     3     4    2
   101    47    46    1
   102    46    43    1
   103    45    44    2
   104    33    32    2
   105    15    14    1
   106    44    43    1
   107    43    42    1
   108    14    13    1
   109    49    48    1
   110    49    50    1
   111    32    42   am
   112    32    31    1
   113    37    39   ar
   114    37    35   ar
   115    31    34    1
   116    31    30    1
   117    13    12    1
   118    50    51    2
   119    39    40   ar
   120    34    35    1
   121    12    11    1
   122    35    36   ar
   123     7     8    1
   124    40    41    1
   125    40    38   ar
   126    11     8    1
   127     8     9    1
   128    36    38   ar
   129     9    10    2
