@<TRIPOS>MOLECULE
tmp/3ndmC00.pdb
 202 194 0 0 0
SMALL
GASTEIGER

@<TRIPOS>ATOM
      1  N        -34.8470   20.8870   25.4650 N.3    78  ILE78      -0.1231
      2  CA       -33.9330   21.0330   24.3310 C.3    78  ILE78       0.1692
      3  C        -33.0030   19.8210   24.0660 C.2    78  ILE78       0.2593
      4  O        -32.5380   19.6080   22.9540 O.2    78  ILE78      -0.2718
      5  CB       -33.1390   22.3770   24.4160 C.3    78  ILE78       0.0266
      6  CG1      -31.8440   22.2340   25.2060 C.3    78  ILE78       0.0019
      7  CG2      -33.9910   23.4470   25.0610 C.3    78  ILE78       0.0020
      8  CD1      -31.1580   23.5450   25.4080 C.3    78  ILE78       0.0001
      9  N        -32.7510   18.9950   25.0610 N.am   79  GLY79      -0.1942
     10  CA       -31.8840   17.8580   24.8210 C.3    79  GLY79       0.2014
     11  C        -32.2470   16.6450   25.6500 C.2    79  GLY79       0.2639
     12  O        -33.1280   16.7270   26.5050 O.2    79  GLY79      -0.2714
     13  N        -31.5790   15.5190   25.4030 N.am   80  ARG80      -0.1963
     14  CA       -31.8190   14.3060   26.1820 C.3    80  ARG80       0.1729
     15  C        -30.7190   13.2950   25.9210 C.2    80  ARG80       0.2617
     16  O        -30.3280   13.0760   24.7870 O.2    80  ARG80      -0.2715
     17  CB       -33.1820   13.6880   25.8500 C.3    80  ARG80       0.0348
     18  CG       -33.5590   12.4980   26.7080 C.3    80  ARG80       0.0492
     19  CD       -34.8390   12.7800   27.4860 C.3    80  ARG80       0.2205
     20  NE       -36.0210   12.7360   26.6330 N.pl3  80  ARG80      -0.0865
     21  CZ       -37.2560   12.9930   27.0580 C.cat  80  ARG80       0.5346
     22  NH1      -37.4690   13.3150   28.3360 N.pl3  80  ARG80       0.1354
     23  NH2      -38.2810   12.9270   26.2080 N.pl3  80  ARG80       0.1354
     24  N        -30.2130   12.6800   26.9760 N.am   81  GLY81      -0.1940
     25  CA       -29.1330   11.7260   26.8310 C.3    81  GLY81       0.2014
     26  C        -29.3850   10.5430   27.7200 C.2    81  GLY81       0.2639
     27  O        -30.4030   10.4890   28.4030 O.2    81  GLY81      -0.2714
     28  N        -28.4540    9.5990   27.7230 N.am   82  ALA82      -0.1963
     29  CA       -28.6120    8.3890   28.5190 C.3    82  ALA82       0.1728
     30  C        -28.7980    8.6870   30.0160 C.2    82  ALA82       0.2616
     31  O        -29.6860    8.1360   30.6740 O.2    82  ALA82      -0.2715
     32  CB       -27.4290    7.4490   28.2930 C.3    82  ALA82       0.0334
     33  N        -27.9670    9.5770   30.5420 N.am   83  PHE83      -0.1960
     34  CA       -27.9360    9.8460   31.9690 C.3    83  PHE83       0.1774
     35  C        -28.8420   10.9690   32.4060 C.2    83  PHE83       0.2659
     36  O        -28.8670   11.2980   33.5810 O.2    83  PHE83      -0.2711
     37  CB       -26.5350   10.2550   32.3860 C.3    83  PHE83       0.0574
     38  CG       -25.5400    9.1370   32.3730 C.ar   83  PHE83      -0.0200
     39  CD1      -25.5710    8.1610   33.3550 C.ar   83  PHE83      -0.0042
     40  CD2      -24.5480    9.0950   31.4080 C.ar   83  PHE83      -0.0042
     41  CE1      -24.6750    7.1650   33.3680 C.ar   83  PHE83      -0.0003
     42  CE2      -23.6300    8.0970   31.4080 C.ar   83  PHE83      -0.0003
     43  CZ       -23.6960    7.1230   32.3930 C.ar   83  PHE83      -0.0000
     44  N        -29.5490   11.6000   31.4820 N.am   84  GLY84      -0.1716
     45  CA       -30.3300   12.7580   31.8640 C.2    84  GLY84       0.1480
     46  C        -30.8700   13.5680   30.7190 C.2    84  GLY84       0.2820
     47  O        -31.5580   13.0290   29.8680 O.2    84  GLY84      -0.2669
     48  N        -30.5590   14.8610   30.7040 N.am   85  GLU85      -0.1929
     49  CA       -31.1390   15.7650   29.7240 C.3    85  GLU85       0.1736
     50  C        -30.7670   17.2270   29.9530 C.2    85  GLU85       0.2616
     51  O        -30.5070   17.6420   31.0760 O.2    85  GLU85      -0.2715
     52  CB       -32.6650   15.6270   29.7440 C.3    85  GLU85       0.0429
     53  CG       -33.2950   15.7530   31.1290 C.3    85  GLU85       0.1163
     54  CD       -34.7900   16.0540   31.0820 C.2    85  GLU85       0.3649
     55  OE1      -35.1500   17.2200   30.8130 O.co2  85  GLU85      -0.2457
     56  OE2      -35.6000   15.1280   31.3220 O.co2  85  GLU85      -0.2457
     57  N        -30.7500   18.0100   28.8820 N.am   86  VAL86      -0.1977
     58  CA       -30.6670   19.4610   29.0300 C.3    86  VAL86       0.1596
     59  C        -32.0000   20.1720   28.7560 C.2    86  VAL86       0.2287
     60  O        -32.7950   19.6910   27.9570 O.2    86  VAL86      -0.2864
     61  CB       -29.6320   20.0660   28.0970 C.3    86  VAL86       0.0276
     62  CG1      -29.3050   21.5100   28.5480 C.3    86  VAL86       0.0022
     63  CG2      -28.3940   19.1750   28.0530 C.3    86  VAL86       0.0022
     64  N        -29.3950   27.3000   29.8120 N.3    99  ALA99      -0.1245
     65  CA       -29.5880   25.9090   29.4300 C.3    99  ALA99       0.1562
     66  C        -29.1150   24.9870   30.5400 C.2    99  ALA99       0.2260
     67  O        -27.9130   24.8720   30.7860 O.2    99  ALA99      -0.2867
     68  CB       -28.8170   25.6090   28.1860 C.3    99  ALA99       0.0290
     69  N        -28.8010   21.3850   32.0350 N.3   101  LYS101     -0.1231
     70  CA       -28.7090   19.9440   31.9090 C.3   101  LYS101      0.1693
     71  C        -28.7680   19.3230   33.2860 C.2   101  LYS101      0.2592
     72  O        -28.1330   19.8030   34.2190 O.2   101  LYS101     -0.2718
     73  CB       -27.3990   19.5760   31.2170 C.3   101  LYS101      0.0285
     74  CG       -26.7740   18.2460   31.5450 C.3   101  LYS101      0.0035
     75  CD       -25.4100   18.2580   30.9080 C.3   101  LYS101      0.0206
     76  CE       -24.6700   16.9550   31.0660 C.3   101  LYS101      0.1093
     77  NZ       -23.4250   16.9490   30.1990 N.3   101  LYS101     -0.1314
     78  N        -29.5670   18.2720   33.4080 N.am  102  LEU102     -0.1966
     79  CA       -29.6850   17.5420   34.6500 C.3   102  LEU102      0.1728
     80  C        -29.0040   16.2150   34.4740 C.2   102  LEU102      0.2616
     81  O        -28.9480   15.6640   33.3750 O.2   102  LEU102     -0.2715
     82  CB       -31.1450   17.3260   35.0350 C.3   102  LEU102      0.0311
     83  CG       -31.9330   18.4870   35.6390 C.3   102  LEU102      0.0022
     84  CD1      -31.8500   19.7390   34.8140 C.3   102  LEU102      0.0001
     85  CD2      -33.3650   18.1100   35.7610 C.3   102  LEU102      0.0001
     86  N        -28.4650   15.7220   35.5720 N.am  103  LEU103     -0.1977
     87  CA       -27.8820   14.4070   35.6240 C.3   103  LEU103      0.1596
     88  C        -28.6520   13.5780   36.6680 C.2   103  LEU103      0.2287
     89  O        -29.2730   14.1270   37.5870 O.2   103  LEU103     -0.2864
     90  CB       -26.4180   14.5550   35.9850 C.3   103  LEU103      0.0297
     91  CG       -25.7190   15.1170   34.7650 C.3   103  LEU103      0.0022
     92  CD1      -24.3440   15.6300   35.0840 C.3   103  LEU103      0.0001
     93  CD2      -25.6800   14.0060   33.7450 C.3   103  LEU103      0.0001
     94  N        -18.5540   26.4290   26.1970 N.3   133  VAL133     -0.1245
     95  CA       -19.7940   26.8630   26.7730 C.3   133  VAL133      0.1561
     96  C        -19.4620   27.2380   28.1930 C.2   133  VAL133      0.2260
     97  O        -18.6080   26.6050   28.8100 O.2   133  VAL133     -0.2867
     98  CB       -20.7950   25.7360   26.8280 C.3   133  VAL133      0.0252
     99  CG1      -21.9730   26.1580   27.6820 C.3   133  VAL133      0.0019
    100  CG2      -21.2330   25.3310   25.4360 C.3   133  VAL133      0.0019
    101  N        -26.0980   26.5590   32.2760 N.3   149  MET149     -0.1230
    102  CA       -25.1350   26.9370   31.2740 C.3   149  MET149      0.1702
    103  C        -25.7760   27.9550   30.3280 C.2   149  MET149      0.2592
    104  O        -27.0120   28.0700   30.2610 O.2   149  MET149     -0.2718
    105  CB       -24.7050   25.6950   30.4900 C.3   149  MET149      0.0401
    106  CG       -24.0910   24.5660   31.3180 C.3   149  MET149      0.0596
    107  SD       -24.1110   22.9780   30.4570 S.3   149  MET149     -0.1393
    108  CE       -25.7900   22.9950   29.8240 C.3   149  MET149      0.0692
    109  N        -24.9300   28.6980   29.6110 N.am  150  GLU150     -0.1966
    110  CA       -25.3730   29.6660   28.6110 C.3   150  GLU150      0.1733
    111  C        -26.1250   28.9610   27.5070 C.2   150  GLU150      0.2616
    112  O        -25.6300   28.0120   26.9030 O.2   150  GLU150     -0.2715
    113  CB       -24.1790   30.3810   27.9950 C.3   150  GLU150      0.0429
    114  CG       -23.2610   29.4690   27.2270 C.3   150  GLU150      0.1163
    115  CD       -22.1360   30.2060   26.5570 C.2   150  GLU150      0.3649
    116  OE1      -21.1640   30.5520   27.2560 O.co2 150  GLU150     -0.2457
    117  OE2      -22.2330   30.4610   25.3400 O.co2 150  GLU150     -0.2457
    118  N        -27.3330   29.4280   27.2430 N.am  151  TYR151     -0.1960
    119  CA       -28.1230   28.8440   26.1840 C.3   151  TYR151      0.1771
    120  C        -27.3720   28.9720   24.8610 C.2   151  TYR151      0.2619
    121  O        -26.6190   29.9220   24.6490 O.2   151  TYR151     -0.2715
    122  CB       -29.4810   29.5380   26.1060 C.3   151  TYR151      0.0574
    123  CG       -30.3740   28.9880   25.0180 C.ar  151  TYR151     -0.0198
    124  CD1      -30.3220   27.6520   24.6630 C.ar  151  TYR151     -0.0009
    125  CD2      -31.2510   29.8130   24.3280 C.ar  151  TYR151     -0.0009
    126  CE1      -31.1320   27.1470   23.6640 C.ar  151  TYR151      0.0417
    127  CE2      -32.0630   29.3150   23.3200 C.ar  151  TYR151      0.0417
    128  CZ       -32.0020   27.9800   22.9940 C.ar  151  TYR151      0.1957
    129  OH       -32.8130   27.4720   21.9990 O.3   151  TYR151     -0.2866
    130  N        -27.5630   28.0020   23.9770 N.am  152  MET152     -0.1977
    131  CA       -27.0340   28.1030   22.6290 C.3   152  MET152      0.1605
    132  C        -28.1750   28.0280   21.6330 C.2   152  MET152      0.2287
    133  O        -28.4640   26.9470   21.1060 O.2   152  MET152     -0.2864
    134  CB       -26.0920   26.9520   22.3450 C.3   152  MET152      0.0413
    135  CG       -24.9070   26.8520   23.2640 C.3   152  MET152      0.0598
    136  SD       -23.3970   27.6440   22.6790 S.3   152  MET152     -0.1393
    137  CE       -23.7110   29.3260   23.1810 C.3   152  MET152      0.0692
    138  N        -26.8780   22.2340   17.3960 N.3   156  ASP156     -0.1239
    139  CA       -25.8370   21.2400   17.1610 C.3   156  ASP156      0.1674
    140  C        -25.4180   21.2350   15.6960 C.2   156  ASP156      0.2266
    141  O        -26.2320   21.4730   14.8000 O.2   156  ASP156     -0.2867
    142  CB       -26.3090   19.8460   17.5930 C.3   156  ASP156      0.1410
    143  CG       -27.6560   19.4730   16.9920 C.2   156  ASP156      0.3668
    144  OD1      -28.5400   20.3550   16.9140 O.co2 156  ASP156     -0.2456
    145  OD2      -27.8340   18.2990   16.5990 O.co2 156  ASP156     -0.2456
    146  N        -17.4510   15.2810   17.8080 N.3   196  LYS196     -0.1245
    147  CA       -18.5780   14.9360   16.9510 C.3   196  LYS196      0.1561
    148  C        -19.5630   16.1050   16.8690 C.2   196  LYS196      0.2260
    149  O        -19.6100   16.9320   17.7740 O.2   196  LYS196     -0.2867
    150  CB       -19.2830   13.7030   17.4880 C.3   196  LYS196      0.0271
    151  CG       -20.1770   13.9810   18.6420 C.3   196  LYS196      0.0035
    152  CD       -20.7150   12.6960   19.1880 C.3   196  LYS196      0.0206
    153  CE       -21.3570   12.9260   20.5430 C.3   196  LYS196      0.1093
    154  NZ       -21.5550   11.6470   21.2840 N.3   196  LYS196     -0.1314
    155  N        -22.4900   16.2450   17.4690 N.3   198  ASP198     -0.1225
    156  CA       -23.4410   16.2490   18.5680 C.3   198  ASP198      0.1805
    157  C        -22.9560   17.1610   19.6620 C.2   198  ASP198      0.2597
    158  O        -23.7590   17.7090   20.4170 O.2   198  ASP198     -0.2718
    159  CB       -23.6300   14.8550   19.1260 C.3   198  ASP198      0.1424
    160  CG       -24.4180   13.9840   18.2030 C.2   198  ASP198      0.3668
    161  OD1      -23.8150   13.4680   17.2340 O.co2 198  ASP198     -0.2456
    162  OD2      -25.6380   13.8380   18.4370 O.co2 198  ASP198     -0.2456
    163  N        -21.6380   17.3230   19.7440 N.am  199  ASN199     -0.1974
    164  CA       -21.0220   18.0960   20.8160 C.3   199  ASN199      0.1688
    165  C        -20.6860   19.5320   20.4530 C.2   199  ASN199      0.2292
    166  O        -20.0780   20.2450   21.2480 O.2   199  ASN199     -0.2864
    167  CB       -19.7710   17.3880   21.3190 C.3   199  ASN199      0.1181
    168  CG       -20.0960   16.0970   22.0570 C.2   199  ASN199      0.2629
    169  OD1      -21.1900   15.9480   22.6120 O.2   199  ASN199     -0.2716
    170  ND2      -19.1470   15.1610   22.0780 N.am  199  ASN199     -0.0877
    171  N        -21.9770   23.2860   19.3120 N.3   201  LEU201     -0.1245
    172  CA       -23.1230   24.1910   19.3810 C.3   201  LEU201      0.1561
    173  C        -22.7980   25.5780   18.8630 C.2   201  LEU201      0.2260
    174  O        -21.6410   25.9860   18.8430 O.2   201  LEU201     -0.2867
    175  CB       -23.6190   24.3370   20.8170 C.3   201  LEU201      0.0270
    176  CG       -24.0470   23.0760   21.5370 C.3   201  LEU201      0.0019
    177  CD1      -25.1930   23.4430   22.4670 C.3   201  LEU201      0.0001
    178  CD2      -24.4600   22.0120   20.5370 C.3   201  LEU201      0.0001
    179  N        -19.8790   21.3770   23.8760 N.3   211  ALA211     -0.1231
    180  CA       -20.8560   21.3500   24.9620 C.3   211  ALA211      0.1694
    181  C        -20.7980   20.1610   25.9360 C.2   211  ALA211      0.2592
    182  O        -21.1720   20.2930   27.1030 O.2   211  ALA211     -0.2718
    183  CB       -22.2800   21.4980   24.3840 C.3   211  ALA211      0.0304
    184  N        -20.3350   19.0060   25.4750 N.am  212  ASP212     -0.1974
    185  CA       -20.2640   17.8440   26.3510 C.3   212  ASP212      0.1709
    186  C        -18.8190   17.5120   26.6010 C.2   212  ASP212      0.2293
    187  O        -18.0140   17.5640   25.6870 O.2   212  ASP212     -0.2864
    188  CB       -20.9510   16.6390   25.7160 C.3   212  ASP212      0.1436
    189  CG       -22.0720   16.1070   26.5620 C.2   212  ASP212      0.3671
    190  OD1      -21.8000   15.3930   27.5500 O.co2 212  ASP212     -0.2456
    191  OD2      -23.2310   16.4200   26.2430 O.co2 212  ASP212     -0.2456
    192  N        -33.6610   23.0940   17.4500 N.3   337  PHE337     -0.1241
    193  CA       -33.6360   21.8460   18.2080 C.3   337  PHE337      0.1605
    194  C        -34.9140   21.0470   17.9980 C.2   337  PHE337      0.2264
    195  O        -36.0130   21.5990   18.1240 O.2   337  PHE337     -0.2867
    196  CB       -33.4960   22.1200   19.7090 C.3   337  PHE337      0.0534
    197  CG       -32.2270   22.8280   20.1040 C.ar  337  PHE337     -0.0203
    198  CD1      -32.2750   24.0790   20.7050 C.ar  337  PHE337     -0.0042
    199  CD2      -30.9940   22.2330   19.9030 C.ar  337  PHE337     -0.0042
    200  CE1      -31.1190   24.7260   21.0730 C.ar  337  PHE337     -0.0003
    201  CE2      -29.8390   22.8760   20.2710 C.ar  337  PHE337     -0.0003
    202  CZ       -29.8990   24.1260   20.8530 C.ar  337  PHE337     -0.0000
@<TRIPOS>BOND
     1   141   140    2
     2   140   139    1
     3   145   143   ar
     4   148   147    1
     5   148   149    2
     6   144   143   ar
     7   147   150    1
     8   147   146    1
     9   143   142    1
    10   139   138    1
    11   139   142    1
    12   161   160   ar
    13   192   193    1
    14   155   156    1
    15   150   151    1
    16   194   195    2
    17   194   193    1
    18   160   162   ar
    19   160   159    1
    20   193   196    1
    21   156   159    1
    22   156   157    1
    23   151   152    1
    24   174   173    2
    25   173   172    1
    26   152   153    1
    27   171   172    1
    28   172   175    1
    29   157   163   am
    30   157   158    2
    31   196   197    1
    32   163   164    1
    33   199   197   ar
    34   199   201   ar
    35   197   198   ar
    36   201   202   ar
    37   165   164    1
    38   165   166    2
    39   178   176    1
    40   153   154    1
    41   198   200   ar
    42   164   167    1
    43   175   176    1
    44   202   200   ar
    45   133   132    2
    46   167   168    1
    47   176   177    1
    48   132   131    1
    49   129   128    1
    50   168   170   am
    51   168   169    2
    52   134   131    1
    53   134   135    1
    54   131   130    1
    55   136   137    1
    56   136   135    1
    57     4     3    2
    58   128   127   ar
    59   128   126   ar
    60   127   125   ar
    61   126   124   ar
    62   179   180    1
    63   130   120   am
    64     3     2    1
    65     3     9   am
    66   125   123   ar
    67     2     5    1
    68     2     1    1
    69   183   180    1
    70     5     7    1
    71     5     6    1
    72   121   120    2
    73   124   123   ar
    74    16    15    2
    75    10     9    1
    76    10    11    1
    77   120   119    1
    78   180   181    1
    79   123   122    1
    80     6     8    1
    81   117   115   ar
    82    13    11   am
    83    13    14    1
    84   100    98    1
    85   184   181   am
    86   184   185    1
    87    11    12    2
    88   187   186    2
    89   188   185    1
    90   188   189    1
    91    17    14    1
    92    17    18    1
    93    15    14    1
    94    15    24   am
    95   181   182    2
    96   122   119    1
    97   119   118    1
    98    94    95    1
    99    23    21    1
   100   191   189   ar
   101   185   186    1
   102   115   114    1
   103   115   116   ar
   104   189   190   ar
   105    20    21    2
   106    20    19    1
   107    18    19    1
   108    95    98    1
   109    95    96    1
   110    98    99    1
   111    25    24    1
   112    25    26    1
   113   112   111    2
   114    21    22    1
   115   114   113    1
   116   118   111   am
   117   111   110    1
   118    26    28   am
   119    26    27    2
   120    28    29    1
   121    60    59    2
   122   113   110    1
   123    63    61    1
   124    61    62    1
   125    61    58    1
   126    68    65    1
   127    96    97    2
   128    32    29    1
   129    29    30    1
   130   110   109    1
   131    59    58    1
   132    57    58    1
   133    57    50   am
   134    65    64    1
   135    65    66    1
   136   109   103   am
   137    49    52    1
   138    49    50    1
   139    49    48    1
   140    52    53    1
   141   108   107    1
   142    47    46    2
   143    50    51    2
   144    30    33   am
   145    30    31    2
   146    77    76    1
   147   104   103    2
   148   103   102    1
   149   107   106    1
   150   105   102    1
   151   105   106    1
   152    66    67    2
   153    33    34    1
   154    48    46   am
   155    46    45    1
   156    55    54   ar
   157    75    76    1
   158    75    74    1
   159    54    53    1
   160    54    56   ar
   161    73    74    1
   162    73    70    1
   163   102   101    1
   164    40    42   ar
   165    40    38   ar
   166    42    43   ar
   167    44    45    2
   168    44    35    1
   169    70    69    1
   170    70    71    1
   171    34    37    1
   172    34    35    1
   173    38    37    1
   174    38    39   ar
   175    43    41   ar
   176    35    36    2
   177    71    78   am
   178    71    72    2
   179    39    41   ar
   180    81    80    2
   181    78    79    1
   182    93    91    1
   183    80    79    1
   184    80    86   am
   185    79    82    1
   186    91    92    1
   187    91    90    1
   188    84    83    1
   189    82    83    1
   190    86    87    1
   191    87    90    1
   192    87    88    1
   193    83    85    1
   194    88    89    2
