@<TRIPOS>MOLECULE
tmp/3ndtC00.pdb
 120 112 0 0 0
SMALL
GASTEIGER

@<TRIPOS>ATOM
      1  N          4.1940   14.7830   12.4360 N.3     8  ARG8       -0.1301
      2  CA         3.5830   15.3170   11.2130 C.3     8  ARG8        0.1248
      3  C          2.6000   16.4160   11.5650 C.3     8  ARG8        0.2009
      4  O          1.9260   16.1650   12.5760 O.3     8  ARG8       -0.2188
      5  CB         2.8930   14.1590   10.4990 C.3     8  ARG8        0.0254
      6  CG         3.8730   13.1300    9.9760 C.3     8  ARG8        0.0485
      7  CD         3.1390   12.0010    9.2450 C.3     8  ARG8        0.2205
      8  NE         4.1360   11.0110    8.8160 N.pl3   8  ARG8       -0.0865
      9  CZ         3.9350    9.7160    8.6720 C.cat   8  ARG8        0.5346
     10  NH1        2.7180    9.2430    8.9340 N.pl3   8  ARG8        0.1354
     11  NH2        4.9130    8.8910    8.2770 N.pl3   8  ARG8        0.1354
     12  N         -2.6110   16.7440    6.3970 N.3    23  LEU23      -0.1245
     13  CA        -1.2390   17.2100    6.5660 C.3    23  LEU23       0.1561
     14  C         -1.0260   18.5990    5.9730 C.2    23  LEU23       0.2260
     15  O         -1.2100   18.8490    4.7840 O.2    23  LEU23      -0.2867
     16  CB        -0.3510   16.1350    5.9390 C.3    23  LEU23       0.0270
     17  CG         1.1490   16.2800    5.9590 C.3    23  LEU23       0.0019
     18  CD1        1.6930   15.9050    7.3240 C.3    23  LEU23       0.0001
     19  CD2        1.7910   15.3750    4.9010 C.3    23  LEU23       0.0001
     20  N          1.1560   20.9860    4.3480 N.3    25  ASP25      -0.1239
     21  CA         2.3670   20.6920    3.5710 C.3    25  ASP25       0.1674
     22  C          2.9140   21.8610    2.7720 C.2    25  ASP25       0.2266
     23  O          2.4390   22.1160    1.6650 O.2    25  ASP25      -0.2867
     24  CB         2.0380   19.5690    2.5840 C.3    25  ASP25       0.1410
     25  CG         3.2520   19.0270    1.8810 C.2    25  ASP25       0.3668
     26  OD1        4.3620   19.5570    2.1390 O.co2  25  ASP25      -0.2456
     27  OD2        3.0850   18.0680    1.0770 O.co2  25  ASP25      -0.2456
     28  N          5.4800   21.9350    1.0650 N.3    27  GLY27      -0.1210
     29  CA         6.1180   21.5130   -0.1550 C.3    27  GLY27       0.1956
     30  C          5.1920   21.0870   -1.2750 C.2    27  GLY27       0.2612
     31  O          5.6870   20.6100   -2.3060 O.2    27  GLY27      -0.2717
     32  N          3.8870   21.2290   -1.0670 N.am   28  ALA28      -0.1965
     33  CA         2.9030   20.8120   -2.0750 C.3    28  ALA28       0.1728
     34  C          2.2980   22.0390   -2.7330 C.2    28  ALA28       0.2616
     35  O          1.9140   22.9510   -1.9930 O.2    28  ALA28      -0.2715
     36  CB         1.8390   19.9680   -1.4080 C.3    28  ALA28       0.0334
     37  N          2.2240   22.0510   -4.0620 N.am   29  ASP29      -0.1957
     38  CA         1.6540   23.1980   -4.7520 C.3    29  ASP29       0.1840
     39  C          0.1210   23.1630   -4.6210 C.2    29  ASP29       0.2622
     40  O         -0.5120   24.2170   -4.6360 O.2    29  ASP29      -0.2715
     41  CB         1.9820   23.2320   -6.2340 C.3    29  ASP29       0.1450
     42  CG         3.4420   23.4030   -6.5700 C.2    29  ASP29       0.3671
     43  OD1        4.2620   23.8900   -5.7610 O.co2  29  ASP29      -0.2456
     44  OD2        3.7990   23.0350   -7.7110 O.co2  29  ASP29      -0.2456
     45  N         -0.3390   21.9290   -4.5210 N.am   30  ASP30      -0.1971
     46  CA        -1.7540   21.6230   -4.5830 C.3    30  ASP30       0.1709
     47  C         -2.2280   20.8640   -3.3390 C.2    30  ASP30       0.2293
     48  O         -1.4600   20.3310   -2.5310 O.2    30  ASP30      -0.2864
     49  CB        -2.0690   20.7840   -5.8200 C.3    30  ASP30       0.1436
     50  CG        -1.5550   21.2290   -7.1600 C.2    30  ASP30       0.3671
     51  OD1       -1.9700   22.2990   -7.6840 O.co2  30  ASP30      -0.2456
     52  OD2       -0.7300   20.4770   -7.7580 O.co2  30  ASP30      -0.2456
     53  N         -4.4860   17.6510   -2.1430 N.3    32  VAL32      -0.1245
     54  CA        -4.8890   16.3110   -2.5870 C.3    32  VAL32       0.1561
     55  C         -5.5190   15.5530   -1.4130 C.2    32  VAL32       0.2260
     56  O         -4.9480   15.4190   -0.3150 O.2    32  VAL32      -0.2867
     57  CB        -3.7410   15.4880   -3.1650 C.3    32  VAL32       0.0252
     58  CG1       -4.2800   14.2680   -3.9040 C.3    32  VAL32       0.0019
     59  CG2       -2.9200   16.3710   -4.1060 C.3    32  VAL32       0.0019
     60  N         -1.0650   14.3340  -11.6820 N.3    47  ILE47      -0.1231
     61  CA        -0.1260   15.1190  -10.8730 C.3    47  ILE47       0.1692
     62  C          0.9750   14.2120  -10.3540 C.2    47  ILE47       0.2593
     63  O          0.8390   12.9750  -10.2860 O.2    47  ILE47      -0.2718
     64  CB        -0.8100   15.8160   -9.6740 C.3    47  ILE47       0.0266
     65  CG1       -1.3130   14.7720   -8.6740 C.3    47  ILE47       0.0019
     66  CG2       -1.8780   16.7930  -10.1720 C.3    47  ILE47       0.0020
     67  CD1       -1.8290   15.2670   -7.3610 C.3    47  ILE47       0.0001
     68  N          2.0950   14.8670   -9.9750 N.am   48  GLY48      -0.1942
     69  CA         3.2180   14.0350   -9.6540 C.3    48  GLY48       0.2014
     70  C          3.8220   14.4000   -8.3310 C.2    48  GLY48       0.2639
     71  O          3.6260   15.4810   -7.7700 O.2    48  GLY48      -0.2714
     72  N          4.5650   13.4160   -7.8730 N.am   49  GLY49      -0.1939
     73  CA         5.2800   13.5050   -6.6160 C.3    49  GLY49       0.2014
     74  C          6.5530   12.6860   -6.6690 C.2    49  GLY49       0.2638
     75  O          7.0070   12.3600   -7.7760 O.2    49  GLY49      -0.2714
     76  N          7.0840   12.3590   -5.5030 N.am   50  ILE50      -0.1977
     77  CA         8.4210   11.7840   -5.4880 C.3    50  ILE50       0.1596
     78  C          8.4790   10.4450   -6.1820 C.2    50  ILE50       0.2287
     79  O          9.5620   10.0770   -6.6700 O.2    50  ILE50      -0.2864
     80  CB         8.9330   11.5920   -4.0460 C.3    50  ILE50       0.0276
     81  CG1       10.3980   11.9810   -3.8520 C.3    50  ILE50       0.0022
     82  CG2        8.6650   10.1600   -3.5990 C.3    50  ILE50       0.0022
     83  CD1       10.6870   12.6990   -2.5450 C.3    50  ILE50       0.0001
     84  N          0.0360   10.2840  -10.4610 N.3    54  ILE54      -0.1245
     85  CA        -1.2680    9.6630  -10.2040 C.3    54  ILE54       0.1561
     86  C         -2.3260   10.4700  -10.9500 C.2    54  ILE54       0.2260
     87  O         -2.1150   11.6690  -11.2210 O.2    54  ILE54      -0.2867
     88  CB        -1.6030    9.6110   -8.7130 C.3    54  ILE54       0.0252
     89  CG1       -1.5820   11.0130   -8.0950 C.3    54  ILE54       0.0019
     90  CG2       -0.7070    8.6450   -7.9170 C.3    54  ILE54       0.0019
     91  CD1       -2.2100   11.0800   -6.7250 C.3    54  ILE54       0.0001
     92  N         -4.1730    9.1750   -3.0300 N.3    80  THR80      -0.1204
     93  CA        -3.0800    9.5650   -2.1560 C.3    80  THR80       0.1979
     94  C         -3.1440    8.7550   -0.8760 C.2    80  THR80       0.2460
     95  O         -4.2510    8.3800   -0.4740 O.2    80  THR80      -0.2732
     96  CB        -3.1430   11.0780   -1.8420 C.3    80  THR80       0.1783
     97  OG1       -2.2020   11.3110   -0.7790 O.3    80  THR80      -0.2211
     98  CG2       -4.5230   11.5270   -1.3780 C.3    80  THR80       0.0376
     99  N         -2.0450    8.4400   -0.1990 N.am   81  PRO81      -0.2717
    100  CA        -2.1740    7.6780    1.0640 C.3    81  PRO81       0.1535
    101  C         -2.5030    8.6090    2.2310 C.2    81  PRO81       0.2598
    102  O         -2.9220    8.1890    3.3230 O.2    81  PRO81      -0.2715
    103  CB        -0.7830    7.0640    1.2290 C.3    81  PRO81       0.0310
    104  CG         0.1160    8.0790    0.6190 C.3    81  PRO81       0.0237
    105  CD        -0.6460    8.7300   -0.5160 C.3    81  PRO81       0.0939
    106  N         -2.3010    9.8970    1.9990 N.am   82  VAL82      -0.1978
    107  CA        -2.4540   10.8680    3.0830 C.3    82  VAL82       0.1596
    108  C         -3.1870   12.0670    2.5120 C.2    82  VAL82       0.2287
    109  O         -2.8390   12.4980    1.3950 O.2    82  VAL82      -0.2864
    110  CB        -1.0610   11.2340    3.6450 C.3    82  VAL82       0.0276
    111  CG1       -1.1030   12.5050    4.4840 C.3    82  VAL82       0.0022
    112  CG2       -0.4600   10.0740    4.4590 C.3    82  VAL82       0.0022
    113  N         -3.5040   15.8850    1.9070 N.3    84  ILE84      -0.1245
    114  CA        -2.4870   16.9400    1.9330 C.3    84  ILE84       0.1561
    115  C         -3.0490   18.3070    1.6620 C.2    84  ILE84       0.2260
    116  O         -3.7540   18.5530    0.6760 O.2    84  ILE84      -0.2867
    117  CB        -1.3960   16.6030    0.8820 C.3    84  ILE84       0.0252
    118  CG1       -0.7410   15.2430    1.1950 C.3    84  ILE84       0.0019
    119  CG2       -0.3780   17.6980    0.7280 C.3    84  ILE84       0.0019
    120  CD1       -0.1490   14.6270   -0.0610 C.3    84  ILE84       0.0001
@<TRIPOS>BOND
     1    60    61    1
     2    87    86    2
     3    86    85    1
     4    61    62    1
     5    61    64    1
     6    84    85    1
     7    62    63    2
     8    62    68   am
     9    85    88    1
    10    66    64    1
    11    68    69    1
    12    64    65    1
    13    69    70    1
    14    88    89    1
    15    88    90    1
    16    65    67    1
    17    70    72   am
    18    70    71    2
    19    89    91    1
    20    72    73    1
    21    75    74    2
    22    52    50   ar
    23    44    42   ar
    24    51    50   ar
    25    50    49    1
    26    79    78    2
    27    74    73    1
    28    74    76   am
    29    42    41    1
    30    42    43   ar
    31    41    38    1
    32    78    77    1
    33    49    46    1
    34    76    77    1
    35    77    80    1
    36    38    39    1
    37    38    37    1
    38    40    39    2
    39    39    45   am
    40    46    45    1
    41    46    47    1
    42    59    57    1
    43    37    34   am
    44    80    81    1
    45    80    82    1
    46    58    57    1
    47    81    83    1
    48    47    48    2
    49    57    54    1
    50    92    93    1
    51    34    33    1
    52    34    35    2
    53    54    53    1
    54    54    55    1
    55    31    30    2
    56    93    96    1
    57    93    94    1
    58    33    36    1
    59    33    32    1
    60    96    98    1
    61    96    97    1
    62    55    56    2
    63    30    32   am
    64    30    29    1
    65    94    95    2
    66    94    99   am
    67   105    99    1
    68   105   104    1
    69    99   100    1
    70    29    28    1
    71   120   118    1
    72   104   103    1
    73   116   115    2
    74   119   117    1
    75   117   118    1
    76   117   114    1
    77   100   103    1
    78   100   101    1
    79    27    25   ar
    80   109   108    2
    81   115   114    1
    82    23    22    2
    83    25    26   ar
    84    25    24    1
    85   113   114    1
    86   106   101   am
    87   106   107    1
    88   101   102    2
    89   108   107    1
    90    24    21    1
    91    22    21    1
    92   107   110    1
    93    21    20    1
    94   110   112    1
    95   110   111    1
    96    15    14    2
    97    19    17    1
    98    16    17    1
    99    16    13    1
   100    17    18    1
   101    14    13    1
   102    12    13    1
   103    11     9    1
   104     9     8    2
   105     9    10    1
   106     8     7    1
   107     7     6    1
   108     6     5    1
   109     5     2    1
   110     2     3    1
   111     2     1    1
   112     3     4    1
