@<TRIPOS>MOLECULE
tmp/3ndvD01.pdb
 86 78 0 0 0
SMALL
GASTEIGER

@<TRIPOS>ATOM
      1  N         13.7070  -12.7970   12.8440 N.3    76  THR76      -0.1203
      2  CA        12.8480  -11.6230   12.9770 C.3    76  THR76       0.1994
      3  C         11.3920  -11.9800   12.6870 C.2    76  THR76       0.2618
      4  O         10.8400  -11.5920   11.6670 O.2    76  THR76      -0.2717
      5  CB        13.2960  -10.4600   12.0520 C.3    76  THR76       0.1784
      6  OG1       13.4700  -10.9500   10.7170 O.3    76  THR76      -0.2211
      7  CG2       14.6290   -9.8680   12.5300 C.3    76  THR76       0.0376
      8  N         10.7790  -12.7460   13.5860 N.am   77  GLY77      -0.1956
      9  CA         9.3920  -13.1180   13.4130 C.3    77  GLY77       0.1869
     10  C          8.9340  -13.9410   14.5990 C.2    77  GLY77       0.2309
     11  O          9.7070  -14.1750   15.5480 O.2    77  GLY77      -0.2863
     12  N          0.9730  -11.8680   10.3580 N.3   100  THR100     -0.1218
     13  CA         1.4770  -11.3760   11.6360 C.3   100  THR100      0.1862
     14  C          0.3880  -10.8320   12.5500 C.2   100  THR100      0.2287
     15  O          0.4140  -11.0540   13.7600 O.2   100  THR100     -0.2866
     16  CB         2.5050  -10.2520   11.4100 C.3   100  THR100      0.1770
     17  OG1        3.3660  -10.6050   10.3190 O.3   100  THR100     -0.2211
     18  CG2        3.3430   -9.9900   12.6850 C.3   100  THR100      0.0375
     19  N          4.1450  -16.7210   11.8180 N.3   133  GLU133     -0.1245
     20  CA         3.7080  -15.6420   10.9190 C.3   133  GLU133      0.1567
     21  C          4.7000  -15.1970    9.8490 C.2   133  GLU133      0.2260
     22  O          5.9190  -15.3300   10.0030 O.2   133  GLU133     -0.2867
     23  CB         3.2890  -14.4010   11.7240 C.3   133  GLU133      0.0388
     24  CG         4.3950  -13.7890   12.6250 C.3   133  GLU133      0.1160
     25  CD         5.4930  -13.0400   11.8830 C.2   133  GLU133      0.3649
     26  OE1        6.6320  -13.0190   12.3980 O.co2 133  GLU133     -0.2457
     27  OE2        5.2300  -12.4460   10.8140 O.co2 133  GLU133     -0.2457
     28  N          4.4700  -11.3680    7.3120 N.3   135  LEU135     -0.1245
     29  CA         3.7050  -10.1160    7.3400 C.3   135  LEU135      0.1561
     30  C          3.1020   -9.7700    5.9790 C.2   135  LEU135      0.2260
     31  O          3.8310   -9.5520    5.0130 O.2   135  LEU135     -0.2867
     32  CB         4.6020   -8.9770    7.8380 C.3   135  LEU135      0.0270
     33  CG         3.9600   -7.5920    7.9570 C.3   135  LEU135      0.0019
     34  CD1        2.7810   -7.6150    8.9190 C.3   135  LEU135      0.0001
     35  CD2        5.0170   -6.5620    8.3990 C.3   135  LEU135      0.0001
     36  N          1.7230   -7.0400    4.9720 N.3   137  ASN137     -0.1225
     37  CA         1.4500   -5.6190    5.1750 C.3   137  ASN137      0.1785
     38  C          1.2350   -4.8160    3.9070 C.2   137  ASN137      0.2597
     39  O          0.7270   -3.6900    3.9700 O.2   137  ASN137     -0.2718
     40  CB         2.5680   -4.9650    5.9860 C.3   137  ASN137      0.1169
     41  CG         3.8990   -5.0090    5.2670 C.2   137  ASN137      0.2627
     42  OD1        4.3880   -6.0790    4.8900 O.2   137  ASN137     -0.2716
     43  ND2        4.4850   -3.8400    5.0480 N.am  137  ASN137     -0.0877
     44  N          1.6290   -5.3630    2.7640 N.am  138  ARG138     -0.1979
     45  CA         1.5270   -4.5980    1.5240 C.3   138  ARG138      0.1597
     46  C          0.1850   -4.8110    0.8370 C.2   138  ARG138      0.2287
     47  O         -0.2630   -3.9750    0.0450 O.2   138  ARG138     -0.2864
     48  CB         2.7150   -4.9070    0.5940 C.3   138  ARG138      0.0334
     49  CG         4.0470   -4.4640    1.2090 C.3   138  ARG138      0.0492
     50  CD         5.2480   -4.7570    0.3370 C.3   138  ARG138      0.2205
     51  NE         6.4910   -4.3910    1.0180 N.pl3 138  ARG138     -0.0865
     52  CZ         6.9170   -3.1410    1.1870 C.cat 138  ARG138      0.5346
     53  NH1        6.1980   -2.1210    0.7310 N.pl3 138  ARG138      0.1354
     54  NH2        8.0640   -2.9080    1.8180 N.pl3 138  ARG138      0.1354
     55  N          7.1970  -15.2900    1.8030 N.3   207  ASN207     -0.1240
     56  CA         6.9680  -13.8430    1.8120 C.3   207  ASN207      0.1653
     57  C          8.3340  -13.1650    1.7540 C.2   207  ASN207      0.2266
     58  O          8.5340  -12.0890    2.3230 O.2   207  ASN207     -0.2867
     59  CB         6.2380  -13.4600    3.1050 C.3   207  ASN207      0.1155
     60  CG         5.7160  -12.0240    3.1090 C.2   207  ASN207      0.2627
     61  OD1        5.0680  -11.5710    2.1650 O.2   207  ASN207     -0.2716
     62  ND2        5.9650  -11.3160    4.2060 N.am  207  ASN207     -0.0877
     63  N         10.1070  -12.7400    4.8440 N.3   246  SER246     -0.1217
     64  CA         9.9340  -13.8640    5.7630 C.3   246  SER246      0.1889
     65  C          9.4770  -15.1360    5.0580 C.2   246  SER246      0.2288
     66  O          8.8400  -15.0880    4.0100 O.2   246  SER246     -0.2866
     67  CB         8.9450  -13.4870    6.8570 C.3   246  SER246      0.2089
     68  OG         9.4150  -12.3270    7.5290 O.3   246  SER246     -0.2183
     69  N         14.9580   -8.0430    8.1350 N.3   283  LEU283     -0.1231
     70  CA        13.6990   -8.2260    8.8430 C.3   283  LEU283      0.1693
     71  C         12.8950   -9.4080    8.3090 C.2   283  LEU283      0.2593
     72  O         11.7070   -9.5270    8.6050 O.2   283  LEU283     -0.2718
     73  CB        12.8580   -6.9420    8.7860 C.3   283  LEU283      0.0284
     74  CG        13.4250   -5.7460    9.5600 C.3   283  LEU283      0.0019
     75  CD1       12.6430   -4.4920    9.2130 C.3   283  LEU283      0.0001
     76  CD2       13.3990   -6.0100   11.0690 C.3   283  LEU283      0.0001
     77  N         13.5560  -10.2830    7.5480 N.am  284  SER284     -0.1938
     78  CA        12.9090  -11.4560    6.9570 C.3   284  SER284      0.2055
     79  C         12.9910  -12.6020    7.9490 C.2   284  SER284      0.2643
     80  O         14.0690  -13.1620    8.1560 O.2   284  SER284     -0.2714
     81  CB        13.6240  -11.8370    5.6510 C.3   284  SER284      0.2130
     82  OG        12.9260  -12.8280    4.9110 O.3   284  SER284     -0.2179
     83  N         11.8600  -12.9310    8.5780 N.am  285  GLY285     -0.1954
     84  CA        11.8050  -14.0030    9.5580 C.3   285  GLY285      0.1869
     85  C         11.7220  -15.3360    8.8430 C.2   285  GLY285      0.2309
     86  O         10.6580  -15.7580    8.4090 O.2   285  GLY285     -0.2863
@<TRIPOS>BOND
     1    47    46    2
     2    50    51    1
     3    50    49    1
     4    48    49    1
     5    48    45    1
     6    53    52    1
     7    46    45    1
     8    51    52    2
     9    52    54    1
    10    45    44    1
    11    57    56    1
    12    57    58    2
    13    55    56    1
    14    56    59    1
    15    61    60    2
    16    44    38   am
    17    59    60    1
    18    60    62   am
    19    38    39    2
    20    38    37    1
    21    66    65    2
    22    63    64    1
    23    42    41    2
    24    82    81    1
    25    36    37    1
    26    31    30    2
    27    43    41   am
    28    65    64    1
    29    37    40    1
    30    41    40    1
    31    81    78    1
    32    64    67    1
    33    30    29    1
    34    67    68    1
    35    78    77    1
    36    78    79    1
    37    28    29    1
    38    29    32    1
    39    77    71   am
    40    32    33    1
    41    79    80    2
    42    79    83   am
    43    33    35    1
    44    33    34    1
    45    69    70    1
    46    71    72    2
    47    71    70    1
    48    86    85    2
    49    83    84    1
    50    73    70    1
    51    73    74    1
    52    85    84    1
    53    75    74    1
    54    74    76    1
    55    21    22    2
    56    21    20    1
    57    17    16    1
    58    12    13    1
    59     6     5    1
    60    27    25   ar
    61    20    23    1
    62    20    19    1
    63    16    13    1
    64    16    18    1
    65    13    14    1
    66     4     3    2
    67    23    24    1
    68    25    26   ar
    69    25    24    1
    70     5     7    1
    71     5     2    1
    72    14    15    2
    73     3     2    1
    74     3     8   am
    75     1     2    1
    76     9     8    1
    77     9    10    1
    78    10    11    2
