@<TRIPOS>MOLECULE
tmp/3ndvD02.pdb
 88 82 0 0 0
SMALL
GASTEIGER

@<TRIPOS>ATOM
      1  N          1.6290   -5.3630    2.7640 N.3   138  ARG138     -0.1245
      2  CA         1.5270   -4.5980    1.5240 C.3   138  ARG138      0.1563
      3  C          0.1850   -4.8110    0.8370 C.2   138  ARG138      0.2260
      4  O         -0.2630   -3.9750    0.0450 O.2   138  ARG138     -0.2867
      5  CB         2.7150   -4.9070    0.5940 C.3   138  ARG138      0.0307
      6  CG         4.0470   -4.4640    1.2090 C.3   138  ARG138      0.0489
      7  CD         5.2480   -4.7570    0.3370 C.3   138  ARG138      0.2205
      8  NE         6.4910   -4.3910    1.0180 N.pl3 138  ARG138     -0.0865
      9  CZ         6.9170   -3.1410    1.1870 C.cat 138  ARG138      0.5346
     10  NH1        6.1980   -2.1210    0.7310 N.pl3 138  ARG138      0.1354
     11  NH2        8.0640   -2.9080    1.8180 N.pl3 138  ARG138      0.1354
     12  N          4.0560  -11.7750   -0.4770 N.3   176  ILE176     -0.1245
     13  CA         4.8310  -11.3840   -1.6400 C.3   176  ILE176      0.1561
     14  C          6.2050  -12.0330   -1.5350 C.2   176  ILE176      0.2260
     15  O          6.8690  -11.8930   -0.5130 O.2   176  ILE176     -0.2867
     16  CB         5.0660   -9.8610   -1.6530 C.3   176  ILE176      0.0252
     17  CG1        3.7340   -9.1270   -1.8390 C.3   176  ILE176      0.0019
     18  CG2        6.0850   -9.5100   -2.7460 C.3   176  ILE176      0.0019
     19  CD1        3.8130   -7.6070   -1.6170 C.3   176  ILE176      0.0001
     20  N          9.5810  -10.3720   -5.0000 N.3   179  THR179     -0.1218
     21  CA         8.9140   -9.2580   -5.6830 C.3   179  THR179      0.1862
     22  C          7.8090   -9.7160   -6.6540 C.2   179  THR179      0.2287
     23  O          7.2730   -8.9150   -7.4300 O.2   179  THR179     -0.2866
     24  CB         9.9190   -8.2960   -6.3820 C.3   179  THR179      0.1770
     25  OG1       11.1960   -8.3400   -5.7210 O.3   179  THR179     -0.2211
     26  CG2        9.3840   -6.8610   -6.3430 C.3   179  THR179      0.0375
     27  N         14.1360  -11.2180   -3.0650 N.3   210  ASP210     -0.1239
     28  CA        14.0740  -10.1510   -4.0580 C.3   210  ASP210      0.1674
     29  C         14.1530  -10.7420   -5.4610 C.2   210  ASP210      0.2266
     30  O         14.8780  -11.7200   -5.7050 O.2   210  ASP210     -0.2867
     31  CB        15.2390   -9.1680   -3.8690 C.3   210  ASP210      0.1410
     32  CG        15.1200   -8.3440   -2.5950 C.2   210  ASP210      0.3668
     33  OD1       13.9810   -8.0440   -2.1720 O.co2 210  ASP210     -0.2456
     34  OD2       16.1720   -7.9920   -2.0170 O.co2 210  ASP210     -0.2456
     35  N          5.6980   -5.0190   -9.4610 N.3   230  PRO230     -0.2102
     36  CA         4.4860   -4.5680   -8.7750 C.3   230  PRO230      0.1504
     37  C          4.0900   -3.1520   -9.1990 C.2   230  PRO230      0.2576
     38  O          4.9400   -2.3730   -9.6380 O.2   230  PRO230     -0.2718
     39  CB         4.8950   -4.5600   -7.2970 C.3   230  PRO230      0.0282
     40  CG         6.0690   -5.4840   -7.2120 C.3   230  PRO230      0.0208
     41  CD         6.7860   -5.3430   -8.5240 C.3   230  PRO230      0.0893
     42  N          2.8130   -2.8320   -9.0270 N.am  231  GLU231     -0.1966
     43  CA         2.2850   -1.5090   -9.3590 C.3   231  GLU231      0.1733
     44  C          1.4620   -0.9610   -8.2090 C.2   231  GLU231      0.2616
     45  O          1.0110   -1.7060   -7.3380 O.2   231  GLU231     -0.2715
     46  CB         1.3620   -1.6060  -10.5760 C.3   231  GLU231      0.0429
     47  CG         2.0250   -2.0970  -11.8440 C.3   231  GLU231      0.1163
     48  CD         1.0150   -2.4960  -12.9100 C.2   231  GLU231      0.3649
     49  OE1       -0.1960   -2.2460  -12.7210 O.co2 231  GLU231     -0.2457
     50  OE2        1.4330   -3.0690  -13.9370 O.co2 231  GLU231     -0.2457
     51  N          1.2600    0.3510   -8.2190 N.am  232  VAL232     -0.1977
     52  CA         0.2320    0.9760   -7.4020 C.3   232  VAL232      0.1596
     53  C         -0.5890    1.8560   -8.3330 C.2   232  VAL232      0.2287
     54  O         -0.0380    2.7020   -9.0270 O.2   232  VAL232     -0.2864
     55  CB         0.8190    1.8430   -6.2820 C.3   232  VAL232      0.0276
     56  CG1       -0.3040    2.5520   -5.5260 C.3   232  VAL232      0.0022
     57  CG2        1.6500    1.0000   -5.3370 C.3   232  VAL232      0.0022
     58  N          5.7560    0.3210   -9.5920 N.3   237  ALA237     -0.1231
     59  CA         6.2020    0.7720   -8.2820 C.3   237  ALA237      0.1694
     60  C          7.5540    0.2100   -7.8520 C.2   237  ALA237      0.2591
     61  O          8.0140    0.4870   -6.7470 O.2   237  ALA237     -0.2718
     62  CB         5.1430    0.4620   -7.2330 C.3   237  ALA237      0.0304
     63  N          8.1880   -0.5760   -8.7160 N.am  238  ALA238     -0.1980
     64  CA         9.4940   -1.1470   -8.3940 C.3   238  ALA238      0.1597
     65  C         10.2490   -1.5710   -9.6440 C.2   238  ALA238      0.2287
     66  O          9.6600   -1.7620  -10.7070 O.2   238  ALA238     -0.2864
     67  CB         9.3490   -2.3220   -7.4370 C.3   238  ALA238      0.0319
     68  N         -2.2830   -1.8160   -4.2090 N.3   348  ALA348     -0.1231
     69  CA        -1.0140   -2.4660   -4.5170 C.3   348  ALA348      0.1694
     70  C         -1.2960   -3.6830   -5.3880 C.2   348  ALA348      0.2592
     71  O         -2.1520   -4.4990   -5.0620 O.2   348  ALA348     -0.2718
     72  CB        -0.2970   -2.8790   -3.2410 C.3   348  ALA348      0.0304
     73  N         -0.5790   -3.7980   -6.4990 N.am  349  LYS349     -0.1966
     74  CA        -0.7620   -4.9170   -7.4040 C.3   349  LYS349      0.1728
     75  C          0.5390   -5.7030   -7.5120 C.2   349  LYS349      0.2616
     76  O          1.5840   -5.1400   -7.8110 O.2   349  LYS349     -0.2715
     77  CB        -1.1900   -4.4230   -8.7860 C.3   349  LYS349      0.0311
     78  CG        -1.4950   -5.5360   -9.7630 C.3   349  LYS349      0.0038
     79  CD        -2.0110   -5.0060  -11.1010 C.3   349  LYS349      0.0206
     80  CE        -2.3690   -6.1680  -12.0220 C.3   349  LYS349      0.1093
     81  NZ        -2.8140   -5.7250  -13.3800 N.3   349  LYS349     -0.1314
     82  N          0.4690   -7.0040   -7.2470 N.am  350  VAL350     -0.1977
     83  CA         1.6500   -7.8480   -7.3200 C.3   350  VAL350      0.1596
     84  C          1.3810   -9.0110   -8.2700 C.2   350  VAL350      0.2287
     85  O          0.4050   -9.7500   -8.1060 O.2   350  VAL350     -0.2864
     86  CB         2.0380   -8.3770   -5.9320 C.3   350  VAL350      0.0276
     87  CG1        3.3300   -9.1850   -6.0170 C.3   350  VAL350      0.0022
     88  CG2        2.1890   -7.2080   -4.9570 C.3   350  VAL350      0.0022
@<TRIPOS>BOND
     1    50    48   ar
     2    81    80    1
     3    48    49   ar
     4    48    47    1
     5    80    79    1
     6    47    46    1
     7    79    78    1
     8    66    65    2
     9    46    43    1
    10    78    77    1
    11    65    64    1
    12    38    37    2
    13    58    59    1
    14    35    36    1
    15    35    41    1
    16    43    42    1
    17    43    44    1
    18    37    42   am
    19    37    36    1
    20    54    53    2
    21    77    74    1
    22    36    39    1
    23    63    64    1
    24    63    60   am
    25    41    40    1
    26    64    67    1
    27    53    52    1
    28    59    60    1
    29    59    62    1
    30    84    85    2
    31    84    83    1
    32    51    44   am
    33    51    52    1
    34    44    45    2
    35    60    61    2
    36    76    75    2
    37    75    74    1
    38    75    82   am
    39    23    22    2
    40    74    73    1
    41    52    55    1
    42    83    82    1
    43    83    86    1
    44    39    40    1
    45    22    21    1
    46    73    70   am
    47    24    26    1
    48    24    25    1
    49    24    21    1
    50    55    56    1
    51    55    57    1
    52    87    86    1
    53    86    88    1
    54    30    29    2
    55    21    20    1
    56    29    28    1
    57    70    71    2
    58    70    69    1
    59    69    68    1
    60    69    72    1
    61    28    31    1
    62    28    27    1
    63    31    32    1
    64    18    16    1
    65    32    33   ar
    66    32    34   ar
    67    17    16    1
    68    17    19    1
    69    16    13    1
    70    13    14    1
    71    13    12    1
    72    14    15    2
    73     4     3    2
    74     7     8    1
    75     7     6    1
    76     5     6    1
    77     5     2    1
    78    10     9    1
    79     3     2    1
    80     8     9    2
    81     9    11    1
    82     2     1    1
