@<TRIPOS>MOLECULE
tmp/3ndxB00.pdb
 105 99 0 0 0
SMALL
GASTEIGER

@<TRIPOS>ATOM
      1  N         22.5260   -2.1350   21.9640 N.3    23  LEU23      -0.1245
      2  CA        23.8720   -1.7330   22.3700 C.3    23  LEU23       0.1561
      3  C         24.0530   -0.2480   22.1530 C.2    23  LEU23       0.2260
      4  O         23.8740    0.2660   21.0360 O.2    23  LEU23      -0.2867
      5  CB        24.8100   -2.4820   21.4340 C.3    23  LEU23       0.0270
      6  CG        26.3010   -2.3230   21.6540 C.3    23  LEU23       0.0019
      7  CD1       26.7180   -2.8930   22.9830 C.3    23  LEU23       0.0001
      8  CD2       27.0030   -3.0620   20.5210 C.3    23  LEU23       0.0001
      9  N         26.1570    2.6040   21.2000 N.3    25  ASP25      -0.1239
     10  CA        27.3200    2.4450   20.3080 C.3    25  ASP25       0.1674
     11  C         27.8490    3.7780   19.7960 C.2    25  ASP25       0.2266
     12  O         27.3970    4.3220   18.7970 O.2    25  ASP25      -0.2867
     13  CB        26.8430    1.5380   19.1590 C.3    25  ASP25       0.1410
     14  CG        27.9460    1.1380   18.2360 C.2    25  ASP25       0.3668
     15  OD1       29.0870    1.5760   18.4920 O.co2  25  ASP25      -0.2456
     16  OD2       27.7100    0.3670   17.2710 O.co2  25  ASP25      -0.2456
     17  N         30.5480    4.3040   18.3280 N.3    27  GLY27      -0.1210
     18  CA        31.2460    4.1370   17.0360 C.3    27  GLY27       0.1956
     19  C         30.2860    4.0020   15.8570 C.2    27  GLY27       0.2612
     20  O         30.7940    3.7430   14.7400 O.2    27  GLY27      -0.2717
     21  N         28.9930    4.1040   16.0540 N.am   28  ALA28      -0.1965
     22  CA        28.0160    3.9880   14.9720 C.3    28  ALA28       0.1728
     23  C         27.4040    5.3650   14.6890 C.2    28  ALA28       0.2616
     24  O         26.8960    6.0210   15.5780 O.2    28  ALA28      -0.2715
     25  CB        26.9180    3.0080   15.3240 C.3    28  ALA28       0.0334
     26  N         27.4220    5.7690   13.4070 N.am   29  ASP29      -0.1957
     27  CA        26.7390    7.0130   13.0490 C.3    29  ASP29       0.1840
     28  C         25.2280    6.8510   13.2160 C.2    29  ASP29       0.2622
     29  O         24.5420    7.8150   13.6010 O.2    29  ASP29      -0.2715
     30  CB        26.9860    7.4160   11.6020 C.3    29  ASP29       0.1450
     31  CG        28.3510    7.9680   11.3020 C.2    29  ASP29       0.3671
     32  OD1       29.2690    7.9300   12.1220 O.co2  29  ASP29      -0.2456
     33  OD2       28.4690    8.4630   10.1510 O.co2  29  ASP29      -0.2456
     34  N         24.7430    5.6670   12.8760 N.am   30  ASP30      -0.1971
     35  CA        23.3100    5.3760   12.6670 C.3    30  ASP30       0.1709
     36  C         22.8550    4.3010   13.6240 C.2    30  ASP30       0.2293
     37  O         23.6580    3.5550   14.2310 O.2    30  ASP30      -0.2864
     38  CB        23.1110    4.8690   11.2320 C.3    30  ASP30       0.1436
     39  CG        23.6800    5.8280   10.2330 C.2    30  ASP30       0.3671
     40  OD1       23.3010    7.0120   10.2390 O.co2  30  ASP30      -0.2456
     41  OD2       24.5300    5.3350    9.4650 O.co2  30  ASP30      -0.2456
     42  N         20.6950    0.8170   14.0550 N.3    32  VAL32      -0.1245
     43  CA        20.3370   -0.3230   13.2110 C.3    32  VAL32       0.1561
     44  C         19.7210   -1.3870   14.0970 C.2    32  VAL32       0.2260
     45  O         20.3580   -1.8550   15.0680 O.2    32  VAL32      -0.2867
     46  CB        21.5660   -0.8850   12.4270 C.3    32  VAL32       0.0252
     47  CG1       21.0210   -1.8270   11.3270 C.3    32  VAL32       0.0019
     48  CG2       22.4400    0.1890   11.8330 C.3    32  VAL32       0.0019
     49  N         23.9450    0.3260    4.3550 N.3    47  ILE47      -0.1231
     50  CA        24.8360    0.8850    5.3870 C.3    47  ILE47       0.1692
     51  C         25.9600   -0.1190    5.5830 C.2    47  ILE47       0.2593
     52  O         25.8060   -1.3060    5.3620 O.2    47  ILE47      -0.2718
     53  CB        24.1510    1.1250    6.7410 C.3    47  ILE47       0.0266
     54  CG1       23.4610   -0.1610    7.2210 C.3    47  ILE47       0.0019
     55  CG2       23.2890    2.3410    6.5850 C.3    47  ILE47       0.0020
     56  CD1       23.3450   -0.2520    8.6930 C.3    47  ILE47       0.0001
     57  N         27.1010    0.4340    5.9780 N.am   48  GLY48      -0.1942
     58  CA        28.3270   -0.3450    6.0530 C.3    48  GLY48       0.2014
     59  C         29.0340   -0.2380    7.3510 C.2    48  GLY48       0.2639
     60  O         28.7930    0.6150    8.1890 O.2    48  GLY48      -0.2714
     61  N         29.9180   -1.2080    7.5230 N.am   49  GLY49      -0.1939
     62  CA        30.8690   -1.1790    8.6540 C.3    49  GLY49       0.2014
     63  C         31.9660   -2.2030    8.3840 C.2    49  GLY49       0.2638
     64  O         32.3600   -2.3820    7.2330 O.2    49  GLY49      -0.2714
     65  N         32.4470   -2.8220    9.4540 N.am   50  ILE50      -0.1977
     66  CA        33.4620   -3.8630    9.2330 C.3    50  ILE50       0.1596
     67  C         32.7840   -5.0220    8.4820 C.2    50  ILE50       0.2287
     68  O         31.6360   -5.3840    8.8600 O.2    50  ILE50      -0.2864
     69  CB        34.0940   -4.2580   10.5830 C.3    50  ILE50       0.0276
     70  CG1       35.0030   -3.1650   11.1070 C.3    50  ILE50       0.0022
     71  CG2       34.7660   -5.6170   10.4270 C.3    50  ILE50       0.0022
     72  CD1       36.2110   -2.8540   10.3010 C.3    50  ILE50       0.0001
     73  N         28.8060   -4.0410    3.5150 N.3    53  PHE53      -0.1241
     74  CA        27.5240   -3.3620    3.5290 C.3    53  PHE53       0.1605
     75  C         26.3860   -4.3120    3.6210 C.2    53  PHE53       0.2264
     76  O         26.4890   -5.4330    3.1230 O.2    53  PHE53      -0.2867
     77  CB        27.3320   -2.5850    2.1870 C.3    53  PHE53       0.0534
     78  CG        28.1420   -1.3170    2.1030 C.ar   53  PHE53      -0.0203
     79  CD1       29.3900   -1.3780    1.5410 C.ar   53  PHE53      -0.0042
     80  CD2       27.6460   -0.1070    2.5340 C.ar   53  PHE53      -0.0042
     81  CE1       30.1500   -0.2440    1.4320 C.ar   53  PHE53      -0.0003
     82  CE2       28.4260    1.0310    2.4120 C.ar   53  PHE53      -0.0003
     83  CZ        29.6550    0.9740    1.8120 C.ar   53  PHE53      -0.0000
     84  N         23.8420   -7.9140   12.9410 N.3    81  PRO81      -0.2102
     85  CA        24.1070   -8.9500   13.9700 C.3    81  PRO81       0.1504
     86  C         23.6610   -8.5960   15.3660 C.2    81  PRO81       0.2575
     87  O         23.3750   -9.5410   16.1430 O.2    81  PRO81      -0.2718
     88  CB        25.6590   -9.0120   13.9280 C.3    81  PRO81       0.0282
     89  CG        25.9870   -8.6310   12.5040 C.3    81  PRO81       0.0208
     90  CD        25.0870   -7.4440   12.2730 C.3    81  PRO81       0.0893
     91  N         23.5880   -7.3370   15.7160 N.am   82  VAL82      -0.1980
     92  CA        23.1100   -6.8920   17.0310 C.3    82  VAL82       0.1595
     93  C         22.4190   -5.5540   16.8770 C.2    82  VAL82       0.2287
     94  O         22.7140   -4.7830   15.9700 O.2    82  VAL82      -0.2864
     95  CB        24.2740   -6.7630   18.0150 C.3    82  VAL82       0.0276
     96  CG1       25.2120   -5.7030   17.4560 C.3    82  VAL82       0.0022
     97  CG2       23.9320   -6.3800   19.4420 C.3    82  VAL82       0.0022
     98  N         21.7720   -1.8920   17.4650 N.3    84  ILE84      -0.1245
     99  CA        22.7420   -0.8230   17.7880 C.3    84  ILE84       0.1561
    100  C         22.0530    0.5330   17.8300 C.2    84  ILE84       0.2260
    101  O         21.3040    0.9230   16.8930 O.2    84  ILE84      -0.2867
    102  CB        23.8090   -0.8200   16.6710 C.3    84  ILE84       0.0252
    103  CG1       24.7240   -2.0630   16.6900 C.3    84  ILE84       0.0019
    104  CG2       24.5680    0.5080   16.6310 C.3    84  ILE84       0.0019
    105  CD1       25.1760   -2.3800   15.2420 C.3    84  ILE84       0.0001
@<TRIPOS>BOND
     1    81    79   ar
     2    81    83   ar
     3    79    78   ar
     4    83    82   ar
     5    78    77    1
     6    78    80   ar
     7    77    74    1
     8    82    80   ar
     9    76    75    2
    10    73    74    1
    11    74    75    1
    12    49    50    1
    13    52    51    2
    14    50    51    1
    15    50    53    1
    16    51    57   am
    17    57    58    1
    18    58    59    1
    19    55    53    1
    20    53    54    1
    21    54    56    1
    22    64    63    2
    23    59    61   am
    24    59    60    2
    25    61    62    1
    26    63    62    1
    27    63    65   am
    28    67    68    2
    29    67    66    1
    30    66    65    1
    31    66    69    1
    32    41    39   ar
    33    33    31   ar
    34    39    40   ar
    35    39    38    1
    36    72    70    1
    37    71    69    1
    38    69    70    1
    39    38    35    1
    40    31    30    1
    41    31    32   ar
    42    47    46    1
    43    30    27    1
    44    48    46    1
    45    90    89    1
    46    90    84    1
    47    46    43    1
    48    89    88    1
    49    35    34    1
    50    35    36    1
    51    34    28   am
    52    84    85    1
    53    27    28    1
    54    27    26    1
    55    43    42    1
    56    43    44    1
    57    28    29    2
    58    26    23   am
    59    36    37    2
    60    88    85    1
    61    85    86    1
    62    44    45    2
    63    23    22    1
    64    23    24    2
    65    20    19    2
    66    22    25    1
    67    22    21    1
    68   105   103    1
    69    86    91   am
    70    86    87    2
    71    91    92    1
    72    19    21   am
    73    19    18    1
    74    94    93    2
    75   104   102    1
    76   102   103    1
    77   102    99    1
    78    93    92    1
    79   101   100    2
    80    92    95    1
    81    18    17    1
    82    16    14   ar
    83    96    95    1
    84    98    99    1
    85    99   100    1
    86    95    97    1
    87    14    15   ar
    88    14    13    1
    89    12    11    2
    90    13    10    1
    91    11    10    1
    92    10     9    1
    93     8     6    1
    94     4     3    2
    95     5     6    1
    96     5     2    1
    97     6     7    1
    98     1     2    1
    99     3     2    1
