@<TRIPOS>MOLECULE
tmp/3ndyA00.pdb
 144 142 0 0 0
SMALL
GASTEIGER

@<TRIPOS>ATOM
      1  N        -18.7360  -23.9860   23.6120 N.3    27  ASN27      -0.1240
      2  CA       -19.7230  -24.7270   22.8300 C.3    27  ASN27       0.1653
      3  C        -21.1390  -24.2690   23.1280 C.2    27  ASN27       0.2266
      4  O        -22.0680  -25.0780   23.1990 O.2    27  ASN27      -0.2867
      5  CB       -19.5860  -26.2400   23.0420 C.3    27  ASN27       0.1155
      6  CG       -18.4980  -26.8430   22.1770 C.2    27  ASN27       0.2627
      7  OD1      -17.6240  -26.1290   21.6690 O.2    27  ASN27      -0.2716
      8  ND2      -18.5440  -28.1560   21.9970 N.am   27  ASN27      -0.0877
      9  N        -25.0740  -27.4930   20.1420 N.3    38  TRP38      -0.1241
     10  CA       -23.9670  -28.4290   20.3260 C.3    38  TRP38       0.1605
     11  C        -24.0800  -29.1920   21.6390 C.2    38  TRP38       0.2264
     12  O        -23.0770  -29.6470   22.1970 O.2    38  TRP38      -0.2867
     13  CB       -22.6070  -27.7120   20.2030 C.3    38  TRP38       0.0550
     14  CG       -22.2460  -27.3610   18.7690 C.ar   38  TRP38       0.0003
     15  CD1      -22.9540  -27.6870   17.6380 C.ar   38  TRP38       0.0946
     16  CD2      -21.0870  -26.6350   18.3160 C.ar   38  TRP38       0.0152
     17  NE1      -22.3130  -27.2000   16.5180 N.ar   38  TRP38      -0.2442
     18  CE2      -21.1660  -26.5560   16.9060 C.ar   38  TRP38       0.0810
     19  CE3      -19.9930  -26.0460   18.9650 C.ar   38  TRP38       0.0012
     20  CZ2      -20.1890  -25.9140   16.1350 C.ar   38  TRP38       0.0191
     21  CZ3      -19.0270  -25.4070   18.1980 C.ar   38  TRP38       0.0001
     22  CH2      -19.1330  -25.3490   16.7960 C.ar   38  TRP38       0.0015
     23  N        -16.1540  -15.3250   17.5420 N.3   104  HIS104     -0.1226
     24  CA       -15.5540  -16.6390   17.7130 C.3   104  HIS104      0.1752
     25  C        -15.3780  -17.4140   16.3960 C.2   104  HIS104      0.2596
     26  O        -14.4060  -17.1700   15.6680 O.2   104  HIS104     -0.2718
     27  CB       -16.3010  -17.4260   18.7910 C.3   104  HIS104      0.0759
     28  CG       -15.4940  -18.5350   19.3910 C.ar  104  HIS104      0.0818
     29  ND1      -14.5630  -18.3230   20.3850 N.ar  104  HIS104     -0.2268
     30  CD2      -15.4680  -19.8620   19.1250 C.ar  104  HIS104      0.1154
     31  CE1      -14.0070  -19.4760   20.7130 C.ar  104  HIS104      0.1986
     32  NE2      -14.5410  -20.4270   19.9660 N.ar  104  HIS104     -0.2212
     33  N        -16.3020  -18.3190   16.0650 N.am  105  HIS105     -0.1975
     34  CA       -16.1540  -19.1110   14.8340 C.3   105  HIS105      0.1656
     35  C        -16.5660  -18.3440   13.5620 C.2   105  HIS105      0.2291
     36  O        -17.5600  -18.6840   12.9120 O.2   105  HIS105     -0.2864
     37  CB       -16.9210  -20.4400   14.9240 C.3   105  HIS105      0.0771
     38  CG       -16.3370  -21.4170   15.8980 C.ar  105  HIS105      0.0820
     39  ND1      -14.9920  -21.7110   15.9440 N.ar  105  HIS105     -0.2267
     40  CD2      -16.9210  -22.1760   16.8580 C.ar  105  HIS105      0.1154
     41  CE1      -14.7710  -22.6080   16.8930 C.ar  105  HIS105      0.1986
     42  NE2      -15.9230  -22.9050   17.4620 N.ar  105  HIS105     -0.2212
     43  N        -11.0670  -14.2430   17.5930 N.3   148  ASN148     -0.1225
     44  CA       -10.7050  -15.4450   18.3210 C.3   148  ASN148      0.1785
     45  C         -9.3730  -16.0160   17.8320 C.2   148  ASN148      0.2597
     46  O         -8.3080  -15.7000   18.3770 O.2   148  ASN148     -0.2718
     47  CB       -11.8040  -16.4950   18.1800 C.3   148  ASN148      0.1169
     48  CG       -11.5160  -17.7410   18.9910 C.2   148  ASN148      0.2627
     49  OD1      -11.0900  -17.6510   20.1370 O.2   148  ASN148     -0.2716
     50  ND2      -11.7600  -18.9080   18.4060 N.am  148  ASN148     -0.0877
     51  N         -9.4340  -16.8460   16.7910 N.am  149  GLU149     -0.1979
     52  CA        -8.2270  -17.4860   16.2520 C.3   149  GLU149      0.1602
     53  C         -8.1260  -17.2860   14.7370 C.2   149  GLU149      0.2287
     54  O         -8.2230  -18.2540   13.9620 O.2   149  GLU149     -0.2864
     55  CB        -8.2120  -18.9870   16.5970 C.3   149  GLU149      0.0415
     56  CG        -8.0390  -19.2910   18.0940 C.3   149  GLU149      0.1163
     57  CD        -7.8610  -20.7810   18.3850 C.2   149  GLU149      0.3649
     58  OE1       -7.8850  -21.5910   17.4300 O.co2 149  GLU149     -0.2457
     59  OE2       -7.6910  -21.1450   19.5700 O.co2 149  GLU149     -0.2457
     60  N         -1.4740  -25.8660   12.7370 N.3   159  TRP159     -0.1241
     61  CA        -0.5970  -25.4980   13.8490 C.3   159  TRP159      0.1605
     62  C          0.6200  -24.7160   13.3660 C.2   159  TRP159      0.2264
     63  O          1.7220  -24.8790   13.8840 O.2   159  TRP159     -0.2867
     64  CB        -0.1670  -26.7400   14.6310 C.3   159  TRP159      0.0550
     65  CG        -1.3250  -27.4320   15.2870 C.ar  159  TRP159      0.0003
     66  CD1       -1.9650  -28.5560   14.8500 C.ar  159  TRP159      0.0946
     67  CD2       -1.9960  -27.0310   16.4900 C.ar  159  TRP159      0.0152
     68  NE1       -2.9860  -28.8820   15.7110 N.ar  159  TRP159     -0.2442
     69  CE2       -3.0280  -27.9640   16.7240 C.ar  159  TRP159      0.0810
     70  CE3       -1.8250  -25.9740   17.3910 C.ar  159  TRP159      0.0012
     71  CZ2       -3.8830  -27.8750   17.8240 C.ar  159  TRP159      0.0191
     72  CZ3       -2.6780  -25.8860   18.4870 C.ar  159  TRP159      0.0001
     73  CH2       -3.6920  -26.8330   18.6930 C.ar  159  TRP159      0.0015
     74  N         -3.0270  -24.5190   25.0170 N.3   226  TYR226     -0.1241
     75  CA        -3.3790  -25.8440   25.5230 C.3   226  TYR226      0.1605
     76  C         -2.1140  -26.6700   25.6410 C.2   226  TYR226      0.2264
     77  O         -1.9040  -27.5950   24.8550 O.2   226  TYR226     -0.2867
     78  CB        -4.3400  -26.5560   24.5650 C.3   226  TYR226      0.0534
     79  CG        -5.7210  -25.9490   24.4680 C.ar  226  TYR226     -0.0201
     80  CD1       -6.7830  -26.4610   25.2090 C.ar  226  TYR226     -0.0009
     81  CD2       -5.9740  -24.8770   23.6110 C.ar  226  TYR226     -0.0009
     82  CE1       -8.0700  -25.9110   25.1120 C.ar  226  TYR226      0.0417
     83  CE2       -7.2440  -24.3270   23.5060 C.ar  226  TYR226      0.0417
     84  CZ        -8.2940  -24.8420   24.2560 C.ar  226  TYR226      0.1957
     85  OH        -9.5670  -24.2910   24.1280 O.3   226  TYR226     -0.2866
     86  N         -4.2840  -32.1790   24.8180 N.3   233  MET233     -0.1245
     87  CA        -5.2420  -32.1220   23.7160 C.3   233  MET233      0.1570
     88  C         -5.3740  -33.3900   22.8840 C.2   233  MET233      0.2261
     89  O         -6.4380  -33.6640   22.3280 O.2   233  MET233     -0.2867
     90  CB        -4.8940  -30.9430   22.8050 C.3   233  MET233      0.0387
     91  CG        -5.9650  -30.5760   21.7990 C.3   233  MET233      0.0595
     92  SD        -5.5470  -28.9840   21.0610 S.3   233  MET233     -0.1393
     93  CE        -6.4850  -27.8780   22.0960 C.3   233  MET233      0.0692
     94  N         -7.9030  -19.3460   26.5910 N.3   272  GLU272     -0.1245
     95  CA        -8.2940  -20.7530   26.5730 C.3   272  GLU272      0.1567
     96  C         -7.1190  -21.6090   26.9640 C.2   272  GLU272      0.2260
     97  O         -5.9860  -21.3550   26.5700 O.2   272  GLU272     -0.2867
     98  CB        -8.7830  -21.2110   25.1830 C.3   272  GLU272      0.0388
     99  CG       -10.0030  -20.4850   24.6610 C.3   272  GLU272      0.1160
    100  CD       -10.3940  -20.9350   23.2570 C.2   272  GLU272      0.3649
    101  OE1       -9.8470  -21.9490   22.7690 O.co2 272  GLU272     -0.2457
    102  OE2      -11.2460  -20.2650   22.6450 O.co2 272  GLU272     -0.2457
    103  N        -11.0330  -23.7850   29.1850 N.3   305  TRP305     -0.1241
    104  CA       -12.0160  -24.0460   28.1350 C.3   305  TRP305      0.1605
    105  C        -12.9900  -25.1400   28.5640 C.2   305  TRP305      0.2264
    106  O        -12.6090  -26.3040   28.6750 O.2   305  TRP305     -0.2867
    107  CB       -11.3400  -24.4700   26.8280 C.3   305  TRP305      0.0550
    108  CG       -12.3440  -24.7580   25.7880 C.ar  305  TRP305      0.0003
    109  CD1      -12.6980  -25.9850   25.2950 C.ar  305  TRP305      0.0946
    110  CD2      -13.1740  -23.8020   25.1210 C.ar  305  TRP305      0.0152
    111  NE1      -13.6870  -25.8470   24.3570 N.ar  305  TRP305     -0.2442
    112  CE2      -14.0020  -24.5170   24.2330 C.ar  305  TRP305      0.0810
    113  CE3      -13.2930  -22.4080   25.1860 C.ar  305  TRP305      0.0012
    114  CZ2      -14.9360  -23.8840   23.4090 C.ar  305  TRP305      0.0191
    115  CZ3      -14.2220  -21.7810   24.3670 C.ar  305  TRP305      0.0001
    116  CH2      -15.0310  -22.5200   23.4910 C.ar  305  TRP305      0.0015
    117  N        -16.3660  -26.9440   27.5390 N.3   307  ASN307     -0.1240
    118  CA       -17.3470  -27.1050   26.4740 C.3   307  ASN307      0.1653
    119  C        -18.5470  -27.9510   26.9000 C.2   307  ASN307      0.2266
    120  O        -19.4050  -28.2820   26.0810 O.2   307  ASN307     -0.2867
    121  CB       -16.6920  -27.6530   25.1950 C.3   307  ASN307      0.1155
    122  CG       -16.0040  -28.9960   25.4060 C.2   307  ASN307      0.2627
    123  OD1      -16.0450  -29.5680   26.4930 O.2   307  ASN307     -0.2716
    124  ND2      -15.3650  -29.5010   24.3540 N.am  307  ASN307     -0.0877
    125  N        -11.5690  -34.1300   22.9600 N.3   316  GLU316     -0.1245
    126  CA       -12.2570  -32.8500   23.1540 C.3   316  GLU316      0.1567
    127  C        -13.0860  -32.7470   24.4430 C.2   316  GLU316      0.2260
    128  O        -13.9630  -31.8870   24.5530 O.2   316  GLU316     -0.2867
    129  CB       -13.1510  -32.5450   21.9500 C.3   316  GLU316      0.0388
    130  CG       -12.3890  -32.4290   20.6550 C.3   316  GLU316      0.1160
    131  CD       -11.4660  -31.2220   20.6370 C.2   316  GLU316      0.3649
    132  OE1      -11.9530  -30.1030   20.8820 O.co2 316  GLU316     -0.2457
    133  OE2      -10.2530  -31.3840   20.3880 O.co2 316  GLU316     -0.2457
    134  N        -13.0190  -31.3710   27.4230 N.3   318  PHE318     -0.1241
    135  CA       -12.4470  -30.3270   28.2740 C.3   318  PHE318      0.1605
    136  C        -13.4040  -29.9250   29.4100 C.2   318  PHE318      0.2264
    137  O        -13.0180  -29.2290   30.3490 O.2   318  PHE318     -0.2867
    138  CB       -12.0940  -29.0810   27.4340 C.3   318  PHE318      0.0534
    139  CG       -10.9370  -29.2820   26.4770 C.ar  318  PHE318     -0.0203
    140  CD1      -11.1640  -29.5230   25.1270 C.ar  318  PHE318     -0.0042
    141  CD2       -9.6230  -29.2210   26.9270 C.ar  318  PHE318     -0.0042
    142  CE1      -10.1030  -29.7100   24.2450 C.ar  318  PHE318     -0.0003
    143  CE2       -8.5520  -29.4110   26.0450 C.ar  318  PHE318     -0.0003
    144  CZ        -8.8010  -29.6480   24.7030 C.ar  318  PHE318     -0.0000
@<TRIPOS>BOND
     1    60    61    1
     2    36    35    2
     3    62    61    1
     4    62    63    2
     5    35    34    1
     6    61    64    1
     7    54    53    2
     8    64    65    1
     9    53    52    1
    10    34    37    1
    11    34    33    1
    12    66    65   ar
    13    66    68   ar
    14    37    38    1
    15    65    67   ar
    16    26    25    2
    17    68    69   ar
    18    38    39   ar
    19    38    40   ar
    20    39    41   ar
    21    33    25   am
    22    20    22   ar
    23    20    18   ar
    24    52    55    1
    25    52    51    1
    26    25    24    1
    27    67    69   ar
    28    67    70   ar
    29    17    18   ar
    30    17    15   ar
    31    55    56    1
    32    69    71   ar
    33    51    45   am
    34    22    21   ar
    35    40    42   ar
    36    41    42   ar
    37    18    16   ar
    38    70    72   ar
    39    58    57   ar
    40    23    24    1
    41    43    44    1
    42    15    14   ar
    43    24    27    1
    44    71    73   ar
    45    45    44    1
    46    45    46    2
    47    56    57    1
    48    47    44    1
    49    47    48    1
    50    21    19   ar
    51    16    14   ar
    52    16    19   ar
    53    57    59   ar
    54    50    48   am
    55    72    73   ar
    56    14    13    1
    57    27    28    1
    58    48    49    2
    59    30    28   ar
    60    30    32   ar
    61    28    29   ar
    62    32    31   ar
    63     9    10    1
    64    13    10    1
    65    10    11    1
    66    29    31   ar
    67   133   131   ar
    68   131   130    1
    69   131   132   ar
    70   130   129    1
    71    92    91    1
    72    92    93    1
    73    11    12    2
    74     7     6    2
    75    91    90    1
    76   129   126    1
    77     8     6   am
    78     6     5    1
    79    89    88    2
    80   102   100   ar
    81   101   100   ar
    82    90    87    1
    83     2     5    1
    84     2     3    1
    85     2     1    1
    86    88    87    1
    87   125   126    1
    88     3     4    2
    89   126   127    1
    90   100    99    1
    91   114   116   ar
    92   114   112   ar
    93   116   115   ar
    94    83    81   ar
    95    83    84   ar
    96    81    79   ar
    97    87    86    1
    98    85    84    1
    99   112   111   ar
   100   112   110   ar
   101   142   144   ar
   102   142   140   ar
   103    84    82   ar
   104   124   122   am
   105   111   109   ar
   106   115   113   ar
   107   127   128    2
   108    79    78    1
   109    79    80   ar
   110    78    75    1
   111    99    98    1
   112   144   143   ar
   113    77    76    2
   114    74    75    1
   115    82    80   ar
   116   110   113   ar
   117   110   108   ar
   118   140   139   ar
   119    98    95    1
   120   121   122    1
   121   121   118    1
   122   109   108   ar
   123   122   123    2
   124    75    76    1
   125   108   107    1
   126   143   141   ar
   127   120   119    2
   128   118   119    1
   129   118   117    1
   130   139   141   ar
   131   139   138    1
   132    97    96    2
   133    95    94    1
   134    95    96    1
   135   107   104    1
   136   134   135    1
   137   138   135    1
   138   104   105    1
   139   104   103    1
   140   135   136    1
   141   105   106    2
   142   136   137    2
