@<TRIPOS>MOLECULE
tmp/3ndzG01.pdb
 142 139 0 0 0
SMALL
GASTEIGER

@<TRIPOS>ATOM
      1  N         -2.8140   36.2640   18.8370 N.3    27  ASN27      -0.1240
      2  CA        -3.5100   37.3960   19.4460 C.3    27  ASN27       0.1653
      3  C         -4.8430   37.6870   18.7750 C.2    27  ASN27       0.2266
      4  O         -5.1550   38.8340   18.4900 O.2    27  ASN27      -0.2867
      5  CB        -2.6490   38.6530   19.4250 C.3    27  ASN27       0.1155
      6  CG        -1.5660   38.6340   20.4710 C.2    27  ASN27       0.2627
      7  OD1       -1.3970   37.6480   21.1870 O.2    27  ASN27      -0.2716
      8  ND2       -0.8260   39.7350   20.5750 N.am   27  ASN27      -0.0877
      9  N         -7.2070   42.4950   20.9240 N.3    38  TRP38      -0.1241
     10  CA        -5.7850   42.8070   21.0260 C.3    38  TRP38       0.1605
     11  C         -5.2410   43.4420   19.7390 C.2    38  TRP38       0.2264
     12  O         -4.0930   43.2320   19.3580 O.2    38  TRP38      -0.2867
     13  CB        -4.9650   41.5820   21.4600 C.3    38  TRP38       0.0550
     14  CG        -5.1450   41.1940   22.9240 C.ar   38  TRP38       0.0003
     15  CD1       -5.8570   41.8710   23.8750 C.ar   38  TRP38       0.0946
     16  CD2       -4.6070   40.0350   23.5820 C.ar   38  TRP38       0.0152
     17  NE1       -5.7910   41.2120   25.0820 N.ar   38  TRP38      -0.2442
     18  CE2       -5.0320   40.0810   24.9290 C.ar   38  TRP38       0.0810
     19  CE3       -3.8130   38.9600   23.1600 C.ar   38  TRP38       0.0012
     20  CZ2       -4.6840   39.0940   25.8640 C.ar   38  TRP38       0.0191
     21  CZ3       -3.4650   37.9790   24.0920 C.ar   38  TRP38       0.0001
     22  CH2       -3.9010   38.0570   25.4290 C.ar   38  TRP38       0.0015
     23  N         -6.1560   27.8920   24.9210 N.3   104  HIS104     -0.1226
     24  CA        -4.9600   28.7420   24.9660 C.3   104  HIS104      0.1752
     25  C         -4.7180   29.3810   26.3300 C.2   104  HIS104      0.2596
     26  O         -4.1300   28.7450   27.2160 O.2   104  HIS104     -0.2718
     27  CB        -4.9590   29.7840   23.8280 C.3   104  HIS104      0.0759
     28  CG        -3.5890   30.2820   23.4630 C.ar  104  HIS104      0.0818
     29  ND1       -2.7300   29.5750   22.6450 N.ar  104  HIS104     -0.2268
     30  CD2       -2.9310   31.4160   23.8030 C.ar  104  HIS104      0.1154
     31  CE1       -1.6040   30.2500   22.5020 C.ar  104  HIS104      0.1986
     32  NE2       -1.7000   31.3720   23.1940 N.ar  104  HIS104     -0.2212
     33  N         -5.1580   30.6270   26.5120 N.am  105  HIS105     -0.1975
     34  CA        -4.9100   31.3190   27.7790 C.3   105  HIS105      0.1656
     35  C         -5.9320   30.8940   28.8180 C.2   105  HIS105      0.2291
     36  O         -6.8040   31.6670   29.1960 O.2   105  HIS105     -0.2864
     37  CB        -4.9280   32.8490   27.6220 C.3   105  HIS105      0.0771
     38  CG        -3.8240   33.3860   26.7660 C.ar  105  HIS105      0.0820
     39  ND1       -2.4990   33.0530   26.9630 N.ar  105  HIS105     -0.2267
     40  CD2       -3.8470   34.2300   25.7040 C.ar  105  HIS105      0.1154
     41  CE1       -1.7540   33.6720   26.0630 C.ar  105  HIS105      0.1986
     42  NE2       -2.5470   34.3980   25.2930 N.ar  105  HIS105     -0.2212
     43  N         -2.3240   24.6150   25.9500 N.3   148  ASN148     -0.1225
     44  CA        -1.2500   25.4310   25.3930 C.3   148  ASN148      0.1785
     45  C          0.0530   25.2960   26.1840 C.2   148  ASN148      0.2597
     46  O          0.9210   24.4930   25.8500 O.2   148  ASN148     -0.2718
     47  CB        -1.6800   26.9010   25.3500 C.3   148  ASN148      0.1169
     48  CG        -0.6920   27.7730   24.6200 C.2   148  ASN148      0.2627
     49  OD1       -0.3930   28.8880   25.0500 O.2   148  ASN148     -0.2716
     50  ND2       -0.1780   27.2740   23.5080 N.am  148  ASN148     -0.0877
     51  N          0.1850   26.0860   27.2370 N.am  149  GLU149     -0.1979
     52  CA         1.3870   26.0540   28.0600 C.3   149  GLU149      0.1602
     53  C          1.0260   25.9220   29.5350 C.2   149  GLU149      0.2287
     54  O          1.2310   26.8510   30.3100 O.2   149  GLU149     -0.2864
     55  CB         2.1970   27.3210   27.8380 C.3   149  GLU149      0.0415
     56  CG         2.6540   27.4680   26.4010 C.3   149  GLU149      0.1163
     57  CD         3.6050   28.6240   26.2150 C.2   149  GLU149      0.3649
     58  OE1        3.7020   29.4680   27.1330 O.co2 149  GLU149     -0.2457
     59  OE2        4.2540   28.6920   25.1470 O.co2 149  GLU149     -0.2457
     60  N         11.1090   29.2440   20.9820 N.3   226  TYR226     -0.1241
     61  CA        11.5770   30.5360   20.5100 C.3   226  TYR226      0.1605
     62  C         13.0780   30.6380   20.8020 C.2   226  TYR226      0.2264
     63  O         13.4980   31.3090   21.7440 O.2   226  TYR226     -0.2867
     64  CB        10.8400   31.6640   21.2420 C.3   226  TYR226      0.0534
     65  CG         9.3440   31.7530   21.0170 C.ar  226  TYR226     -0.0201
     66  CD1        8.8210   32.5580   20.0150 C.ar  226  TYR226     -0.0009
     67  CD2        8.4540   31.0580   21.8310 C.ar  226  TYR226     -0.0009
     68  CE1        7.4480   32.6620   19.8240 C.ar  226  TYR226      0.0417
     69  CE2        7.0880   31.1590   21.6520 C.ar  226  TYR226      0.0417
     70  CZ         6.5910   31.9680   20.6520 C.ar  226  TYR226      0.1957
     71  OH         5.2350   32.0620   20.4700 O.3   226  TYR226     -0.2866
     72  N         13.6720   36.5890   21.3010 N.3   233  MET233     -0.1245
     73  CA        12.5770   36.9780   22.1740 C.3   233  MET233      0.1570
     74  C         12.8390   38.2420   22.9820 C.2   233  MET233      0.2261
     75  O         11.9130   38.9900   23.2850 O.2   233  MET233     -0.2867
     76  CB        12.2430   35.8180   23.1080 C.3   233  MET233      0.0387
     77  CG        10.9660   35.9980   23.8870 C.3   233  MET233      0.0595
     78  SD        10.2180   34.3850   24.2050 S.3   233  MET233     -0.1393
     79  CE         8.8160   34.4670   23.0950 C.3   233  MET233      0.0692
     80  N          4.8850   26.9100   18.1770 N.3   272  GLU272     -0.1245
     81  CA         5.1770   28.3400   18.2050 C.3   272  GLU272      0.1567
     82  C          6.6800   28.5660   18.1660 C.2   272  GLU272      0.2260
     83  O          7.4210   27.8750   18.8580 O.2   272  GLU272     -0.2867
     84  CB         4.6120   29.0070   19.4680 C.3   272  GLU272      0.0388
     85  CG         3.0950   28.9610   19.6130 C.3   272  GLU272      0.1160
     86  CD         2.6160   29.6510   20.8810 C.2   272  GLU272      0.3649
     87  OE1        3.4390   30.3220   21.5440 O.co2 272  GLU272     -0.2457
     88  OE2        1.4190   29.5280   21.2130 O.co2 272  GLU272     -0.2457
     89  N          4.8890   32.1220   15.1110 N.3   305  TRP305     -0.1241
     90  CA         3.9400   32.8380   15.9540 C.3   305  TRP305      0.1605
     91  C          3.7530   34.2390   15.4050 C.2   305  TRP305      0.2264
     92  O          4.6730   35.0540   15.4520 O.2   305  TRP305     -0.2867
     93  CB         4.4330   32.9270   17.3920 C.3   305  TRP305      0.0550
     94  CG         3.5150   33.7270   18.2660 C.ar  305  TRP305      0.0003
     95  CD1        3.7590   34.9550   18.8090 C.ar  305  TRP305      0.0946
     96  CD2        2.1920   33.3580   18.6800 C.ar  305  TRP305      0.0152
     97  NE1        2.6710   35.3680   19.5500 N.ar  305  TRP305     -0.2442
     98  CE2        1.6960   34.4080   19.4790 C.ar  305  TRP305      0.0810
     99  CE3        1.3810   32.2380   18.4590 C.ar  305  TRP305      0.0012
    100  CZ2        0.4310   34.3670   20.0590 C.ar  305  TRP305      0.0191
    101  CZ3        0.1280   32.2010   19.0380 C.ar  305  TRP305      0.0001
    102  CH2       -0.3370   33.2580   19.8250 C.ar  305  TRP305      0.0015
    103  N          1.5190   37.4610   15.8650 N.3   307  ASN307     -0.1240
    104  CA         0.5270   38.1900   16.6480 C.3   307  ASN307      0.1653
    105  C          0.0180   39.4690   15.9630 C.2   307  ASN307      0.2266
    106  O         -0.7340   40.2480   16.5580 O.2   307  ASN307     -0.2867
    107  CB         1.0650   38.4980   18.0510 C.3   307  ASN307      0.1155
    108  CG         2.3390   39.3280   18.0230 C.2   307  ASN307      0.2627
    109  OD1        2.7930   39.7550   16.9650 O.2   307  ASN307     -0.2716
    110  ND2        2.9220   39.5590   19.1930 N.am  307  ASN307     -0.0877
    111  N          1.7510   42.0700   15.1290 N.3   309  TYR309     -0.1241
    112  CA         2.4530   43.2470   15.6170 C.3   309  TYR309      0.1605
    113  C          3.9050   43.2060   15.1350 C.2   309  TYR309      0.2264
    114  O          4.6830   42.3590   15.5630 O.2   309  TYR309     -0.2867
    115  CB         2.3590   43.2750   17.1470 C.3   309  TYR309      0.0534
    116  CG         2.9910   44.4660   17.8390 C.ar  309  TYR309     -0.0201
    117  CD1        2.7890   45.7620   17.3790 C.ar  309  TYR309     -0.0009
    118  CD2        3.7580   44.2900   18.9820 C.ar  309  TYR309     -0.0009
    119  CE1        3.3640   46.8500   18.0320 C.ar  309  TYR309      0.0417
    120  CE2        4.3330   45.3640   19.6400 C.ar  309  TYR309      0.0417
    121  CZ         4.1320   46.6400   19.1640 C.ar  309  TYR309      0.1957
    122  OH         4.7040   47.6980   19.8300 O.3   309  TYR309     -0.2866
    123  N          7.9030   41.9080   21.6690 N.3   316  GLU316     -0.1245
    124  CA         6.7720   41.0940   21.2140 C.3   316  GLU316      0.1567
    125  C          6.3530   41.3520   19.7690 C.2   316  GLU316      0.2260
    126  O          5.2190   41.0560   19.3910 O.2   316  GLU316     -0.2867
    127  CB         5.5520   41.2710   22.1370 C.3   316  GLU316      0.0388
    128  CG         5.7690   40.8160   23.5730 C.3   316  GLU316      0.1160
    129  CD         6.0060   39.3220   23.6930 C.2   316  GLU316      0.3649
    130  OE1        5.1340   38.5410   23.2580 O.co2 316  GLU316     -0.2457
    131  OE2        7.0680   38.9270   24.2260 O.co2 316  GLU316     -0.2457
    132  N          6.3310   39.9020   16.8010 N.3   318  PHE318     -0.1241
    133  CA         6.4840   38.6640   16.0290 C.3   318  PHE318      0.1605
    134  C          5.7700   38.6970   14.6760 C.2   318  PHE318      0.2264
    135  O          5.9680   37.8180   13.8440 O.2   318  PHE318     -0.2867
    136  CB         5.9870   37.4550   16.8380 C.3   318  PHE318      0.0534
    137  CG         6.8400   37.1250   18.0260 C.ar  318  PHE318     -0.0203
    138  CD1        6.4210   37.4440   19.3120 C.ar  318  PHE318     -0.0042
    139  CD2        8.0650   36.4930   17.8610 C.ar  318  PHE318     -0.0042
    140  CE1        7.2090   37.1390   20.4080 C.ar  318  PHE318     -0.0003
    141  CE2        8.8550   36.1770   18.9550 C.ar  318  PHE318     -0.0003
    142  CZ         8.4330   36.5040   20.2270 C.ar  318  PHE318     -0.0000
@<TRIPOS>BOND
     1   135   134    2
     2   134   133    1
     3    89    90    1
     4   111   112    1
     5   113   114    2
     6   113   112    1
     7    91    92    2
     8    91    90    1
     9   112   115    1
    10   103   104    1
    11    90    93    1
    12   105   106    2
    13   105   104    1
    14   133   132    1
    15   133   136    1
    16   104   107    1
    17   136   137    1
    18   109   108    2
    19   115   116    1
    20   117   116   ar
    21   117   119   ar
    22    93    94    1
    23   116   118   ar
    24   139   137   ar
    25   139   141   ar
    26   108   107    1
    27   108   110   am
    28   137   138   ar
    29   119   121   ar
    30    82    81    1
    31    82    83    2
    32    80    81    1
    33    81    84    1
    34    94    96   ar
    35    94    95   ar
    36    99    96   ar
    37    99   101   ar
    38     4     3    2
    39    96    98   ar
    40     3     2    1
    41    95    97   ar
    42     1     2    1
    43   141   142   ar
    44   118   120   ar
    45   101   102   ar
    46   121   120   ar
    47   121   122    1
    48   138   140   ar
    49    12    11    2
    50   126   125    2
    51     5     2    1
    52     5     6    1
    53    84    85    1
    54    98    97   ar
    55    98   100   ar
    56    85    86    1
    57    11    10    1
    58   125   124    1
    59    68    66   ar
    60    68    70   ar
    61   102   100   ar
    62    66    65   ar
    63   142   140   ar
    64    71    70    1
    65     6     8   am
    66     6     7    2
    67    61    62    1
    68    61    60    1
    69    61    64    1
    70    70    69   ar
    71    62    63    2
    72    86    88   ar
    73    86    87   ar
    74     9    10    1
    75    65    64    1
    76    65    67   ar
    77    10    13    1
    78   124   123    1
    79   124   127    1
    80    72    73    1
    81    13    14    1
    82    69    67   ar
    83   127   128    1
    84    73    74    1
    85    73    76    1
    86    31    29   ar
    87    31    32   ar
    88    29    28   ar
    89    14    16   ar
    90    14    15   ar
    91    74    75    2
    92    79    78    1
    93    76    77    1
    94    19    16   ar
    95    19    21   ar
    96    32    30   ar
    97   130   129   ar
    98    28    30   ar
    99    28    27    1
   100    50    48   am
   101   128   129    1
   102    16    18   ar
   103   129   131   ar
   104    27    24    1
   105    15    17   ar
   106    77    78    1
   107    21    22   ar
   108    48    49    2
   109    48    47    1
   110    23    24    1
   111    18    17   ar
   112    18    20   ar
   113    24    25    1
   114    59    57   ar
   115    42    40   ar
   116    42    41   ar
   117    47    44    1
   118    44    43    1
   119    44    45    1
   120    22    20   ar
   121    40    38   ar
   122    46    45    2
   123    41    39   ar
   124    45    51   am
   125    57    56    1
   126    57    58   ar
   127    25    33   am
   128    25    26    2
   129    56    55    1
   130    33    34    1
   131    38    39   ar
   132    38    37    1
   133    51    52    1
   134    37    34    1
   135    34    35    1
   136    55    52    1
   137    52    53    1
   138    35    36    2
   139    53    54    2
