@<TRIPOS>MOLECULE
tmp/3ndzG00.pdb
 96 95 0 0 0
SMALL
GASTEIGER

@<TRIPOS>ATOM
      1  N         10.0900   30.3560   33.3920 N.3   159  TRP159     -0.1241
      2  CA        11.0520   29.5880   32.6140 C.3   159  TRP159      0.1605
      3  C         11.5860   28.3960   33.4030 C.2   159  TRP159      0.2264
      4  O         12.7320   27.9910   33.2320 O.2   159  TRP159     -0.2867
      5  CB        12.2030   30.4790   32.1320 C.3   159  TRP159      0.0550
      6  CG        11.7690   31.5680   31.1890 C.ar  159  TRP159      0.0003
      7  CD1       11.5790   32.8820   31.4910 C.ar  159  TRP159      0.0946
      8  CD2       11.4720   31.4300   29.7960 C.ar  159  TRP159      0.0152
      9  NE1       11.1820   33.5720   30.3710 N.ar  159  TRP159     -0.2442
     10  CE2       11.1090   32.7030   29.3170 C.ar  159  TRP159      0.0810
     11  CE3       11.4730   30.3510   28.9060 C.ar  159  TRP159      0.0012
     12  CZ2       10.7460   32.9300   27.9890 C.ar  159  TRP159      0.0191
     13  CZ3       11.1130   30.5780   27.5840 C.ar  159  TRP159      0.0001
     14  CH2       10.7540   31.8580   27.1400 C.ar  159  TRP159      0.0015
     15  N          7.4360   23.3610   27.1430 N.3   201  SER201     -0.1202
     16  CA         8.8740   23.5680   27.1270 C.3   201  SER201      0.2020
     17  C          9.6160   22.3530   26.6180 C.2   201  SER201      0.2619
     18  O          9.2410   21.2120   26.9100 O.2   201  SER201     -0.2717
     19  CB         9.3870   23.8940   28.5200 C.3   201  SER201      0.2103
     20  OG        10.7950   23.9470   28.4810 O.3   201  SER201     -0.2182
     21  N         10.6870   22.6160   25.8760 N.am  202  ALA202     -0.1965
     22  CA        11.5330   21.5750   25.3220 C.3   202  ALA202      0.1728
     23  C         12.6970   21.2410   26.2420 C.2   202  ALA202      0.2616
     24  O         13.5060   20.3740   25.9160 O.2   202  ALA202     -0.2715
     25  CB        12.0520   21.9940   23.9210 C.3   202  ALA202      0.0334
     26  N         12.7910   21.9250   27.3820 N.am  203  MET203     -0.1963
     27  CA        13.8860   21.6780   28.3300 C.3   203  MET203      0.1736
     28  C         13.8620   20.2130   28.7820 C.2   203  MET203      0.2617
     29  O         12.8080   19.5860   28.7680 O.2   203  MET203     -0.2715
     30  CB        13.7910   22.6210   29.5400 C.3   203  MET203      0.0427
     31  CG        12.8410   22.1640   30.6540 C.3   203  MET203      0.0599
     32  SD        12.8200   23.2860   32.1020 S.3   203  MET203     -0.1393
     33  CE        11.7070   24.5400   31.5240 C.3   203  MET203      0.0692
     34  N         15.0170   19.6730   29.1730 N.am  204  SER204     -0.1950
     35  CA        15.1370   18.2490   29.4970 C.3   204  SER204      0.1924
     36  C         14.2020   17.8220   30.6210 C.2   204  SER204      0.2314
     37  O         13.5840   16.7730   30.5540 O.2   204  SER204     -0.2863
     38  CB        16.5740   17.9070   29.9050 C.3   204  SER204      0.2116
     39  OG        17.4880   18.7630   29.2420 O.3   204  SER204     -0.2180
     40  N          7.0290   24.5590   22.3020 N.3   224  HIS224     -0.1226
     41  CA         7.2710   25.9340   21.8720 C.3   224  HIS224      0.1752
     42  C          8.7380   26.2790   22.0380 C.2   224  HIS224      0.2596
     43  O          9.2800   26.1910   23.1340 O.2   224  HIS224     -0.2718
     44  CB         6.3730   26.9150   22.6280 C.3   224  HIS224      0.0759
     45  CG         4.9180   26.6510   22.4150 C.ar  224  HIS224      0.0818
     46  ND1        3.9310   27.2260   23.1800 N.ar  224  HIS224     -0.2268
     47  CD2        4.2840   25.8530   21.5230 C.ar  224  HIS224      0.1154
     48  CE1        2.7500   26.8040   22.7660 C.ar  224  HIS224      0.1986
     49  NE2        2.9370   25.9660   21.7650 N.ar  224  HIS224     -0.2212
     50  N          9.3880   26.6460   20.9380 N.am  225  MET225     -0.1965
     51  CA        10.8350   26.8460   20.9590 C.3   225  MET225      0.1736
     52  C         11.2360   28.1410   20.2570 C.2   225  MET225      0.2616
     53  O         11.6390   28.1410   19.0910 O.2   225  MET225     -0.2715
     54  CB        11.5640   25.6390   20.3450 C.3   225  MET225      0.0427
     55  CG        11.2110   24.2950   21.0020 C.3   225  MET225      0.0599
     56  SD        12.1020   22.8750   20.3020 S.3   225  MET225     -0.1393
     57  CE        13.7930   23.3110   20.6850 C.3   225  MET225      0.0692
     58  N         11.1090   29.2440   20.9820 N.am  226  TYR226     -0.1960
     59  CA        11.5770   30.5360   20.5100 C.3   226  TYR226      0.1771
     60  C         13.0780   30.6380   20.8020 C.2   226  TYR226      0.2620
     61  O         13.4980   31.3090   21.7440 O.2   226  TYR226     -0.2715
     62  CB        10.8400   31.6640   21.2420 C.3   226  TYR226      0.0574
     63  CG         9.3440   31.7530   21.0170 C.ar  226  TYR226     -0.0198
     64  CD1        8.8210   32.5580   20.0150 C.ar  226  TYR226     -0.0009
     65  CD2        8.4540   31.0580   21.8310 C.ar  226  TYR226     -0.0009
     66  CE1        7.4480   32.6620   19.8240 C.ar  226  TYR226      0.0417
     67  CE2        7.0880   31.1590   21.6520 C.ar  226  TYR226      0.0417
     68  CZ         6.5910   31.9680   20.6520 C.ar  226  TYR226      0.1957
     69  OH         5.2350   32.0620   20.4700 O.3   226  TYR226     -0.2866
     70  N         13.8790   29.9630   19.9970 N.am  227  SER227     -0.1950
     71  CA        15.3020   29.8510   20.2600 C.3   227  SER227      0.1924
     72  C         16.0680   30.5550   19.1590 C.2   227  SER227      0.2314
     73  O         15.6270   30.5620   18.0100 O.2   227  SER227     -0.2863
     74  CB        15.7040   28.3790   20.3040 C.3   227  SER227      0.2116
     75  OG        14.7420   27.6240   21.0260 O.3   227  SER227     -0.2180
     76  N         24.3410   25.7910   18.7320 N.3   249  SER249     -0.1217
     77  CA        23.4140   25.8420   19.8610 C.3   249  SER249      0.1889
     78  C         21.9920   25.4830   19.4360 C.2   249  SER249      0.2288
     79  O         21.3040   24.7250   20.1110 O.2   249  SER249     -0.2866
     80  CB        23.4170   27.2320   20.4960 C.3   249  SER249      0.2089
     81  OG        24.7130   27.5610   20.9430 O.3   249  SER249     -0.2183
     82  N         21.5350   21.8220   18.6170 N.3   252  SER252     -0.1202
     83  CA        21.5520   21.0020   19.8170 C.3   252  SER252      0.2020
     84  C         20.1840   20.9930   20.4860 C.2   252  SER252      0.2618
     85  O         19.7560   19.9670   21.0140 O.2   252  SER252     -0.2717
     86  CB        22.6140   21.5010   20.7980 C.3   252  SER252      0.2103
     87  OG        22.9140   20.5070   21.7610 O.3   252  SER252     -0.2182
     88  N         19.5040   22.1350   20.4800 N.am  253  GLU253     -0.1979
     89  CA        18.1410   22.1920   21.0200 C.3   253  GLU253      0.1602
     90  C         17.2520   21.2080   20.2740 C.2   253  GLU253      0.2287
     91  O         16.5070   20.4460   20.8940 O.2   253  GLU253     -0.2864
     92  CB        17.5450   23.6050   20.9420 C.3   253  GLU253      0.0415
     93  CG        18.1980   24.6270   21.8750 C.3   253  GLU253      0.1163
     94  CD        17.3240   25.8600   22.0850 C.2   253  GLU253      0.3649
     95  OE1       16.0970   25.6990   22.2660 O.co2 253  GLU253     -0.2457
     96  OE2       17.8580   26.9890   22.0680 O.co2 253  GLU253     -0.2457
@<TRIPOS>BOND
     1    73    72    2
     2    82    83    1
     3    76    77    1
     4    53    52    2
     5    72    71    1
     6    78    77    1
     7    78    79    2
     8    83    84    1
     9    83    86    1
    10    66    64   ar
    11    66    68   ar
    12    77    80    1
    13    70    71    1
    14    70    60   am
    15    64    63   ar
    16    52    51    1
    17    52    58   am
    18    71    74    1
    19    90    91    2
    20    90    89    1
    21    56    57    1
    22    56    55    1
    23    74    75    1
    24    54    51    1
    25    54    55    1
    26    69    68    1
    27    88    84   am
    28    88    89    1
    29    84    85    2
    30    80    81    1
    31    59    60    1
    32    59    58    1
    33    59    62    1
    34    68    67   ar
    35    86    87    1
    36    60    61    2
    37    50    51    1
    38    50    42   am
    39    92    89    1
    40    92    93    1
    41    63    62    1
    42    63    65   ar
    43    47    49   ar
    44    47    45   ar
    45    67    65   ar
    46    49    48   ar
    47    41    42    1
    48    41    40    1
    49    41    44    1
    50    93    94    1
    51    42    43    2
    52    96    94   ar
    53    94    95   ar
    54    45    44    1
    55    45    46   ar
    56    48    46   ar
    57    25    22    1
    58    22    21    1
    59    22    23    1
    60    21    17   am
    61    24    23    2
    62    23    26   am
    63    17    18    2
    64    17    16    1
    65    16    15    1
    66    16    19    1
    67    14    13   ar
    68    14    12   ar
    69    26    27    1
    70    13    11   ar
    71    12    10   ar
    72    27    28    1
    73    27    30    1
    74    20    19    1
    75    29    28    2
    76    28    34   am
    77    11     8   ar
    78    34    35    1
    79    39    38    1
    80    10     8   ar
    81    10     9   ar
    82    35    38    1
    83    35    36    1
    84    30    31    1
    85     8     6   ar
    86     9     7   ar
    87    37    36    2
    88    31    32    1
    89     6     7   ar
    90     6     5    1
    91    33    32    1
    92     5     2    1
    93     2     1    1
    94     2     3    1
    95     4     3    2
