@<TRIPOS>MOLECULE
tmp/3ne2D01.pdb
 78 74 0 0 0
SMALL
GASTEIGER

@<TRIPOS>ATOM
      1  N          8.8960    4.2150   35.7890 N.3     1  THR1       -0.1218
      2  CA         9.6380    5.5020   35.7670 C.3     1  THR1        0.1862
      3  C         11.1510    5.2940   35.8800 C.2     1  THR1        0.2287
      4  O         11.6310    4.3030   36.4560 O.2     1  THR1       -0.2866
      5  CB         9.1850    6.4400   36.9070 C.3     1  THR1        0.1770
      6  OG1        7.7810    6.2830   37.1320 O.3     1  THR1       -0.2211
      7  CG2        9.4860    7.8980   36.5620 C.3     1  THR1        0.0375
      8  N         10.2740   15.7370   29.0940 N.3    74  GLY74      -0.1225
      9  CA         9.0410   15.5760   29.8790 C.3    74  GLY74       0.1811
     10  C          8.7300   14.1330   30.2130 C.2    74  GLY74       0.2280
     11  O          8.3540   13.8030   31.3280 O.2    74  GLY74      -0.2866
     12  N          9.4520   14.7050   33.9420 N.3    78  GLY78      -0.1225
     13  CA         8.2460   15.5030   34.0130 C.3    78  GLY78       0.1811
     14  C          8.4940   16.8630   33.4050 C.2    78  GLY78       0.2280
     15  O          7.5460   17.5900   33.1180 O.2    78  GLY78      -0.2866
     16  N          9.8300   19.7050   34.7400 N.3    80  HIS80      -0.1241
     17  CA         9.3530   20.7980   35.5930 C.3    80  HIS80       0.1621
     18  C         10.1500   22.0700   35.3180 C.2    80  HIS80       0.2264
     19  O          9.5750   23.1490   35.1740 O.2    80  HIS80      -0.2867
     20  CB         9.4610   20.4360   37.0790 C.3    80  HIS80       0.0745
     21  CG         8.5670   19.3120   37.4960 C.ar   80  HIS80       0.0817
     22  ND1        7.9380   19.2800   38.7250 N.ar   80  HIS80      -0.2268
     23  CD2        8.1920   18.1800   36.8500 C.ar   80  HIS80       0.1154
     24  CE1        7.2290   18.1660   38.8240 C.ar   80  HIS80       0.1986
     25  NE2        7.3690   17.4810   37.7020 N.ar   80  HIS80      -0.2212
     26  N          2.5780   21.4480   42.2230 N.3    89  LEU89      -0.1245
     27  CA         2.1370   20.0740   41.9760 C.3    89  LEU89       0.1561
     28  C          2.1500   19.2680   43.2530 C.2    89  LEU89       0.2260
     29  O          1.3060   18.3930   43.4390 O.2    89  LEU89      -0.2867
     30  CB         3.0050   19.3840   40.9100 C.3    89  LEU89       0.0270
     31  CG         2.7620   19.8140   39.4580 C.3    89  LEU89       0.0019
     32  CD1        3.8470   19.2880   38.5310 C.3    89  LEU89       0.0001
     33  CD2        1.3920   19.3480   39.0160 C.3    89  LEU89       0.0001
     34  N         -0.7650   17.0360   45.7790 N.3    93  GLY93      -0.1210
     35  CA        -0.4820   15.6140   45.9760 C.3    93  GLY93       0.1956
     36  C         -0.2350   14.8760   44.6750 C.2    93  GLY93       0.2612
     37  O         -0.4300   13.6540   44.6060 O.2    93  GLY93      -0.2717
     38  N          0.1970   15.6210   43.6530 N.am   94  ARG94      -0.1965
     39  CA         0.5810   15.0610   42.3620 C.3    94  ARG94       0.1729
     40  C          2.0950   14.8520   42.2750 C.2    94  ARG94       0.2616
     41  O          2.5920   14.2480   41.3400 O.2    94  ARG94      -0.2715
     42  CB         0.0970   15.9840   41.2420 C.3    94  ARG94       0.0348
     43  CG        -1.4160   16.0520   41.1290 C.3    94  ARG94       0.0492
     44  CD        -1.9930   14.7130   40.6910 C.3    94  ARG94       0.2205
     45  NE        -3.0860   14.9100   39.7380 N.pl3  94  ARG94      -0.0865
     46  CZ        -3.2870   14.1930   38.6290 C.cat  94  ARG94       0.5346
     47  NH1       -2.4700   13.1900   38.2990 N.pl3  94  ARG94       0.1354
     48  NH2       -4.3140   14.4880   37.8320 N.pl3  94  ARG94       0.1354
     49  N          2.8270   15.3420   43.2640 N.am   95  PHE95      -0.1960
     50  CA         4.2600   15.1180   43.3320 C.3    95  PHE95       0.1756
     51  C          4.6940   14.7500   44.7600 C.2    95  PHE95       0.2461
     52  O          4.2260   15.3230   45.7360 O.2    95  PHE95      -0.2730
     53  CB         5.0180   16.3490   42.8490 C.3    95  PHE95       0.0574
     54  CG         6.4540   16.0770   42.5120 C.ar   95  PHE95      -0.0200
     55  CD1        6.7800   15.2320   41.4700 C.ar   95  PHE95      -0.0042
     56  CD2        7.4810   16.6700   43.2290 C.ar   95  PHE95      -0.0042
     57  CE1        8.1060   14.9760   41.1490 C.ar   95  PHE95      -0.0003
     58  CE2        8.8100   16.4160   42.9140 C.ar   95  PHE95      -0.0003
     59  CZ         9.1200   15.5670   41.8720 C.ar   95  PHE95      -0.0000
     60  N          5.5860   13.7730   44.8760 N.am   96  PRO96      -0.2727
     61  CA         6.0420   13.3410   46.1800 C.3    96  PRO96       0.1402
     62  C          6.8480   14.3990   46.8920 C.2    96  PRO96       0.2269
     63  O          7.7320   14.9960   46.2780 O.2    96  PRO96      -0.2865
     64  CB         6.9270   12.1320   45.8560 C.3    96  PRO96       0.0296
     65  CG         7.2380   12.2590   44.4000 C.3    96  PRO96       0.0237
     66  CD         6.0590   12.8840   43.8050 C.3    96  PRO96       0.0939
     67  N         -1.7470   19.2680   30.6380 N.3   165  ALA165     -0.1231
     68  CA        -0.6840   18.3420   31.0400 C.3   165  ALA165      0.1694
     69  C         -1.1070   17.4300   32.1790 C.2   165  ALA165      0.2591
     70  O         -0.9840   16.2120   32.0540 O.2   165  ALA165     -0.2718
     71  CB         0.5620   19.1090   31.4430 C.3   165  ALA165      0.0304
     72  N         -1.5960   17.9960   33.2830 N.am  166  VAL166     -0.1980
     73  CA        -1.9780   17.1740   34.4260 C.3   166  VAL166      0.1595
     74  C         -3.3230   16.4630   34.2380 C.2   166  VAL166      0.2287
     75  O         -3.4680   15.3060   34.6280 O.2   166  VAL166     -0.2864
     76  CB        -2.0300   17.9750   35.7260 C.3   166  VAL166      0.0276
     77  CG1       -2.2280   17.0180   36.9540 C.3   166  VAL166      0.0022
     78  CG2       -0.7620   18.8100   35.8780 C.3   166  VAL166      0.0022
@<TRIPOS>BOND
     1     8     9    1
     2     9    10    1
     3    10    11    2
     4    67    68    1
     5    68    71    1
     6    68    69    1
     7    70    69    2
     8    69    72   am
     9    15    14    2
    10    72    73    1
    11    14    13    1
    12    12    13    1
    13    74    73    1
    14    74    75    2
    15    73    76    1
    16    16    17    1
    17    19    18    2
    18    18    17    1
    19    17    20    1
    20    76    78    1
    21    76    77    1
    22     2     1    1
    23     2     3    1
    24     2     5    1
    25     3     4    2
    26     7     5    1
    27    23    21   ar
    28    23    25   ar
    29     5     6    1
    30    20    21    1
    31    21    22   ar
    32    25    24   ar
    33    48    46    1
    34    47    46    1
    35    32    31    1
    36    46    45    2
    37    22    24   ar
    38    33    31    1
    39    31    30    1
    40    45    44    1
    41    44    43    1
    42    30    27    1
    43    43    42    1
    44    57    55   ar
    45    57    59   ar
    46    42    39    1
    47    41    40    2
    48    55    54   ar
    49    59    58   ar
    50    27    26    1
    51    27    28    1
    52    40    39    1
    53    40    49   am
    54    39    38    1
    55    54    53    1
    56    54    56   ar
    57    53    50    1
    58    58    56   ar
    59    28    29    2
    60    49    50    1
    61    50    51    1
    62    38    36   am
    63    66    65    1
    64    66    60    1
    65    65    64    1
    66    37    36    2
    67    36    35    1
    68    51    60   am
    69    51    52    2
    70    60    61    1
    71    34    35    1
    72    64    61    1
    73    61    62    1
    74    63    62    2
