@<TRIPOS>MOLECULE
tmp/3ne2H02.pdb
 107 106 0 0 0
SMALL
GASTEIGER

@<TRIPOS>ATOM
      1  N         11.1680  -13.3850   36.6180 N.3    70  ILE70      -0.1231
      2  CA        11.7750  -12.2530   35.9320 C.3    70  ILE70       0.1692
      3  C         11.2170  -10.9470   36.5090 C.2    70  ILE70       0.2592
      4  O         11.9790  -10.0970   36.9680 O.2    70  ILE70      -0.2718
      5  CB        11.5250  -12.3070   34.3990 C.3    70  ILE70       0.0266
      6  CG1       12.1740  -13.5520   33.7700 C.3    70  ILE70       0.0019
      7  CG2       12.0540  -11.0420   33.7120 C.3    70  ILE70       0.0020
      8  CD1       11.9880  -13.6810   32.2430 C.3    70  ILE70       0.0001
      9  N          9.8900  -10.8090   36.5260 N.am   71  TYR71      -0.1976
     10  CA         9.2460   -9.5750   37.0180 C.3    71  TYR71       0.1639
     11  C          9.5680   -9.2050   38.4620 C.2    71  TYR71       0.2290
     12  O          9.5040   -8.0340   38.8100 O.2    71  TYR71      -0.2864
     13  CB         7.7150   -9.6210   36.8480 C.3    71  TYR71       0.0560
     14  CG         7.2640   -9.3350   35.4430 C.ar   71  TYR71      -0.0198
     15  CD1        7.5470   -8.1220   34.8350 C.ar   71  TYR71      -0.0009
     16  CD2        6.5630  -10.2730   34.7240 C.ar   71  TYR71      -0.0009
     17  CE1        7.1540   -7.8630   33.5360 C.ar   71  TYR71       0.0417
     18  CE2        6.1610  -10.0230   33.4300 C.ar   71  TYR71       0.0417
     19  CZ         6.4610   -8.8140   32.8400 C.ar   71  TYR71       0.1957
     20  OH         6.0590   -8.5860   31.5510 O.3    71  TYR71      -0.2866
     21  N         14.4100  -10.2620   38.2530 N.3    74  GLY74      -0.1210
     22  CA        15.2180   -9.8220   37.1110 C.3    74  GLY74       0.1956
     23  C         15.9780   -8.5300   37.3630 C.2    74  GLY74       0.2614
     24  O         17.1470   -8.4030   36.9980 O.2    74  GLY74      -0.2717
     25  N         15.3170   -7.5680   37.9950 N.am   75  ARG75      -0.1934
     26  CA        15.9960   -6.3480   38.4380 C.3    75  ARG75       0.1814
     27  C         17.1910   -6.6180   39.3590 C.2    75  ARG75       0.2332
     28  O         18.0540   -5.7420   39.4870 O.2    75  ARG75      -0.2860
     29  CB        15.0330   -5.4010   39.1760 C.2    75  ARG75       0.0019
     30  CG        14.2240   -4.4660   38.2850 C.2    75  ARG75       0.0178
     31  CD        12.9570   -3.8530   38.9240 C.3    75  ARG75       0.2464
     32  NE        12.3920   -4.5790   40.0640 N.pl3  75  ARG75      -0.0815
     33  CZ        11.9960   -5.8590   40.0900 C.cat  75  ARG75       0.5349
     34  NH1       12.1000   -6.6670   39.0270 N.pl3  75  ARG75       0.1354
     35  NH2       11.5110   -6.3540   41.2250 N.pl3  75  ARG75       0.1354
     36  N         13.9480   -9.2730   23.2470 N.3   164  VAL164     -0.1231
     37  CA        13.0210   -8.5620   24.1320 C.3   164  VAL164      0.1692
     38  C         13.6070   -8.2250   25.5120 C.2   164  VAL164      0.2591
     39  O         12.8970   -7.7010   26.3700 O.2   164  VAL164     -0.2718
     40  CB        11.7080   -9.3640   24.3010 C.3   164  VAL164      0.0266
     41  CG1       11.8210  -10.3890   25.4610 C.3   164  VAL164      0.0020
     42  CG2       10.5280   -8.4290   24.5160 C.3   164  VAL164      0.0020
     43  N         14.8870   -8.5340   25.7260 N.am  165  ALA165     -0.1980
     44  CA        15.5270   -8.3050   27.0160 C.3   165  ALA165      0.1597
     45  C         16.8990   -7.6710   26.8680 C.2   165  ALA165      0.2287
     46  O         17.1560   -6.6490   27.5080 O.2   165  ALA165     -0.2864
     47  CB        15.6200   -9.5930   27.7910 C.3   165  ALA165      0.0319
     48  N         18.4670   -6.4740   23.9150 N.3   167  ASP167     -0.1225
     49  CA        18.4960   -5.3780   22.9430 C.3   167  ASP167      0.1805
     50  C         17.9520   -4.0630   23.5220 C.2   167  ASP167      0.2597
     51  O         16.7990   -3.9550   23.9500 O.2   167  ASP167     -0.2718
     52  CB        17.7300   -5.7750   21.6750 C.3   167  ASP167      0.1424
     53  CG        18.0490   -4.8990   20.4850 C.2   167  ASP167      0.3668
     54  OD1       18.1900   -5.4290   19.3740 O.co2 167  ASP167     -0.2456
     55  OD2       18.1430   -3.6780   20.6410 O.co2 167  ASP167     -0.2456
     56  N         18.8140   -3.0550   23.5060 N.am  168  GLU168     -0.1979
     57  CA        18.4690   -1.6990   23.9340 C.3   168  GLU168      0.1602
     58  C         17.1100   -1.2230   23.3990 C.2   168  GLU168      0.2287
     59  O         16.3930   -0.5190   24.1070 O.2   168  GLU168     -0.2864
     60  CB        19.5750   -0.7240   23.5200 C.3   168  GLU168      0.0415
     61  CG        20.8980   -0.8870   24.2410 C.3   168  GLU168      0.1163
     62  CD        21.6590   -2.1400   23.8910 C.2   168  GLU168      0.3649
     63  OE1       21.4780   -2.6860   22.7730 O.co2 168  GLU168     -0.2457
     64  OE2       22.4840   -2.6370   24.6940 O.co2 168  GLU168     -0.2457
     65  N         14.3800   -2.8380   22.9590 N.3   170  ALA170     -0.1231
     66  CA        13.2540   -3.6890   23.3320 C.3   170  ALA170      0.1679
     67  C         12.2410   -2.9260   24.1650 C.2   170  ALA170      0.2434
     68  O         12.6370   -2.1580   25.0420 O.2   170  ALA170     -0.2733
     69  CB        13.7250   -4.9300   24.0640 C.3   170  ALA170      0.0304
     70  N         10.9290   -3.1490   23.8960 N.am  171  PRO171     -0.2718
     71  CA         9.8550   -2.4350   24.5790 C.3   171  PRO171      0.1520
     72  C          9.7690   -2.8330   26.0430 C.2   171  PRO171      0.2440
     73  O          9.5170   -4.0060   26.3350 O.2   171  PRO171     -0.2731
     74  CB         8.6010   -2.9110   23.8510 C.3   171  PRO171      0.0310
     75  CG         8.9330   -4.2580   23.3350 C.3   171  PRO171      0.0237
     76  CD        10.3940   -4.2150   23.0150 C.3   171  PRO171      0.0939
     77  N          9.9470   -1.8590   26.9590 N.am  172  PRO172     -0.2716
     78  CA        10.1970   -2.1730   28.3560 C.3   172  PRO172      0.1536
     79  C          8.9770   -2.7160   29.0800 C.2   172  PRO172      0.2599
     80  O          7.8640   -2.2560   28.8460 O.2   172  PRO172     -0.2715
     81  CB        10.6280   -0.8330   28.9520 C.3   172  PRO172      0.0310
     82  CG        10.4650    0.1850   27.8660 C.3   172  PRO172      0.0237
     83  CD         9.6600   -0.4320   26.7940 C.3   172  PRO172      0.0939
     84  N          9.2070   -3.7080   29.9410 N.am  173  GLY173     -0.1941
     85  CA         8.1500   -4.3450   30.7100 C.3   173  GLY173      0.2014
     86  C          7.6120   -5.6230   30.1190 C.2   173  GLY173      0.2639
     87  O          7.0210   -6.3990   30.8390 O.2   173  GLY173     -0.2714
     88  N          7.7920   -5.8350   28.8160 N.am  174  PHE174     -0.1959
     89  CA         7.2210   -7.0150   28.1320 C.3   174  PHE174      0.1771
     90  C          8.0690   -8.2560   28.3660 C.2   174  PHE174      0.2619
     91  O          7.5560   -9.3820   28.3710 O.2   174  PHE174     -0.2715
     92  CB         7.0350   -6.7730   26.6200 C.3   174  PHE174      0.0574
     93  CG         5.8090   -5.9490   26.2860 C.ar  174  PHE174     -0.0200
     94  CD1        4.5900   -6.5570   26.1160 C.ar  174  PHE174     -0.0042
     95  CD2        5.8740   -4.5720   26.1760 C.ar  174  PHE174     -0.0042
     96  CE1        3.4680   -5.8140   25.8420 C.ar  174  PHE174     -0.0003
     97  CE2        4.7480   -3.8440   25.9020 C.ar  174  PHE174     -0.0003
     98  CZ         3.5490   -4.4650   25.7390 C.ar  174  PHE174     -0.0000
     99  N          9.3630   -8.0350   28.5950 N.am  175  ALA175     -0.1963
    100  CA        10.3540   -9.1010   28.8750 C.3   175  ALA175      0.1728
    101  C          9.8490  -10.3760   29.6150 C.2   175  ALA175      0.2616
    102  O          9.8660  -11.4960   29.0560 O.2   175  ALA175     -0.2715
    103  CB        11.5420   -8.4790   29.6540 C.3   175  ALA175      0.0334
    104  N          9.4380  -10.2010   30.8760 N.am  176  GLY176     -0.1955
    105  CA         9.0450  -11.3270   31.7240 C.3   176  GLY176      0.1869
    106  C          7.9400  -12.1250   31.0830 C.2   176  GLY176      0.2309
    107  O          8.0830  -13.3200   30.8750 O.2   176  GLY176     -0.2863
@<TRIPOS>BOND
     1    54    53   ar
     2    53    55   ar
     3    53    52    1
     4    52    49    1
     5    63    62   ar
     6    49    50    1
     7    49    48    1
     8    65    66    1
     9    76    75    1
    10    76    70    1
    11    36    37    1
    12    66    69    1
    13    66    67    1
    14    75    74    1
    15    58    57    1
    16    58    59    2
    17    56    50   am
    18    56    57    1
    19    60    57    1
    20    60    61    1
    21    50    51    2
    22    74    71    1
    23    62    61    1
    24    62    64   ar
    25    70    67   am
    26    70    71    1
    27    37    40    1
    28    37    38    1
    29    67    68    2
    30    40    42    1
    31    40    41    1
    32    71    72    1
    33    38    43   am
    34    38    39    2
    35    43    44    1
    36    98    96   ar
    37    98    97   ar
    38    96    94   ar
    39    97    95   ar
    40    72    73    2
    41    72    77   am
    42    94    93   ar
    43    95    93   ar
    44    93    92    1
    45    92    89    1
    46    83    77    1
    47    83    82    1
    48    45    44    1
    49    45    46    2
    50    77    78    1
    51    44    47    1
    52    82    81    1
    53    89    90    1
    54    89    88    1
    55    78    81    1
    56    78    79    1
    57    90    91    2
    58    90    99   am
    59    99   100    1
    60    88    86   am
    61    80    79    2
    62   100   101    1
    63   100   103    1
    64   102   101    2
    65    79    84   am
    66   101   104   am
    67    84    85    1
    68    86    85    1
    69    86    87    2
    70   107   106    2
    71   104   105    1
    72   106   105    1
    73    20    19    1
    74     8     6    1
    75    19    18   ar
    76    19    17   ar
    77    18    16   ar
    78    17    15   ar
    79     7     5    1
    80     6     5    1
    81     5     2    1
    82    16    14   ar
    83    15    14   ar
    84    14    13    1
    85     2     3    1
    86     2     1    1
    87     3     9   am
    88     3     4    2
    89     9    10    1
    90    13    10    1
    91    24    23    2
    92    10    11    1
    93    22    23    1
    94    22    21    1
    95    23    25   am
    96    25    26    1
    97    30    31    1
    98    30    29    2
    99    26    29    1
   100    26    27    1
   101    11    12    2
   102    31    32    1
   103    34    33    1
   104    27    28    2
   105    32    33    2
   106    33    35    1
