@<TRIPOS>MOLECULE
tmp/3ne2D00.pdb
 130 126 0 0 0
SMALL
GASTEIGER

@<TRIPOS>ATOM
      1  N          8.8960    4.2150   35.7890 N.3     1  THR1       -0.1218
      2  CA         9.6380    5.5020   35.7670 C.3     1  THR1        0.1862
      3  C         11.1510    5.2940   35.8800 C.2     1  THR1        0.2287
      4  O         11.6310    4.3030   36.4560 O.2     1  THR1       -0.2866
      5  CB         9.1850    6.4400   36.9070 C.3     1  THR1        0.1770
      6  OG1        7.7810    6.2830   37.1320 O.3     1  THR1       -0.2211
      7  CG2        9.4860    7.8980   36.5620 C.3     1  THR1        0.0375
      8  N         16.1910   11.4680   36.8590 N.3     7  ARG7       -0.1245
      9  CA        15.2220   12.5620   36.7500 C.3     7  ARG7        0.1563
     10  C         15.8350   13.8680   37.2640 C.2     7  ARG7        0.2260
     11  O         15.4960   14.9570   36.8030 O.2     7  ARG7       -0.2867
     12  CB        13.9340   12.2170   37.4930 C.3     7  ARG7        0.0307
     13  CG        13.1960   11.0840   36.8320 C.3     7  ARG7        0.0489
     14  CD        11.9020   10.7180   37.5210 C.3     7  ARG7        0.2205
     15  NE        12.1310    9.9290   38.7260 N.pl3   7  ARG7       -0.0865
     16  CZ        11.7900   10.2870   39.9630 C.cat   7  ARG7        0.5346
     17  NH1       11.1820   11.4440   40.2070 N.pl3   7  ARG7        0.1354
     18  NH2       12.0570    9.4760   40.9710 N.pl3   7  ARG7        0.1354
     19  N         10.2740   15.7370   29.0940 N.3    74  GLY74      -0.1210
     20  CA         9.0410   15.5760   29.8790 C.3    74  GLY74       0.1956
     21  C          8.7300   14.1330   30.2130 C.2    74  GLY74       0.2612
     22  O          8.3540   13.8030   31.3280 O.2    74  GLY74      -0.2717
     23  N          8.9050   13.2590   29.2400 N.am   75  ARG75      -0.1965
     24  CA         8.7600   11.8290   29.4640 C.3    75  ARG75       0.1729
     25  C          9.6700   11.3110   30.5910 C.2    75  ARG75       0.2616
     26  O          9.3580   10.3260   31.2090 O.2    75  ARG75      -0.2715
     27  CB         9.0490   11.0860   28.1450 C.3    75  ARG75       0.0348
     28  CG         8.0930    9.9910   27.7940 C.3    75  ARG75       0.0492
     29  CD         8.4600    9.3390   26.4490 C.3    75  ARG75       0.2205
     30  NE         8.6890   10.3150   25.3850 N.pl3  75  ARG75      -0.0865
     31  CZ         7.7350   11.0320   24.7840 C.cat  75  ARG75       0.5346
     32  NH1        6.4490   10.8940   25.1210 N.pl3  75  ARG75       0.1354
     33  NH2        8.0740   11.9110   23.8390 N.pl3  75  ARG75       0.1354
     34  N         10.7760   11.9820   30.8690 N.am   76  ILE76      -0.1963
     35  CA        11.7470   11.4600   31.8210 C.3    76  ILE76       0.1727
     36  C         11.5600   12.0160   33.2380 C.2    76  ILE76       0.2617
     37  O         11.3120   11.2550   34.1650 O.2    76  ILE76      -0.2715
     38  CB        13.1930   11.6960   31.3390 C.3    76  ILE76       0.0290
     39  CG1       13.4980   10.7750   30.1670 C.3    76  ILE76       0.0022
     40  CG2       14.1930   11.4180   32.4700 C.3    76  ILE76       0.0023
     41  CD1       14.5660   11.2770   29.2350 C.3    76  ILE76       0.0001
     42  N         11.6920   13.3310   33.4000 N.am   77  SER77      -0.1936
     43  CA        11.6120   13.9620   34.7190 C.3    77  SER77       0.2055
     44  C         10.2350   14.5290   34.9950 C.2    77  SER77       0.2643
     45  O          9.8920   14.8090   36.1400 O.2    77  SER77      -0.2714
     46  CB        12.6290   15.1050   34.8380 C.3    77  SER77       0.2130
     47  OG        12.2880   16.2020   34.0090 O.3    77  SER77      -0.2179
     48  N          9.4520   14.7050   33.9420 N.am   78  GLY78      -0.1954
     49  CA         8.2460   15.5030   34.0130 C.3    78  GLY78       0.1869
     50  C          8.4940   16.8630   33.4050 C.2    78  GLY78       0.2309
     51  O          7.5460   17.5900   33.1180 O.2    78  GLY78      -0.2863
     52  N          9.8300   19.7050   34.7400 N.3    80  HIS80      -0.1241
     53  CA         9.3530   20.7980   35.5930 C.3    80  HIS80       0.1621
     54  C         10.1500   22.0700   35.3180 C.2    80  HIS80       0.2264
     55  O          9.5750   23.1490   35.1740 O.2    80  HIS80      -0.2867
     56  CB         9.4610   20.4360   37.0790 C.3    80  HIS80       0.0745
     57  CG         8.5670   19.3120   37.4960 C.ar   80  HIS80       0.0817
     58  ND1        7.9380   19.2800   38.7250 N.ar   80  HIS80      -0.2268
     59  CD2        8.1920   18.1800   36.8500 C.ar   80  HIS80       0.1154
     60  CE1        7.2290   18.1660   38.8240 C.ar   80  HIS80       0.1986
     61  NE2        7.3690   17.4810   37.7020 N.ar   80  HIS80      -0.2212
     62  N          2.5780   21.4480   42.2230 N.3    89  LEU89      -0.1245
     63  CA         2.1370   20.0740   41.9760 C.3    89  LEU89       0.1561
     64  C          2.1500   19.2680   43.2530 C.2    89  LEU89       0.2260
     65  O          1.3060   18.3930   43.4390 O.2    89  LEU89      -0.2867
     66  CB         3.0050   19.3840   40.9100 C.3    89  LEU89       0.0270
     67  CG         2.7620   19.8140   39.4580 C.3    89  LEU89       0.0019
     68  CD1        3.8470   19.2880   38.5310 C.3    89  LEU89       0.0001
     69  CD2        1.3920   19.3480   39.0160 C.3    89  LEU89       0.0001
     70  N          0.1970   15.6210   43.6530 N.3    94  ARG94      -0.1231
     71  CA         0.5810   15.0610   42.3620 C.3    94  ARG94       0.1694
     72  C          2.0950   14.8520   42.2750 C.2    94  ARG94       0.2592
     73  O          2.5920   14.2480   41.3400 O.2    94  ARG94      -0.2718
     74  CB         0.0970   15.9840   41.2420 C.3    94  ARG94       0.0321
     75  CG        -1.4160   16.0520   41.1290 C.3    94  ARG94       0.0489
     76  CD        -1.9930   14.7130   40.6910 C.3    94  ARG94       0.2205
     77  NE        -3.0860   14.9100   39.7380 N.pl3  94  ARG94      -0.0865
     78  CZ        -3.2870   14.1930   38.6290 C.cat  94  ARG94       0.5346
     79  NH1       -2.4700   13.1900   38.2990 N.pl3  94  ARG94       0.1354
     80  NH2       -4.3140   14.4880   37.8320 N.pl3  94  ARG94       0.1354
     81  N          2.8270   15.3420   43.2640 N.am   95  PHE95      -0.1963
     82  CA         4.2600   15.1180   43.3320 C.3    95  PHE95       0.1756
     83  C          4.6940   14.7500   44.7600 C.2    95  PHE95       0.2461
     84  O          4.2260   15.3230   45.7360 O.2    95  PHE95      -0.2730
     85  CB         5.0180   16.3490   42.8490 C.3    95  PHE95       0.0574
     86  CG         6.4540   16.0770   42.5120 C.ar   95  PHE95      -0.0200
     87  CD1        6.7800   15.2320   41.4700 C.ar   95  PHE95      -0.0042
     88  CD2        7.4810   16.6700   43.2290 C.ar   95  PHE95      -0.0042
     89  CE1        8.1060   14.9760   41.1490 C.ar   95  PHE95      -0.0003
     90  CE2        8.8100   16.4160   42.9140 C.ar   95  PHE95      -0.0003
     91  CZ         9.1200   15.5670   41.8720 C.ar   95  PHE95      -0.0000
     92  N          5.5860   13.7730   44.8760 N.am   96  PRO96      -0.2727
     93  CA         6.0420   13.3410   46.1800 C.3    96  PRO96       0.1402
     94  C          6.8480   14.3990   46.8920 C.2    96  PRO96       0.2269
     95  O          7.7320   14.9960   46.2780 O.2    96  PRO96      -0.2865
     96  CB         6.9270   12.1320   45.8560 C.3    96  PRO96       0.0296
     97  CG         7.2380   12.2590   44.4000 C.3    96  PRO96       0.0237
     98  CD         6.0590   12.8840   43.8050 C.3    96  PRO96       0.0939
     99  N          9.0450   14.0210   49.1460 N.3    98  ARG98      -0.1231
    100  CA        10.4370   13.6020   49.2570 C.3    98  ARG98       0.1694
    101  C         11.3070   14.0930   48.1020 C.2    98  ARG98       0.2591
    102  O         12.5280   14.1730   48.2380 O.2    98  ARG98      -0.2718
    103  CB        10.5450   12.0870   49.3940 C.3    98  ARG98       0.0321
    104  CG         9.8750   11.2480   48.3440 C.3    98  ARG98       0.0489
    105  CD        10.3210    9.8000   48.5090 C.3    98  ARG98       0.2205
    106  NE         9.9860    8.9610   47.3670 N.pl3  98  ARG98      -0.0865
    107  CZ         8.8300    8.3270   47.1890 C.cat  98  ARG98       0.5346
    108  NH1        7.8390    8.4130   48.0680 N.pl3  98  ARG98       0.1354
    109  NH2        8.6610    7.6060   46.0960 N.pl3  98  ARG98       0.1354
    110  N         10.6660   14.4400   46.9870 N.am   99  GLU99      -0.1979
    111  CA        11.3520   14.8210   45.7490 C.3    99  GLU99       0.1602
    112  C         11.2860   16.3100   45.3840 C.2    99  GLU99       0.2287
    113  O         11.8840   16.7070   44.3820 O.2    99  GLU99      -0.2864
    114  CB        10.7820   14.0120   44.5860 C.3    99  GLU99       0.0415
    115  CG        11.2400   12.5570   44.6070 C.3    99  GLU99       0.1163
    116  CD        10.5930   11.6920   43.5190 C.2    99  GLU99       0.3649
    117  OE1       10.0020   12.2450   42.5480 O.co2  99  GLU99      -0.2457
    118  OE2       10.6880   10.4470   43.6440 O.co2  99  GLU99      -0.2457
    119  N         14.3470   18.1150   43.4410 N.3   103  TYR103     -0.1241
    120  CA        13.9970   18.7100   42.1470 C.3   103  TYR103      0.1605
    121  C         14.4550   20.1610   42.0690 C.2   103  TYR103      0.2264
    122  O         15.1260   20.5430   41.1190 O.2   103  TYR103     -0.2867
    123  CB        12.4870   18.5970   41.8690 C.3   103  TYR103      0.0534
    124  CG        12.1240   17.4990   40.8850 C.ar  103  TYR103     -0.0201
    125  CD1       11.1940   17.7280   39.8690 C.ar  103  TYR103     -0.0009
    126  CD2       12.7240   16.2370   40.9470 C.ar  103  TYR103     -0.0009
    127  CE1       10.8550   16.7070   38.9490 C.ar  103  TYR103      0.0417
    128  CE2       12.3960   15.2240   40.0230 C.ar  103  TYR103      0.0417
    129  CZ        11.4680   15.4660   39.0380 C.ar  103  TYR103      0.1957
    130  OH        11.1610   14.4730   38.1470 O.3   103  TYR103     -0.2866
@<TRIPOS>BOND
     1    33    31    1
     2    31    32    1
     3    31    30    2
     4    30    29    1
     5    29    28    1
     6    28    27    1
     7    27    24    1
     8    19    20    1
     9    41    39    1
    10    23    24    1
    11    23    21   am
    12    24    25    1
    13    20    21    1
    14    39    38    1
    15    21    22    2
    16    25    34   am
    17    25    26    2
    18    34    35    1
    19    38    35    1
    20    38    40    1
    21    35    36    1
    22    51    50    2
    23    36    42   am
    24    36    37    2
    25    42    43    1
    26    50    49    1
    27    48    49    1
    28    48    44   am
    29    47    46    1
    30    43    46    1
    31    43    44    1
    32    52    53    1
    33    44    45    2
    34    55    54    2
    35    54    53    1
    36    53    56    1
    37     2     1    1
    38     2     3    1
    39     2     5    1
    40     3     4    2
    41     7     5    1
    42     9     8    1
    43     9    10    1
    44     9    12    1
    45    11    10    2
    46    13    12    1
    47    13    14    1
    48    59    57   ar
    49    59    61   ar
    50     5     6    1
    51    56    57    1
    52    57    58   ar
    53    14    15    1
    54    61    60   ar
    55    80    78    1
    56   130   129    1
    57    79    78    1
    58    68    67    1
    59    78    77    2
    60    58    60   ar
    61    15    16    2
    62   127   129   ar
    63   127   125   ar
    64    69    67    1
    65   129   128   ar
    66    67    66    1
    67    77    76    1
    68   125   124   ar
    69    16    17    1
    70    16    18    1
    71   128   126   ar
    72    76    75    1
    73   124   126   ar
    74   124   123    1
    75    66    63    1
    76   122   121    2
    77    75    74    1
    78    89    87   ar
    79    89    91   ar
    80    74    71    1
    81    73    72    2
    82    87    86   ar
    83   123   120    1
    84    91    90   ar
    85    63    62    1
    86    63    64    1
    87   121   120    1
    88   120   119    1
    89    72    71    1
    90    72    81   am
    91    71    70    1
    92    86    85    1
    93    86    88   ar
    94   117   116   ar
    95    85    82    1
    96    90    88   ar
    97    64    65    2
    98    81    82    1
    99    82    83    1
   100   116   118   ar
   101   116   115    1
   102    98    97    1
   103    98    92    1
   104   113   112    2
   105    97    96    1
   106   114   115    1
   107   114   111    1
   108    83    92   am
   109    83    84    2
   110    92    93    1
   111   112   111    1
   112   111   110    1
   113    96    93    1
   114   109   107    1
   115    93    94    1
   116    95    94    2
   117   110   101   am
   118   107   106    2
   119   107   108    1
   120   106   105    1
   121   101   102    2
   122   101   100    1
   123   104   105    1
   124   104   103    1
   125    99   100    1
   126   100   103    1
