@<TRIPOS>MOLECULE
tmp/3ne7A00.pdb
 188 187 0 0 0
SMALL
GASTEIGER

@<TRIPOS>ATOM
      1  N         -5.8310    4.2690   -5.4640 N.3    22  SER22      -0.1217
      2  CA        -6.8170    3.2260   -5.7290 C.3    22  SER22       0.1889
      3  C         -6.8510    2.8860   -7.2140 C.2    22  SER22       0.2288
      4  O         -6.8340    1.7250   -7.6060 O.2    22  SER22      -0.2866
      5  CB        -8.1780    3.6640   -5.2180 C.3    22  SER22       0.2089
      6  OG        -9.0930    2.5930   -5.1250 O.3    22  SER22      -0.2183
      7  N         -3.8930    0.6630   -8.3990 N.3    25  TRP25      -0.1227
      8  CA        -4.0690   -0.7090   -7.9620 C.3    25  TRP25       0.1737
      9  C         -5.1960   -1.4160   -8.7090 C.2    25  TRP25       0.2596
     10  O         -5.0400   -2.5370   -9.1680 O.2    25  TRP25      -0.2718
     11  CB        -4.3930   -0.6700   -6.4600 C.3    25  TRP25       0.0564
     12  CG        -4.5400   -1.9670   -5.8130 C.ar   25  TRP25       0.0003
     13  CD1       -3.5420   -2.8370   -5.5000 C.ar   25  TRP25       0.0946
     14  CD2       -5.7520   -2.5420   -5.3240 C.ar   25  TRP25       0.0152
     15  NE1       -4.0660   -3.9490   -4.8590 N.ar   25  TRP25      -0.2442
     16  CE2       -5.4160   -3.7850   -4.7240 C.ar   25  TRP25       0.0810
     17  CE3       -7.0820   -2.1330   -5.3240 C.ar   25  TRP25       0.0012
     18  CZ2       -6.3710   -4.6370   -4.1710 C.ar   25  TRP25       0.0191
     19  CZ3       -8.0380   -2.9650   -4.7400 C.ar   25  TRP25       0.0001
     20  CH2       -7.6690   -4.2200   -4.1770 C.ar   25  TRP25       0.0015
     21  N         -6.3460   -0.7520   -8.7970 N.am   26  THR26      -0.1939
     22  CA        -7.5410   -1.3480   -9.3810 C.3    26  THR26       0.2028
     23  C         -7.3360   -1.7130  -10.8750 C.2    26  THR26       0.2642
     24  O         -7.7760   -2.7660  -11.3410 O.2    26  THR26      -0.2714
     25  CB        -8.7280   -0.3290   -9.2870 C.3    26  THR26       0.1808
     26  OG1       -8.9690   -0.0140   -7.9120 O.3    26  THR26      -0.2208
     27  CG2       -9.9880   -0.8570   -9.9030 C.3    26  THR26       0.0379
     28  N         -6.6700   -0.8410  -11.6080 N.am   27  TYR27      -0.1973
     29  CA        -6.5530   -1.0030  -13.0660 C.3    27  TYR27       0.1639
     30  C         -5.1990   -1.5120  -13.5220 C.2    27  TYR27       0.2290
     31  O         -4.9090   -1.4460  -14.6990 O.2    27  TYR27      -0.2864
     32  CB        -6.9130    0.3040  -13.7720 C.3    27  TYR27       0.0560
     33  CG        -8.3300    0.7090  -13.4450 C.ar   27  TYR27      -0.0198
     34  CD1       -9.4140   -0.0060  -13.9350 C.ar   27  TYR27      -0.0009
     35  CD2       -8.5800    1.7510  -12.6000 C.ar   27  TYR27      -0.0009
     36  CE1      -10.7220    0.3500  -13.6080 C.ar   27  TYR27       0.0417
     37  CE2       -9.8550    2.1100  -12.2630 C.ar   27  TYR27       0.0417
     38  CZ       -10.9410    1.4110  -12.7570 C.ar   27  TYR27       0.1957
     39  OH       -12.2290    1.8150  -12.3580 O.3    27  TYR27      -0.2866
     40  N        -16.3770    4.9230   -6.3950 N.3    91  LEU91      -0.1231
     41  CA       -16.2520    4.3100   -5.1120 C.3    91  LEU91       0.1693
     42  C        -14.8570    3.6970   -5.0880 C.2    91  LEU91       0.2592
     43  O        -14.5980    2.7090   -5.7730 O.2    91  LEU91      -0.2718
     44  CB       -17.3270    3.2370   -4.9490 C.3    91  LEU91       0.0284
     45  CG       -17.3620    2.4070   -3.6750 C.3    91  LEU91       0.0019
     46  CD1      -17.3430    3.2650   -2.4150 C.3    91  LEU91       0.0001
     47  CD2      -18.5770    1.4510   -3.6910 C.3    91  LEU91       0.0001
     48  N        -13.9580    4.3040   -4.3150 N.am   92  TYR92      -0.1962
     49  CA       -12.5690    3.9080   -4.2990 C.3    92  TYR92       0.1771
     50  C        -12.0890    3.9820   -2.8610 C.2    92  TYR92       0.2619
     51  O        -12.3670    4.9810   -2.1520 O.2    92  TYR92      -0.2715
     52  CB       -11.7150    4.8390   -5.2100 C.3    92  TYR92       0.0574
     53  CG       -12.0220    4.6980   -6.7000 C.ar   92  TYR92      -0.0198
     54  CD1      -11.4620    3.6790   -7.4620 C.ar   92  TYR92      -0.0009
     55  CD2      -12.9270    5.5430   -7.3330 C.ar   92  TYR92      -0.0009
     56  CE1      -11.7790    3.5240   -8.8160 C.ar   92  TYR92       0.0417
     57  CE2      -13.2390    5.4030   -8.6930 C.ar   92  TYR92       0.0417
     58  CZ       -12.6730    4.3900   -9.4170 C.ar   92  TYR92       0.1957
     59  OH       -13.0060    4.2310  -10.7530 O.3    92  TYR92      -0.2866
     60  N        -11.3300    2.9640   -2.4430 N.am   93  LEU93      -0.1977
     61  CA       -10.6730    2.9450   -1.1440 C.3    93  LEU93       0.1596
     62  C         -9.1860    2.8370   -1.3840 C.2    93  LEU93       0.2287
     63  O         -8.8000    2.2890   -2.3920 O.2    93  LEU93      -0.2864
     64  CB       -11.1000    1.7120   -0.3410 C.3    93  LEU93       0.0297
     65  CG       -12.5880    1.4520   -0.0720 C.3    93  LEU93       0.0022
     66  CD1      -12.7540    0.2140    0.8780 C.3    93  LEU93       0.0001
     67  CD2      -13.2760    2.6550    0.5260 C.3    93  LEU93       0.0001
     68  N         -9.0890   -2.0150    1.8560 N.3    98  THR98      -0.1203
     69  CA       -10.1240   -2.8100    1.2420 C.3    98  THR98       0.1994
     70  C        -10.4150   -4.0720    2.0540 C.2    98  THR98       0.2618
     71  O         -9.6310   -4.4550    2.8940 O.2    98  THR98      -0.2717
     72  CB        -9.7900   -3.1960   -0.2160 C.3    98  THR98       0.1784
     73  OG1       -8.5780   -3.9690   -0.2450 O.3    98  THR98      -0.2211
     74  CG2       -9.6730   -1.9360   -1.0840 C.3    98  THR98       0.0376
     75  N        -11.5840   -4.6790    1.8000 N.am   99  HIS99      -0.1961
     76  CA       -11.9900   -5.9860    2.3490 C.3    99  HIS99       0.1787
     77  C        -12.2120   -5.8910    3.8600 C.2    99  HIS99       0.2620
     78  O        -12.0680   -6.8590    4.5900 O.2    99  HIS99      -0.2715
     79  CB       -10.9640   -7.0690    1.9860 C.3    99  HIS99       0.0785
     80  CG       -11.5210   -8.4730    1.8710 C.ar   99  HIS99       0.0821
     81  ND1      -12.0330   -9.1790    2.9390 N.ar   99  HIS99      -0.2267
     82  CD2      -11.5800   -9.3150    0.8080 C.ar   99  HIS99       0.1154
     83  CE1      -12.4210  -10.3740    2.5310 C.ar   99  HIS99       0.1986
     84  NE2      -12.1300  -10.4870    1.2480 N.ar   99  HIS99      -0.2212
     85  N        -12.6000   -4.7160    4.3390 N.am  100  LYS100     -0.1963
     86  CA       -12.9480   -4.5660    5.7520 C.3   100  LYS100      0.1728
     87  C        -14.3370   -3.9520    5.8920 C.2   100  LYS100      0.2616
     88  O        -14.6960   -3.4750    6.9530 O.2   100  LYS100     -0.2715
     89  CB       -11.9030   -3.7250    6.4670 C.3   100  LYS100      0.0311
     90  CG       -10.4640   -4.2860    6.3490 C.3   100  LYS100      0.0038
     91  CD        -9.3790   -3.2370    6.6630 C.3   100  LYS100      0.0206
     92  CE        -7.9570   -3.6940    6.2390 C.3   100  LYS100      0.1093
     93  NZ        -7.2860   -4.6800    7.2060 N.3   100  LYS100     -0.1314
     94  N        -15.1040   -3.9900    4.8010 N.am  101  LYS101     -0.1963
     95  CA       -16.4940   -3.5030    4.7580 C.3   101  LYS101      0.1728
     96  C        -16.6330   -1.9970    4.8250 C.2   101  LYS101      0.2616
     97  O        -17.7150   -1.4700    5.0810 O.2   101  LYS101     -0.2715
     98  CB       -17.3620   -4.1960    5.8190 C.3   101  LYS101      0.0311
     99  CG       -17.5300   -5.6810    5.5180 C.3   101  LYS101      0.0038
    100  CD       -18.2150   -6.4160    6.6180 C.3   101  LYS101      0.0206
    101  CE       -17.9340   -7.9240    6.5090 C.3   101  LYS101      0.1093
    102  NZ       -17.9070   -8.2660    5.0570 N.3   101  LYS101     -0.1314
    103  N        -15.5600   -1.2770    4.5690 N.am  102  ILE102     -0.1963
    104  CA       -15.6580    0.1840    4.5250 C.3   102  ILE102      0.1727
    105  C        -16.4290    0.6220    3.2740 C.2   102  ILE102      0.2617
    106  O        -17.2420    1.5570    3.3190 O.2   102  ILE102     -0.2715
    107  CB       -14.2780    0.8420    4.5890 C.3   102  ILE102      0.0290
    108  CG1      -13.6250    0.5180    5.9640 C.3   102  ILE102      0.0022
    109  CG2      -14.4060    2.3770    4.3700 C.3   102  ILE102      0.0023
    110  CD1      -12.1480    0.8310    6.0940 C.3   102  ILE102      0.0001
    111  N        -16.2350   -0.0820    2.1630 N.am  103  GLY103     -0.1940
    112  CA       -16.9760    0.2390    0.9600 C.3   103  GLY103      0.2014
    113  C        -18.4450   -0.0980    1.0650 C.2   103  GLY103      0.2638
    114  O        -19.2940    0.6230    0.5390 O.2   103  GLY103     -0.2714
    115  N        -18.7530   -1.1990    1.7360 N.am  104  LYS104     -0.1977
    116  CA       -20.1290   -1.5680    1.9830 C.3   104  LYS104      0.1596
    117  C        -20.7900   -0.4780    2.7910 C.2   104  LYS104      0.2287
    118  O        -21.9040   -0.0660    2.4860 O.2   104  LYS104     -0.2864
    119  CB       -20.2030   -2.9100    2.7190 C.3   104  LYS104      0.0298
    120  CG       -21.6110   -3.4950    2.8630 C.3   104  LYS104      0.0038
    121  CD       -21.5700   -4.7570    3.7340 C.3   104  LYS104      0.0206
    122  CE       -22.8060   -5.6390    3.5110 C.3   104  LYS104      0.1093
    123  NZ       -22.7020   -6.3630    2.1840 N.3   104  LYS104     -0.1314
    124  N        -12.6290   -5.6520  -14.0870 N.3   129  ASN129     -0.1240
    125  CA       -12.4530   -5.3210  -12.6820 C.3   129  ASN129      0.1653
    126  C        -13.2370   -6.2540  -11.7690 C.2   129  ASN129      0.2266
    127  O        -14.3320   -5.9380  -11.3080 O.2   129  ASN129     -0.2867
    128  CB       -12.7980   -3.8650  -12.4160 C.3   129  ASN129      0.1155
    129  CG       -12.6580   -3.4970  -10.9700 C.2   129  ASN129      0.2627
    130  OD1      -12.1430   -4.2740  -10.1620 O.2   129  ASN129     -0.2716
    131  ND2      -13.1450   -2.3290  -10.6240 N.am  129  ASN129     -0.0877
    132  N        -12.6570   -7.1680   -8.7240 N.3   131  VAL131     -0.1231
    133  CA       -12.7310   -6.7080   -7.3320 C.3   131  VAL131      0.1692
    134  C        -14.0370   -5.9250   -7.1660 C.2   131  VAL131      0.2592
    135  O        -14.8960   -6.2850   -6.3750 O.2   131  VAL131     -0.2718
    136  CB       -11.4740   -5.8520   -6.9300 C.3   131  VAL131      0.0266
    137  CG1      -11.6630   -5.1820   -5.6040 C.3   131  VAL131      0.0020
    138  CG2      -10.1250   -6.7470   -6.9080 C.3   131  VAL131      0.0020
    139  N        -14.1960   -4.8710   -7.9570 N.am  132  GLY132     -0.1957
    140  CA       -15.4150   -4.1020   -7.9080 C.3   132  GLY132      0.1869
    141  C        -16.6670   -4.8390   -8.3150 C.2   132  GLY132      0.2309
    142  O        -17.6990   -4.7310   -7.6510 O.2   132  GLY132     -0.2863
    143  N        -17.3970   -8.0400   -8.3170 N.3   134  SER134     -0.1202
    144  CA       -17.7980   -9.0260   -7.3040 C.3   134  SER134      0.2020
    145  C        -18.3670   -8.3110   -6.0770 C.2   134  SER134      0.2619
    146  O        -19.3660   -8.7270   -5.4880 O.2   134  SER134     -0.2717
    147  CB       -16.6090   -9.9420   -6.9380 C.3   134  SER134      0.2103
    148  OG       -15.6120   -9.2010   -6.2480 O.3   134  SER134     -0.2182
    149  N        -17.7690   -7.1980   -5.6920 N.am  135  PHE135     -0.1961
    150  CA       -18.3360   -6.4430   -4.5750 C.3   135  PHE135      0.1771
    151  C        -19.7810   -5.9980   -4.8540 C.2   135  PHE135      0.2619
    152  O        -20.6720   -6.0900   -3.9590 O.2   135  PHE135     -0.2715
    153  CB       -17.4530   -5.2580   -4.2490 C.3   135  PHE135      0.0574
    154  CG       -18.1240   -4.1910   -3.4030 C.ar  135  PHE135     -0.0200
    155  CD1      -18.7100   -3.0750   -4.0080 C.ar  135  PHE135     -0.0042
    156  CD2      -18.1540   -4.3040   -2.0100 C.ar  135  PHE135     -0.0042
    157  CE1      -19.3040   -2.0710   -3.2480 C.ar  135  PHE135     -0.0003
    158  CE2      -18.7340   -3.3020   -1.2250 C.ar  135  PHE135     -0.0003
    159  CZ       -19.3100   -2.1760   -1.8330 C.ar  135  PHE135     -0.0000
    160  N        -20.0130   -5.5280   -6.0870 N.am  136  TYR136     -0.1974
    161  CA       -21.3440   -5.0970   -6.4850 C.3   136  TYR136      0.1639
    162  C        -22.3910   -6.1810   -6.4910 C.2   136  TYR136      0.2290
    163  O        -23.4830   -5.9670   -5.9740 O.2   136  TYR136     -0.2864
    164  CB       -21.3150   -4.3870   -7.8400 C.3   136  TYR136      0.0560
    165  CG       -20.6500   -3.0330   -7.7400 C.ar  136  TYR136     -0.0198
    166  CD1      -20.9390   -2.1760   -6.6970 C.ar  136  TYR136     -0.0009
    167  CD2      -19.7130   -2.6170   -8.6850 C.ar  136  TYR136     -0.0009
    168  CE1      -20.3280   -0.9010   -6.6050 C.ar  136  TYR136      0.0417
    169  CE2      -19.1050   -1.3690   -8.5980 C.ar  136  TYR136      0.0417
    170  CZ       -19.4150   -0.5140   -7.5520 C.ar  136  TYR136      0.1957
    171  OH       -18.8260    0.7560   -7.4570 O.3   136  TYR136     -0.2866
    172  N        -22.3000   -8.8780   -4.7870 N.3   138  LYS138     -0.1231
    173  CA       -22.4750   -9.2900   -3.3910 C.3   138  LYS138      0.1693
    174  C        -23.2730   -8.2820   -2.6190 C.2   138  LYS138      0.2592
    175  O        -23.6490   -8.5730   -1.5250 O.2   138  LYS138     -0.2718
    176  CB       -21.1240   -9.5910   -2.6900 C.3   138  LYS138      0.0285
    177  CG       -20.5050  -10.9370   -3.1170 C.3   138  LYS138      0.0035
    178  CD       -18.9930  -11.0110   -2.9190 C.3   138  LYS138      0.0206
    179  CE       -18.3790  -12.2260   -3.5900 C.3   138  LYS138      0.1093
    180  NZ       -16.9150  -12.3430   -3.2940 N.3   138  LYS138     -0.1314
    181  N        -23.5260   -7.0960   -3.1800 N.am  139  ASN139     -0.1974
    182  CA       -24.3680   -6.0900   -2.5640 C.3   139  ASN139      0.1688
    183  C        -25.6360   -5.8160   -3.3690 C.2   139  ASN139      0.2292
    184  O        -26.2140   -4.7210   -3.3040 O.2   139  ASN139     -0.2864
    185  CB       -23.5450   -4.8320   -2.3410 C.3   139  ASN139      0.1181
    186  CG       -22.6140   -4.9810   -1.1550 C.2   139  ASN139      0.2629
    187  OD1      -23.0670   -5.0100   -0.0250 O.2   139  ASN139     -0.2716
    188  ND2      -21.3250   -5.1800   -1.4160 N.am  139  ASN139     -0.0877
@<TRIPOS>BOND
     1    31    30    2
     2   124   125    1
     3    34    36   ar
     4    34    33   ar
     5    32    33    1
     6    32    29    1
     7    36    38   ar
     8    30    29    1
     9    33    35   ar
    10    29    28    1
    11    38    39    1
    12    38    37   ar
    13   125   128    1
    14   125   126    1
    15    35    37   ar
    16   128   129    1
    17   126   127    2
    18    28    23   am
    19    24    23    2
    20   129   131   am
    21   129   130    2
    22    23    22    1
    23    59    58    1
    24    27    25    1
    25    58    56   ar
    26    58    57   ar
    27    22    25    1
    28    22    21    1
    29    25    26    1
    30    10     9    2
    31    56    54   ar
    32    21     9   am
    33   132   133    1
    34     9     8    1
    35    57    55   ar
    36   167   169   ar
    37   167   165   ar
    38   169   170   ar
    39     7     8    1
    40   143   144    1
    41   141   140    1
    42   141   142    2
    43     8    11    1
    44   139   140    1
    45   139   134   am
    46   164   165    1
    47   164   161    1
    48   165   166   ar
    49     4     3    2
    50   170   171    1
    51   170   168   ar
    52    54    53   ar
    53    55    53   ar
    54   133   134    1
    55   133   136    1
    56   144   147    1
    57   144   145    1
    58     3     2    1
    59   134   135    2
    60   147   148    1
    61   136   138    1
    62   136   137    1
    63    53    52    1
    64   166   168   ar
    65   162   161    1
    66   162   163    2
    67   161   160    1
    68    11    12    1
    69    40    41    1
    70   160   151   am
    71   145   149   am
    72   145   146    2
    73    12    13   ar
    74    12    14   ar
    75    43    42    2
    76     2     1    1
    77     2     5    1
    78   149   150    1
    79    13    15   ar
    80    14    17   ar
    81    14    16   ar
    82    17    19   ar
    83     5     6    1
    84    52    49    1
    85    41    42    1
    86    41    44    1
    87    42    48   am
    88    44    45    1
    89    15    16   ar
    90   151   150    1
    91   151   152    2
    92   172   173    1
    93    19    20   ar
    94    16    18   ar
    95   150   153    1
    96    48    49    1
    97    49    50    1
    98   153   154    1
    99    20    18   ar
   100   155   154   ar
   101   155   157   ar
   102    47    45    1
   103    45    46    1
   104   179   180    1
   105   179   178    1
   106   154   156   ar
   107   173   176    1
   108   173   174    1
   109   183   184    2
   110   183   182    1
   111   157   159   ar
   112   181   174   am
   113   181   182    1
   114   177   178    1
   115   177   176    1
   116    50    60   am
   117    50    51    2
   118   174   175    2
   119   182   185    1
   120    60    61    1
   121    63    62    2
   122   185   186    1
   123   156   158   ar
   124   159   158   ar
   125   188   186   am
   126    62    61    1
   127   186   187    2
   128    61    64    1
   129    74    72    1
   130    64    65    1
   131    73    72    1
   132    72    69    1
   133    65    67    1
   134    65    66    1
   135   114   113    2
   136    82    84   ar
   137    82    80   ar
   138   112   113    1
   139   112   111    1
   140   113   115   am
   141    69    68    1
   142    69    70    1
   143    84    83   ar
   144   115   116    1
   145    75    70   am
   146    75    76    1
   147    80    79    1
   148    80    81   ar
   149   116   119    1
   150   116   117    1
   151    79    76    1
   152    70    71    2
   153   111   105   am
   154   123   122    1
   155    76    77    1
   156   118   117    2
   157    83    81   ar
   158   119   120    1
   159   120   121    1
   160   105   106    2
   161   105   104    1
   162   122   121    1
   163    77    85   am
   164    77    78    2
   165    85    86    1
   166   109   107    1
   167   104   103    1
   168   104   107    1
   169   103    96   am
   170   107   108    1
   171    95    94    1
   172    95    96    1
   173    95    98    1
   174    94    87   am
   175    96    97    2
   176   102   101    1
   177    99    98    1
   178    99   100    1
   179    86    87    1
   180    86    89    1
   181    87    88    2
   182   108   110    1
   183    92    91    1
   184    92    93    1
   185    90    89    1
   186    90    91    1
   187   101   100    1
