@<TRIPOS>MOLECULE
tmp/3neeB00.pdb
 86 78 0 0 0
SMALL
GASTEIGER

@<TRIPOS>ATOM
      1  N        -19.3700   11.1490  -32.5850 N.3     4  MET4       -0.1245
      2  CA       -20.6070   10.3920  -32.7390 C.3     4  MET4        0.1570
      3  C        -21.0830   10.0260  -31.3440 C.2     4  MET4        0.2261
      4  O        -20.2790    9.8160  -30.4350 O.2     4  MET4       -0.2867
      5  CB       -20.3750    9.1080  -33.5590 C.3     4  MET4        0.0387
      6  CG       -21.6640    8.3960  -33.9990 C.3     4  MET4        0.0595
      7  SD       -22.2420    7.0850  -32.8960 S.3     4  MET4       -0.1393
      8  CE       -21.1840    5.7510  -33.4150 C.3     4  MET4        0.0692
      9  N        -23.7300    7.3120  -29.2930 N.3     6  LYS6       -0.1245
     10  CA       -24.5400    6.1000  -29.3940 C.3     6  LYS6        0.1561
     11  C        -25.1530    5.8050  -28.0340 C.2     6  LYS6        0.2260
     12  O        -24.4290    5.7490  -27.0320 O.2     6  LYS6       -0.2867
     13  CB       -23.6940    4.9190  -29.8800 C.3     6  LYS6        0.0271
     14  CG       -24.3530    3.5410  -29.7580 C.3     6  LYS6        0.0035
     15  CD       -25.0320    3.1580  -31.0200 C.3     6  LYS6        0.0206
     16  CE       -25.4480    1.7050  -31.0560 C.3     6  LYS6        0.1093
     17  NZ       -26.0740    1.4390  -32.3690 N.3     6  LYS6       -0.1314
     18  N        -27.8790    3.4270  -25.6610 N.3     8  LEU8       -0.1245
     19  CA       -28.6210    2.1850  -25.4770 C.3     8  LEU8        0.1561
     20  C        -29.5200    2.2630  -24.2540 C.2     8  LEU8        0.2260
     21  O        -29.2200    2.9820  -23.2860 O.2     8  LEU8       -0.2867
     22  CB       -27.6710    0.9960  -25.3170 C.3     8  LEU8        0.0270
     23  CG       -26.7120    0.7370  -26.4850 C.3     8  LEU8        0.0019
     24  CD1      -25.8660   -0.4800  -26.1200 C.3     8  LEU8        0.0001
     25  CD2      -27.4440    0.5140  -27.8010 C.3     8  LEU8        0.0001
     26  N        -28.2010    6.3300  -32.6740 N.3    45  GLU45      -0.1245
     27  CA       -26.9890    7.0190  -33.0780 C.3    45  GLU45       0.1567
     28  C        -27.2480    8.4520  -33.4770 C.2    45  GLU45       0.2260
     29  O        -28.3250    8.8090  -33.9790 O.2    45  GLU45      -0.2867
     30  CB       -26.3120    6.2660  -34.2200 C.3    45  GLU45       0.0388
     31  CG       -25.8800    4.8970  -33.7770 C.3    45  GLU45       0.1160
     32  CD       -25.3050    4.0580  -34.8920 C.2    45  GLU45       0.3649
     33  OE1      -25.5800    4.3760  -36.0710 O.co2  45  GLU45      -0.2457
     34  OE2      -24.5890    3.0700  -34.5750 O.co2  45  GLU45      -0.2457
     35  N        -16.3090    8.3750  -30.1470 N.3    97  THR97      -0.1218
     36  CA       -17.6580    7.8630  -29.9960 C.3    97  THR97       0.1862
     37  C        -17.9890    7.9120  -28.5240 C.2    97  THR97       0.2287
     38  O        -17.2680    7.3110  -27.7020 O.2    97  THR97      -0.2866
     39  CB       -17.8020    6.4230  -30.5250 C.3    97  THR97       0.1770
     40  OG1      -17.5800    6.4270  -31.9430 O.3    97  THR97      -0.2211
     41  CG2      -19.1870    5.8700  -30.2180 C.3    97  THR97       0.0375
     42  N        -20.3980    6.5910  -25.9700 N.3    99  ALA99      -0.1231
     43  CA       -21.3740    5.5250  -25.8190 C.3    99  ALA99       0.1694
     44  C        -22.0090    5.6820  -24.4490 C.2    99  ALA99       0.2592
     45  O        -21.3120    5.8750  -23.4530 O.2    99  ALA99      -0.2718
     46  CB       -20.7000    4.1680  -25.9250 C.3    99  ALA99       0.0304
     47  N        -23.3220    5.6280  -24.3970 N.am  100  ALA100     -0.1966
     48  CA       -24.0350    5.7580  -23.1300 C.3   100  ALA100      0.1728
     49  C        -25.0360    4.6240  -23.0090 C.2   100  ALA100      0.2616
     50  O        -25.6670    4.2260  -23.9950 O.2   100  ALA100     -0.2715
     51  CB       -24.7400    7.1140  -23.0380 C.3   100  ALA100      0.0334
     52  N        -25.1510    4.1100  -21.7920 N.am  101  LEU101     -0.1977
     53  CA       -26.0400    3.0230  -21.4560 C.3   101  LEU101      0.1596
     54  C        -26.9670    3.5190  -20.3750 C.2   101  LEU101      0.2287
     55  O        -26.5050    3.9220  -19.3120 O.2   101  LEU101     -0.2864
     56  CB       -25.2260    1.8240  -20.9590 C.3   101  LEU101      0.0297
     57  CG       -26.0280    0.6170  -20.4950 C.3   101  LEU101      0.0022
     58  CD1      -26.8300    0.0410  -21.6430 C.3   101  LEU101      0.0001
     59  CD2      -25.1020   -0.4440  -19.9110 C.3   101  LEU101      0.0001
     60  N        -24.1110    4.7270  -17.6160 N.3   108  SER108     -0.1202
     61  CA       -22.6720    4.6720  -17.7620 C.3   108  SER108      0.2020
     62  C        -22.3510    5.3180  -19.0670 C.2   108  SER108      0.2619
     63  O        -23.1560    5.3270  -20.0000 O.2   108  SER108     -0.2717
     64  CB       -22.1500    3.2470  -17.7340 C.3   108  SER108      0.2103
     65  OG       -22.5260    2.5960  -18.9220 O.3   108  SER108     -0.2182
     66  N        -21.1600    5.8690  -19.1330 N.am  109  THR109     -0.1938
     67  CA       -20.7290    6.4210  -20.3780 C.3   109  THR109      0.2028
     68  C        -19.2860    6.0550  -20.6110 C.2   109  THR109      0.2642
     69  O        -18.4960    5.9620  -19.6740 O.2   109  THR109     -0.2714
     70  CB       -20.9710    7.9120  -20.4750 C.3   109  THR109      0.1808
     71  OG1      -20.5640    8.3280  -21.7720 O.3   109  THR109     -0.2208
     72  CG2      -20.2160    8.7150  -19.3930 C.3   109  THR109      0.0379
     73  N        -18.9560    5.8150  -21.8630 N.am  110  THR110     -0.1950
     74  CA       -17.5730    5.4490  -22.1990 C.3   110  THR110      0.1897
     75  C        -17.2240    6.1460  -23.4810 C.2   110  THR110      0.2313
     76  O        -18.0970    6.4720  -24.2950 O.2   110  THR110     -0.2863
     77  CB       -17.2750    3.8860  -22.2760 C.3   110  THR110      0.1794
     78  OG1      -15.8490    3.6460  -22.2860 O.3   110  THR110     -0.2208
     79  CG2      -17.8850    3.2600  -23.5140 C.3   110  THR110      0.0378
     80  N        -14.9280    5.8980  -26.9220 N.3   112  VAL112     -0.1245
     81  CA       -14.1440    5.0650  -27.8200 C.3   112  VAL112      0.1561
     82  C        -13.4160    6.0510  -28.7150 C.2   112  VAL112      0.2260
     83  O        -14.0460    6.7860  -29.4810 O.2   112  VAL112     -0.2867
     84  CB       -15.0340    4.1230  -28.6530 C.3   112  VAL112      0.0252
     85  CG1      -14.1530    3.1750  -29.4630 C.3   112  VAL112      0.0019
     86  CG2      -15.9780    3.3360  -27.7610 C.3   112  VAL112      0.0019
@<TRIPOS>BOND
     1    33    32   ar
     2    32    34   ar
     3    32    31    1
     4    30    31    1
     5    30    27    1
     6     6     5    1
     7     6     7    1
     8    29    28    2
     9     5     2    1
    10    28    27    1
    11     8     7    1
    12    27    26    1
    13     2     1    1
    14     2     3    1
    15    17    16    1
    16    40    39    1
    17     3     4    2
    18    16    15    1
    19    15    14    1
    20    39    41    1
    21    39    36    1
    22    35    36    1
    23    36    37    1
    24    13    14    1
    25    13    10    1
    26    83    82    2
    27    85    84    1
    28    10     9    1
    29    10    11    1
    30    82    81    1
    31    84    81    1
    32    84    86    1
    33    37    38    2
    34    11    12    2
    35    81    80    1
    36    25    23    1
    37    23    24    1
    38    23    22    1
    39    42    43    1
    40    46    43    1
    41    43    44    1
    42    18    19    1
    43    19    22    1
    44    19    20    1
    45    44    47   am
    46    44    45    2
    47    47    48    1
    48    76    75    2
    49    20    21    2
    50    50    49    2
    51    79    77    1
    52    75    74    1
    53    48    51    1
    54    48    49    1
    55    49    52   am
    56    78    77    1
    57    77    74    1
    58    74    73    1
    59    73    68   am
    60    52    53    1
    61    71    70    1
    62    58    57    1
    63    53    56    1
    64    53    54    1
    65    56    57    1
    66    68    67    1
    67    68    69    2
    68    57    59    1
    69    70    67    1
    70    70    72    1
    71    67    66    1
    72    54    55    2
    73    63    62    2
    74    66    62   am
    75    62    61    1
    76    65    64    1
    77    61    64    1
    78    61    60    1
