@<TRIPOS>MOLECULE
tmp/3nefA00.pdb
 202 193 0 0 0
SMALL
GASTEIGER

@<TRIPOS>ATOM
      1  N        -48.0940   34.6330  -20.3420 N.3    59  PRO59      -0.2116
      2  CA       -49.5010   34.4490  -19.9590 C.3    59  PRO59       0.1372
      3  C        -50.2140   33.3990  -20.7940 C.2    59  PRO59       0.2244
      4  O        -51.1710   32.7900  -20.2900 O.2    59  PRO59      -0.2868
      5  CB       -50.1310   35.8180  -20.2350 C.3    59  PRO59       0.0268
      6  CG       -49.1690   36.5230  -21.1730 C.3    59  PRO59       0.0207
      7  CD       -47.8070   36.0070  -20.7950 C.3    59  PRO59       0.0892
      8  N        -53.7140   31.7120  -20.1810 N.3    63  LYS63      -0.1231
      9  CA       -54.7220   32.7010  -20.5540 C.3    63  LYS63       0.1693
     10  C        -55.2520   32.4490  -21.9720 C.2    63  LYS63       0.2592
     11  O        -54.5590   31.8860  -22.8220 O.2    63  LYS63      -0.2718
     12  CB       -54.1790   34.1200  -20.4210 C.3    63  LYS63       0.0285
     13  CG       -53.7630   34.4930  -19.0100 C.3    63  LYS63       0.0035
     14  CD       -53.7470   35.9920  -18.8230 C.3    63  LYS63       0.0206
     15  CE       -52.9760   36.3600  -17.5800 C.3    63  LYS63       0.1093
     16  NZ       -52.9440   37.8310  -17.3980 N.3    63  LYS63      -0.1314
     17  N        -56.4950   32.8540  -22.2050 N.am   64  HIS64      -0.1962
     18  CA       -57.1610   32.6450  -23.4770 C.3    64  HIS64       0.1787
     19  C        -57.0510   33.9020  -24.3400 C.2    64  HIS64       0.2620
     20  O        -56.8030   34.9960  -23.8360 O.2    64  HIS64      -0.2715
     21  CB       -58.6560   32.3840  -23.2570 C.3    64  HIS64       0.0785
     22  CG       -58.9850   31.0200  -22.7390 C.ar   64  HIS64       0.0821
     23  ND1      -59.0150   30.7210  -21.3920 N.ar   64  HIS64      -0.2267
     24  CD2      -59.3390   29.8850  -23.3840 C.ar   64  HIS64       0.1154
     25  CE1      -59.3460   29.4530  -21.2300 C.ar   64  HIS64       0.1986
     26  NE2      -59.5500   28.9240  -22.4250 N.ar   64  HIS64      -0.2212
     27  N        -57.2600   33.7430  -25.6460 N.am   65  PHE65      -0.1960
     28  CA       -57.5580   34.8820  -26.5050 C.3    65  PHE65       0.1771
     29  C        -56.3240   35.7000  -26.8030 C.2    65  PHE65       0.2619
     30  O        -56.4110   36.8640  -27.1940 O.2    65  PHE65      -0.2715
     31  CB       -58.6030   35.7730  -25.8540 C.3    65  PHE65       0.0574
     32  CG       -59.8140   35.0370  -25.3750 C.ar   65  PHE65      -0.0200
     33  CD1      -60.5780   34.2900  -26.2530 C.ar   65  PHE65      -0.0042
     34  CD2      -60.2110   35.1180  -24.0470 C.ar   65  PHE65      -0.0042
     35  CE1      -61.7080   33.6210  -25.8170 C.ar   65  PHE65      -0.0003
     36  CE2      -61.3480   34.4620  -23.6090 C.ar   65  PHE65      -0.0003
     37  CZ       -62.0960   33.7150  -24.4890 C.ar   65  PHE65      -0.0000
     38  N        -55.1730   35.0770  -26.6090 N.am   66  ILE66      -0.1977
     39  CA       -53.9140   35.7260  -26.8920 C.3    66  ILE66       0.1596
     40  C        -53.3380   35.1630  -28.1720 C.2    66  ILE66       0.2287
     41  O        -53.0040   33.9720  -28.2520 O.2    66  ILE66      -0.2864
     42  CB       -52.9290   35.5100  -25.7530 C.3    66  ILE66       0.0276
     43  CG1      -53.4900   36.1440  -24.4800 C.3    66  ILE66       0.0022
     44  CG2      -51.5650   36.0640  -26.1280 C.3    66  ILE66       0.0022
     45  CD1      -52.6280   35.8990  -23.2520 C.3    66  ILE66       0.0001
     46  N        -49.3160   42.3200  -25.4310 N.3    85  VAL85      -0.1245
     47  CA       -50.0510   41.1540  -25.8680 C.3    85  VAL85       0.1561
     48  C        -50.9920   41.5070  -26.9980 C.2    85  VAL85       0.2260
     49  O        -51.5780   42.5890  -27.0250 O.2    85  VAL85      -0.2867
     50  CB       -50.8080   40.4370  -24.7200 C.3    85  VAL85       0.0252
     51  CG1      -50.8540   41.2870  -23.4990 C.3    85  VAL85       0.0019
     52  CG2      -52.2020   40.0230  -25.1700 C.3    85  VAL85       0.0019
     53  N        -54.3880   40.3730  -28.8630 N.3    87  VAL87      -0.1245
     54  CA       -55.5920   39.5620  -28.7200 C.3    87  VAL87       0.1561
     55  C        -55.9020   38.8870  -30.0550 C.2    87  VAL87       0.2260
     56  O        -55.6290   39.4540  -31.0990 O.2    87  VAL87      -0.2867
     57  CB       -56.7880   40.4290  -28.2780 C.3    87  VAL87       0.0252
     58  CG1      -57.9990   39.5670  -28.0210 C.3    87  VAL87       0.0019
     59  CG2      -56.4260   41.2260  -27.0320 C.3    87  VAL87       0.0019
     60  N        -62.0870   39.8410  -31.5340 N.3    91  LEU91      -0.1245
     61  CA       -62.5840   40.3070  -30.2460 C.3    91  LEU91       0.1561
     62  C        -62.6670   41.8240  -30.2410 C.2    91  LEU91       0.2260
     63  O        -62.1370   42.4840  -31.1420 O.2    91  LEU91      -0.2867
     64  CB       -61.7080   39.7980  -29.0980 C.3    91  LEU91       0.0270
     65  CG       -61.5980   38.2770  -29.0310 C.3    91  LEU91       0.0019
     66  CD1      -61.0260   37.8270  -27.6960 C.3    91  LEU91       0.0001
     67  CD2      -62.9590   37.6570  -29.2720 C.3    91  LEU91       0.0001
     68  N        -61.1840   43.7430  -28.2050 N.3    93  ALA93      -0.1245
     69  CA       -59.8630   44.2940  -27.9160 C.3    93  ALA93       0.1562
     70  C        -58.8480   43.7750  -28.9370 C.2    93  ALA93       0.2260
     71  O        -58.9670   42.6470  -29.4120 O.2    93  ALA93      -0.2867
     72  CB       -59.4150   43.9200  -26.4850 C.3    93  ALA93       0.0290
     73  N        -55.0610   44.9430  -28.6410 N.3    95  THR95      -0.1203
     74  CA       -53.7650   44.8730  -27.9720 C.3    95  THR95       0.1994
     75  C        -53.8470   45.3720  -26.5540 C.2    95  THR95       0.2618
     76  O        -54.6740   46.2180  -26.2170 O.2    95  THR95      -0.2717
     77  CB       -52.6780   45.6960  -28.7010 C.3    95  THR95       0.1784
     78  OG1      -53.0640   47.0700  -28.7120 O.3    95  THR95      -0.2211
     79  CG2      -52.4960   45.2130  -30.1560 C.3    95  THR95       0.0376
     80  N        -52.9670   44.8390  -25.7230 N.am   96  SER96      -0.1951
     81  CA       -52.8530   45.2710  -24.3460 C.3    96  SER96       0.1924
     82  C        -51.3810   45.4520  -24.0460 C.2    96  SER96       0.2314
     83  O        -50.5720   44.5770  -24.3280 O.2    96  SER96      -0.2863
     84  CB       -53.4530   44.2260  -23.4120 C.3    96  SER96       0.2116
     85  OG       -53.5710   44.7490  -22.1050 O.3    96  SER96      -0.2180
     86  N        -49.0800   45.7230  -20.9890 N.3    98  GLU98      -0.1245
     87  CA       -49.1830   45.3980  -19.5810 C.3    98  GLU98       0.1567
     88  C        -47.8770   45.5410  -18.8120 C.2    98  GLU98       0.2260
     89  O        -46.8030   45.2890  -19.3530 O.2    98  GLU98      -0.2867
     90  CB       -49.7710   44.0080  -19.4380 C.3    98  GLU98       0.0388
     91  CG       -51.2570   44.0380  -19.7200 C.3    98  GLU98       0.1160
     92  CD       -51.8280   42.6960  -20.0660 C.2    98  GLU98       0.3649
     93  OE1      -51.1450   41.6860  -19.7950 O.co2  98  GLU98      -0.2457
     94  OE2      -52.9650   42.6630  -20.5990 O.co2  98  GLU98      -0.2457
     95  N        -50.5500   42.9900  -12.1320 N.3   112  PHE112     -0.1241
     96  CA       -50.1410   43.7860  -13.2630 C.3   112  PHE112      0.1605
     97  C        -51.1190   44.8910  -13.5400 C.2   112  PHE112      0.2264
     98  O        -52.2140   44.9020  -13.0040 O.2   112  PHE112     -0.2867
     99  CB       -49.9500   42.9100  -14.4990 C.3   112  PHE112      0.0534
    100  CG       -51.2260   42.4040  -15.0880 C.ar  112  PHE112     -0.0203
    101  CD1      -51.8530   43.1010  -16.1140 C.ar  112  PHE112     -0.0042
    102  CD2      -51.7910   41.2150  -14.6390 C.ar  112  PHE112     -0.0042
    103  CE1      -53.0200   42.6230  -16.6790 C.ar  112  PHE112     -0.0003
    104  CE2      -52.9540   40.7340  -15.1840 C.ar  112  PHE112     -0.0003
    105  CZ       -53.5740   41.4360  -16.2150 C.ar  112  PHE112     -0.0000
    106  N        -52.7210   47.3170  -16.8080 N.3   114  ILE114     -0.1245
    107  CA       -52.8090   47.5490  -18.2260 C.3   114  ILE114      0.1561
    108  C        -52.6250   49.0400  -18.4730 C.2   114  ILE114      0.2260
    109  O        -53.3530   49.8530  -17.9210 O.2   114  ILE114     -0.2867
    110  CB       -54.1360   47.0730  -18.7860 C.3   114  ILE114      0.0252
    111  CG1      -54.3060   45.5790  -18.5240 C.3   114  ILE114      0.0019
    112  CG2      -54.1870   47.3490  -20.2860 C.3   114  ILE114      0.0019
    113  CD1      -55.5070   45.0000  -19.2050 C.3   114  ILE114      0.0001
    114  N        -58.2310   48.8240  -26.4040 N.3   119  HIS119     -0.1226
    115  CA       -59.2880   48.1300  -25.6850 C.3   119  HIS119      0.1752
    116  C        -60.0300   49.1100  -24.7930 C.2   119  HIS119      0.2596
    117  O        -59.7050   50.3000  -24.7530 O.2   119  HIS119     -0.2718
    118  CB       -58.6840   47.0440  -24.8140 C.3   119  HIS119      0.0759
    119  CG       -57.7020   47.5770  -23.8250 C.ar  119  HIS119      0.0818
    120  ND1      -58.0880   48.2580  -22.6900 N.ar  119  HIS119     -0.2268
    121  CD2      -56.3500   47.5730  -23.8210 C.ar  119  HIS119      0.1154
    122  CE1      -57.0150   48.6370  -22.0220 C.ar  119  HIS119      0.1986
    123  NE2      -55.9460   48.2400  -22.6930 N.ar  119  HIS119     -0.2212
    124  N        -61.0140   48.6050  -24.0600 N.am  120  ARG120     -0.1966
    125  CA       -61.8270   49.4600  -23.2100 C.3   120  ARG120      0.1729
    126  C        -61.7970   49.0280  -21.7450 C.2   120  ARG120      0.2616
    127  O        -62.7810   49.1740  -21.0100 O.2   120  ARG120     -0.2715
    128  CB       -63.2440   49.5420  -23.7530 C.3   120  ARG120      0.0348
    129  CG       -63.2650   49.9810  -25.2090 C.3   120  ARG120      0.0492
    130  CD       -64.6410   50.4520  -25.6200 C.3   120  ARG120      0.2205
    131  NE       -64.9540   51.7600  -25.0440 N.pl3 120  ARG120     -0.0865
    132  CZ       -66.1520   52.1120  -24.5800 C.cat 120  ARG120      0.5346
    133  NH1      -67.1640   51.2510  -24.6070 N.pl3 120  ARG120      0.1354
    134  NH2      -66.3370   53.3290  -24.0850 N.pl3 120  ARG120      0.1354
    135  N        -60.6500   48.4960  -21.3340 N.am  121  LEU121     -0.1977
    136  CA       -60.3790   48.2090  -19.9320 C.3   121  LEU121      0.1596
    137  C        -59.3170   49.1830  -19.4680 C.2   121  LEU121      0.2287
    138  O        -58.1750   48.8020  -19.2040 O.2   121  LEU121     -0.2864
    139  CB       -59.9230   46.7570  -19.7360 C.3   121  LEU121      0.0297
    140  CG       -61.0450   45.7310  -19.9340 C.3   121  LEU121      0.0022
    141  CD1      -60.5950   44.3110  -19.5920 C.3   121  LEU121      0.0001
    142  CD2      -62.2690   46.1110  -19.1010 C.3   121  LEU121      0.0001
    143  N        -56.9190   49.1480  -15.8760 N.3   124  TYR124     -0.1241
    144  CA       -57.1050   47.8630  -15.2420 C.3   124  TYR124      0.1605
    145  C        -55.8930   47.6160  -14.3820 C.2   124  TYR124      0.2264
    146  O        -54.7630   47.9410  -14.7530 O.2   124  TYR124     -0.2867
    147  CB       -57.2030   46.8010  -16.3200 C.3   124  TYR124      0.0534
    148  CG       -57.5160   45.3930  -15.8720 C.ar  124  TYR124     -0.0201
    149  CD1      -58.8290   44.9390  -15.8140 C.ar  124  TYR124     -0.0009
    150  CD2      -56.4980   44.4930  -15.5850 C.ar  124  TYR124     -0.0009
    151  CE1      -59.1230   43.6310  -15.4450 C.ar  124  TYR124      0.0417
    152  CE2      -56.7820   43.1900  -15.2260 C.ar  124  TYR124      0.0417
    153  CZ       -58.0960   42.7630  -15.1570 C.ar  124  TYR124      0.1957
    154  OH       -58.3800   41.4550  -14.8000 O.3   124  TYR124     -0.2866
    155  N        -58.1490   35.9770   -7.7090 N.3   143  GLU143     -0.1245
    156  CA       -57.7740   37.0240   -8.6310 C.3   143  GLU143      0.1567
    157  C        -58.7840   38.1690   -8.5720 C.2   143  GLU143      0.2260
    158  O        -59.9970   37.9550   -8.5850 O.2   143  GLU143     -0.2867
    159  CB       -57.6330   36.4680  -10.0480 C.3   143  GLU143      0.0388
    160  CG       -57.0980   37.4890  -11.0520 C.3   143  GLU143      0.1160
    161  CD       -56.7140   36.8800  -12.4170 C.2   143  GLU143      0.3649
    162  OE1      -56.3690   35.6730  -12.4950 O.co2 143  GLU143     -0.2457
    163  OE2      -56.7320   37.6380  -13.4070 O.co2 143  GLU143     -0.2457
    164  N        -67.8090   41.4560  -18.1630 N.3   161  PHE161     -0.1227
    165  CA       -66.8180   41.3520  -19.2180 C.3   161  PHE161      0.1736
    166  C        -65.5040   40.8690  -18.6490 C.2   161  PHE161      0.2595
    167  O        -65.0360   39.7940  -18.9980 O.2   161  PHE161     -0.2718
    168  CB       -66.6570   42.7130  -19.9100 C.3   161  PHE161      0.0547
    169  CG       -65.5860   42.7600  -20.9500 C.ar  161  PHE161     -0.0202
    170  CD1      -65.4480   41.7500  -21.8830 C.ar  161  PHE161     -0.0042
    171  CD2      -64.7430   43.8470  -21.0300 C.ar  161  PHE161     -0.0042
    172  CE1      -64.4620   41.8150  -22.8640 C.ar  161  PHE161     -0.0003
    173  CE2      -63.7640   43.9210  -22.0160 C.ar  161  PHE161     -0.0003
    174  CZ       -63.6230   42.9040  -22.9310 C.ar  161  PHE161     -0.0000
    175  N        -64.9070   41.6530  -17.7630 N.am  162  ALA162     -0.1980
    176  CA       -63.6290   41.2620  -17.1810 C.3   162  ALA162      0.1597
    177  C        -63.7110   39.9310  -16.4140 C.2   162  ALA162      0.2287
    178  O        -62.7870   39.1240  -16.4580 O.2   162  ALA162     -0.2864
    179  CB       -63.0880   42.3670  -16.2930 C.3   162  ALA162      0.0319
    180  N        -63.3160   36.8180  -18.7390 N.3   165  VAL165     -0.1231
    181  CA       -61.9370   36.5370  -19.1240 C.3   165  VAL165      0.1692
    182  C        -61.2000   35.8250  -17.9780 C.2   165  VAL165      0.2591
    183  O        -60.6480   34.7240  -18.1460 O.2   165  VAL165     -0.2718
    184  CB       -61.2010   37.8460  -19.5330 C.3   165  VAL165      0.0266
    185  CG1      -59.7170   37.6060  -19.7330 C.3   165  VAL165      0.0020
    186  CG2      -61.8370   38.4540  -20.8010 C.3   165  VAL165      0.0020
    187  N        -61.2090   36.4480  -16.8020 N.am  166  ILE166     -0.1980
    188  CA       -60.5510   35.8730  -15.6410 C.3   166  ILE166      0.1595
    189  C        -61.0880   34.4620  -15.3500 C.2   166  ILE166      0.2287
    190  O        -60.3240   33.5060  -15.1910 O.2   166  ILE166     -0.2864
    191  CB       -60.7430   36.7590  -14.4170 C.3   166  ILE166      0.0276
    192  CG1      -59.9900   38.0740  -14.5960 C.3   166  ILE166      0.0022
    193  CG2      -60.2930   36.0230  -13.1620 C.3   166  ILE166      0.0022
    194  CD1      -60.4320   39.1400  -13.6130 C.3   166  ILE166      0.0001
    195  N        -59.6840   31.9920  -17.8130 N.3   169  ASN169     -0.1240
    196  CA       -58.2650   31.8220  -17.5440 C.3   169  ASN169      0.1653
    197  C        -58.0060   30.9330  -16.3360 C.2   169  ASN169      0.2266
    198  O        -57.1380   30.0590  -16.3780 O.2   169  ASN169     -0.2867
    199  CB       -57.5750   33.1710  -17.3910 C.3   169  ASN169      0.1155
    200  CG       -57.5210   33.9380  -18.7060 C.2   169  ASN169      0.2627
    201  OD1      -57.8090   33.3800  -19.7660 O.2   169  ASN169     -0.2716
    202  ND2      -57.1460   35.2120  -18.6450 N.am  169  ASN169     -0.0877
@<TRIPOS>BOND
     1    60    61    1
     2    63    62    2
     3    56    55    2
     4    61    62    1
     5    61    64    1
     6    79    77    1
     7    55    54    1
     8    71    70    2
     9    67    65    1
    10    64    65    1
    11    65    66    1
    12    70    69    1
    13    53    54    1
    14    54    57    1
    15    78    77    1
    16    77    74    1
    17    73    74    1
    18    57    58    1
    19    57    59    1
    20    41    40    2
    21    68    69    1
    22    40    39    1
    23    74    75    1
    24    69    72    1
    25    30    29    2
    26    49    48    2
    27    48    47    1
    28    39    38    1
    29    39    42    1
    30    29    38   am
    31    29    28    1
    32    75    76    2
    33    75    80   am
    34    28    31    1
    35    28    27    1
    36   114   115    1
    37    33    35   ar
    38    33    32   ar
    39    44    42    1
    40    47    46    1
    41    47    50    1
    42    31    32    1
    43    35    37   ar
    44    42    43    1
    45    80    81    1
    46   115   118    1
    47   115   116    1
    48    27    19   am
    49   130   129    1
    50   130   131    1
    51    32    34   ar
    52   129   128    1
    53    52    50    1
    54   131   132    2
    55   118   119    1
    56   116   117    2
    57   116   124   am
    58    50    51    1
    59   133   132    1
    60   132   134    1
    61    37    36   ar
    62    43    45    1
    63    81    82    1
    64    81    84    1
    65    19    20    2
    66    19    18    1
    67    83    82    2
    68   124   125    1
    69    34    36   ar
    70   119   121   ar
    71   119   120   ar
    72   121   123   ar
    73   128   125    1
    74    18    21    1
    75    18    17    1
    76    84    85    1
    77    24    22   ar
    78    24    26   ar
    79    21    22    1
    80   125   126    1
    81   174   172   ar
    82   174   173   ar
    83   172   170   ar
    84    11    10    2
    85    22    23   ar
    86   123   122   ar
    87   120   122   ar
    88    26    25   ar
    89    17    10   am
    90   173   171   ar
    91    10     9    1
    92   170   169   ar
    93   126   135   am
    94   126   127    2
    95    23    25   ar
    96   135   136    1
    97     6     7    1
    98     6     5    1
    99   171   169   ar
   100    86    87    1
   101   169   168    1
   102   186   184    1
   103     7     1    1
   104     3     4    2
   105     3     2    1
   106    94    92   ar
   107     9    12    1
   108     9     8    1
   109    12    13    1
   110     1     2    1
   111   112   110    1
   112     5     2    1
   113    92    93   ar
   114    92    91    1
   115   140   139    1
   116   140   141    1
   117   140   142    1
   118   136   139    1
   119   136   137    1
   120   168   165    1
   121   201   200    2
   122   185   184    1
   123    91    90    1
   124    87    90    1
   125    87    88    1
   126   184   181    1
   127   137   138    2
   128    89    88    2
   129   165   166    1
   130   165   164    1
   131   113   111    1
   132   181   180    1
   133   181   182    1
   134    13    14    1
   135   167   166    2
   136    14    15    1
   137   110   111    1
   138   110   107    1
   139   200   202   am
   140   200   199    1
   141   166   175   am
   142   108   107    1
   143   108   109    2
   144   107   106    1
   145   183   182    2
   146   182   187   am
   147   195   196    1
   148   175   176    1
   149    15    16    1
   150   196   199    1
   151   196   197    1
   152   176   177    1
   153   176   179    1
   154   187   188    1
   155   103   105   ar
   156   103   101   ar
   157   178   177    2
   158   198   197    2
   159   147   148    1
   160   147   144    1
   161   105   104   ar
   162   101   100   ar
   163   143   144    1
   164   148   149   ar
   165   148   150   ar
   166   149   151   ar
   167   188   189    1
   168   188   191    1
   169   150   152   ar
   170   151   153   ar
   171   189   190    2
   172   144   145    1
   173   152   153   ar
   174   104   102   ar
   175   153   154    1
   176   100   102   ar
   177   100    99    1
   178   146   145    2
   179   192   191    1
   180   192   194    1
   181    99    96    1
   182   191   193    1
   183    97    96    1
   184    97    98    2
   185   163   161   ar
   186    96    95    1
   187   162   161   ar
   188   161   160    1
   189   160   159    1
   190   159   156    1
   191   156   157    1
   192   156   155    1
   193   158   157    2
