@<TRIPOS>MOLECULE
tmp/3nehB00.pdb
 169 165 0 0 0
SMALL
GASTEIGER

@<TRIPOS>ATOM
      1  N         21.7990    9.3460  -19.0500 N.3     8  HIS8       -0.1241
      2  CA        22.0490    8.0170  -19.6130 C.3     8  HIS8        0.1621
      3  C         20.8810    7.3920  -20.3620 C.2     8  HIS8        0.2264
      4  O         19.8580    7.0440  -19.7700 O.2     8  HIS8       -0.2867
      5  CB        22.5320    7.0580  -18.5160 C.3     8  HIS8        0.0745
      6  CG        23.1530    5.8050  -19.0450 C.ar    8  HIS8        0.0817
      7  ND1       24.5150    5.6650  -19.2170 N.ar    8  HIS8       -0.2268
      8  CD2       22.6000    4.6330  -19.4370 C.ar    8  HIS8        0.1154
      9  CE1       24.7710    4.4610  -19.6980 C.ar    8  HIS8        0.1986
     10  NE2       23.6260    3.8180  -19.8460 N.ar    8  HIS8       -0.2212
     11  N         20.4200    4.4760  -23.8890 N.3    10  ASP10      -0.1239
     12  CA        21.0920    3.5720  -24.7990 C.3    10  ASP10       0.1674
     13  C         20.5020    3.6320  -26.1980 C.2    10  ASP10       0.2266
     14  O         20.4230    2.6250  -26.8890 O.2    10  ASP10      -0.2867
     15  CB        21.0330    2.1520  -24.2500 C.3    10  ASP10       0.1410
     16  CG        22.0560    1.9270  -23.1470 C.2    10  ASP10       0.3668
     17  OD1       23.2580    2.0540  -23.4380 O.co2  10  ASP10      -0.2456
     18  OD2       21.6570    1.6670  -21.9920 O.co2  10  ASP10      -0.2456
     19  N         22.9140    2.2210  -28.8980 N.3    13  TYR13      -0.1241
     20  CA        22.9020    0.7700  -28.9300 C.3    13  TYR13       0.1605
     21  C         21.7040    0.2800  -29.7270 C.2    13  TYR13       0.2264
     22  O         21.8380   -0.5790  -30.6030 O.2    13  TYR13      -0.2867
     23  CB        22.8300    0.2260  -27.5060 C.3    13  TYR13       0.0534
     24  CG        22.5880   -1.2670  -27.4260 C.ar   13  TYR13      -0.0201
     25  CD1       23.6440   -2.1650  -27.4930 C.ar   13  TYR13      -0.0009
     26  CD2       21.3070   -1.7740  -27.2810 C.ar   13  TYR13      -0.0009
     27  CE1       23.4320   -3.5320  -27.4130 C.ar   13  TYR13       0.0417
     28  CE2       21.0820   -3.1460  -27.2010 C.ar   13  TYR13       0.0417
     29  CZ        22.1520   -4.0130  -27.2680 C.ar   13  TYR13       0.1957
     30  OH        21.9410   -5.3670  -27.1810 O.3    13  TYR13      -0.2866
     31  N         27.7160    1.9300  -26.0450 N.3    50  PHE50      -0.1241
     32  CA        27.7050    0.6250  -25.4030 C.3    50  PHE50       0.1605
     33  C         27.5390   -0.5170  -26.3900 C.2    50  PHE50       0.2264
     34  O         26.6520   -0.4870  -27.2370 O.2    50  PHE50      -0.2867
     35  CB        26.5920    0.5270  -24.3570 C.3    50  PHE50       0.0534
     36  CG        26.4500   -0.8480  -23.8010 C.ar   50  PHE50      -0.0203
     37  CD1       27.3400   -1.3080  -22.8380 C.ar   50  PHE50      -0.0042
     38  CD2       25.4810   -1.7080  -24.2810 C.ar   50  PHE50      -0.0042
     39  CE1       27.2400   -2.5970  -22.3380 C.ar   50  PHE50      -0.0003
     40  CE2       25.3770   -2.9990  -23.7850 C.ar   50  PHE50      -0.0003
     41  CZ        26.2650   -3.4390  -22.8070 C.ar   50  PHE50      -0.0000
     42  N         27.0380   -4.7740  -26.8700 N.3    52  ASP52      -0.1239
     43  CA        26.6740   -6.0790  -26.3090 C.3    52  ASP52       0.1674
     44  C         27.9220   -6.8740  -25.9740 C.2    52  ASP52       0.2266
     45  O         28.9010   -6.8390  -26.7110 O.2    52  ASP52      -0.2867
     46  CB        25.8480   -6.8780  -27.3190 C.3    52  ASP52       0.1410
     47  CG        24.3850   -6.9660  -26.9450 C.2    52  ASP52       0.3668
     48  OD1       24.0620   -6.8750  -25.7400 O.co2  52  ASP52      -0.2456
     49  OD2       23.5520   -7.1370  -27.8610 O.co2  52  ASP52      -0.2456
     50  N         30.1870    3.7200  -21.9380 N.3   106  GLU106     -0.1245
     51  CA        29.7370    2.7560  -20.9470 C.3   106  GLU106      0.1567
     52  C         30.6400    1.5280  -20.8830 C.2   106  GLU106      0.2260
     53  O         30.3390    0.4940  -21.4800 O.2   106  GLU106     -0.2867
     54  CB        28.3060    2.3330  -21.2450 C.3   106  GLU106      0.0388
     55  CG        27.7790    1.3790  -20.2120 C.3   106  GLU106      0.1160
     56  CD        26.2880    1.3780  -20.1870 C.2   106  GLU106      0.3649
     57  OE1       25.6900    1.5420  -21.2760 O.co2 106  GLU106     -0.2457
     58  OE2       25.7330    1.2400  -19.0790 O.co2 106  GLU106     -0.2457
     59  N         31.3210   -1.9510  -17.5650 N.3   133  TRP133     -0.1227
     60  CA        29.9420   -2.3780  -17.5310 C.3   133  TRP133      0.1737
     61  C         29.8900   -3.4580  -16.4350 C.2   133  TRP133      0.2595
     62  O         30.5990   -3.3400  -15.4310 O.2   133  TRP133     -0.2718
     63  CB        29.4840   -2.8570  -18.9210 C.3   133  TRP133      0.0564
     64  CG        28.0250   -3.1980  -19.0110 C.ar  133  TRP133      0.0003
     65  CD1       26.9640   -2.3480  -18.8470 C.ar  133  TRP133      0.0946
     66  CD2       27.4690   -4.4850  -19.2800 C.ar  133  TRP133      0.0152
     67  NE1       25.7800   -3.0330  -18.9990 N.ar  133  TRP133     -0.2442
     68  CE2       26.0650   -4.3480  -19.2630 C.ar  133  TRP133      0.0810
     69  CE3       28.0220   -5.7450  -19.5280 C.ar  133  TRP133      0.0012
     70  CZ2       25.2080   -5.4230  -19.4860 C.ar  133  TRP133      0.0191
     71  CZ3       27.1640   -6.8160  -19.7510 C.ar  133  TRP133      0.0001
     72  CH2       25.7790   -6.6480  -19.7270 C.ar  133  TRP133      0.0015
     73  N         29.0800   -4.5000  -16.6010 N.am  134  ASN134     -0.1974
     74  CA        28.9290   -5.5000  -15.5300 C.3   134  ASN134      0.1688
     75  C         30.0840   -6.4840  -15.3590 C.2   134  ASN134      0.2292
     76  O         30.1770   -7.1530  -14.3320 O.2   134  ASN134     -0.2864
     77  CB        27.6410   -6.3100  -15.7280 C.3   134  ASN134      0.1181
     78  CG        26.4100   -5.4970  -15.4670 C.2   134  ASN134      0.2629
     79  OD1       26.4670   -4.4650  -14.7980 O.2   134  ASN134     -0.2716
     80  ND2       25.2810   -5.9440  -16.0120 N.am  134  ASN134     -0.0877
     81  N         27.9200    0.5580  -12.3430 N.3   173  HIS173     -0.1241
     82  CA        28.4580   -0.7230  -12.8380 C.3   173  HIS173      0.1621
     83  C         29.7680   -1.2100  -12.1900 C.2   173  HIS173      0.2264
     84  O         30.1500   -2.3760  -12.3500 O.2   173  HIS173     -0.2867
     85  CB        28.6150   -0.7460  -14.3690 C.3   173  HIS173      0.0745
     86  CG        27.3160   -0.7080  -15.1070 C.ar  173  HIS173      0.0817
     87  ND1       26.5190   -1.8220  -15.2720 N.ar  173  HIS173     -0.2268
     88  CD2       26.6830    0.3070  -15.7370 C.ar  173  HIS173      0.1154
     89  CE1       25.4450   -1.4910  -15.9670 C.ar  173  HIS173      0.1986
     90  NE2       25.5180   -0.2040  -16.2550 N.ar  173  HIS173     -0.2212
     91  N         23.6130    6.2540  -13.5970 N.3   193  HIS193     -0.1241
     92  CA        22.3460    5.5100  -13.4950 C.3   193  HIS193      0.1621
     93  C         22.4010    4.4360  -12.4100 C.2   193  HIS193      0.2264
     94  O         22.7220    3.2750  -12.6780 O.2   193  HIS193     -0.2867
     95  CB        21.8670    4.9600  -14.8610 C.3   193  HIS193      0.0745
     96  CG        22.8430    4.0600  -15.5660 C.ar  193  HIS193      0.0817
     97  ND1       24.1160    4.4540  -15.9110 N.ar  193  HIS193     -0.2268
     98  CD2       22.6930    2.8070  -16.0670 C.ar  193  HIS193      0.1154
     99  CE1       24.7230    3.4760  -16.5620 C.ar  193  HIS193      0.1986
    100  NE2       23.8790    2.4650  -16.6740 N.ar  193  HIS193     -0.2212
    101  N         23.5500   -3.7000   -8.2030 N.3   204  ARG204     -0.1245
    102  CA        23.8750   -2.5600   -9.0630 C.3   204  ARG204      0.1563
    103  C         23.6910   -1.2270   -8.3420 C.2   204  ARG204      0.2260
    104  O         24.1990   -0.1840   -8.7970 O.2   204  ARG204     -0.2867
    105  CB        23.0110   -2.5800  -10.3330 C.3   204  ARG204      0.0307
    106  CG        23.6740   -3.1890  -11.5630 C.3   204  ARG204      0.0489
    107  CD        24.6500   -2.1840  -12.1960 C.3   204  ARG204      0.2205
    108  NE        23.9870   -1.2390  -13.1060 N.pl3 204  ARG204     -0.0865
    109  CZ        23.7870    0.0550  -12.8540 C.cat 204  ARG204      0.5346
    110  NH1       24.1710    0.6070  -11.6990 N.pl3 204  ARG204      0.1354
    111  NH2       23.1900    0.8050  -13.7690 N.pl3 204  ARG204      0.1354
    112  N         14.5720    1.6160  -13.9970 N.3   226  TYR226     -0.1241
    113  CA        14.5420    0.1910  -14.3150 C.3   226  TYR226      0.1605
    114  C         13.9310   -0.5620  -13.1390 C.2   226  TYR226      0.2264
    115  O         14.4570   -0.5110  -12.0210 O.2   226  TYR226     -0.2867
    116  CB        15.9650   -0.2910  -14.5480 C.3   226  TYR226      0.0534
    117  CG        16.0980   -1.7140  -15.0400 C.ar  226  TYR226     -0.0201
    118  CD1       15.1080   -2.3100  -15.8070 C.ar  226  TYR226     -0.0009
    119  CD2       17.2400   -2.4490  -14.7580 C.ar  226  TYR226     -0.0009
    120  CE1       15.2560   -3.6090  -16.2760 C.ar  226  TYR226      0.0417
    121  CE2       17.3910   -3.7390  -15.2190 C.ar  226  TYR226      0.0417
    122  CZ        16.4070   -4.3150  -15.9780 C.ar  226  TYR226      0.1957
    123  OH        16.5910   -5.6100  -16.4380 O.3   226  TYR226     -0.2866
    124  N         15.9700   -2.5070  -10.6120 N.3   229  PHE229     -0.1241
    125  CA        16.7620   -1.7510   -9.6470 C.3   229  PHE229      0.1605
    126  C         15.8910   -0.8590   -8.7660 C.2   229  PHE229      0.2264
    127  O         16.4140   -0.0860   -7.9760 O.2   229  PHE229     -0.2867
    128  CB        17.7970   -0.8510  -10.3400 C.3   229  PHE229      0.0534
    129  CG        18.7170   -1.5750  -11.2950 C.ar  229  PHE229     -0.0203
    130  CD1       19.4280   -0.8580  -12.2420 C.ar  229  PHE229     -0.0042
    131  CD2       18.8850   -2.9540  -11.2350 C.ar  229  PHE229     -0.0042
    132  CE1       20.2850   -1.4950  -13.1380 C.ar  229  PHE229     -0.0003
    133  CE2       19.7450   -3.5980  -12.1230 C.ar  229  PHE229     -0.0003
    134  CZ        20.4380   -2.8660  -13.0770 C.ar  229  PHE229     -0.0000
    135  N         18.2400    5.4500  -18.0900 N.3   262  ASP262     -0.1239
    136  CA        18.5810    4.1660  -18.7170 C.3   262  ASP262      0.1674
    137  C         17.5270    3.8230  -19.7820 C.2   262  ASP262      0.2266
    138  O         17.3340    2.6510  -20.1220 O.2   262  ASP262     -0.2867
    139  CB        18.6410    3.0590  -17.6610 C.3   262  ASP262      0.1410
    140  CG        19.6110    1.9360  -18.0110 C.2   262  ASP262      0.3668
    141  OD1       20.2570    1.9760  -19.0850 O.co2 262  ASP262     -0.2456
    142  OD2       19.7100    0.9940  -17.1790 O.co2 262  ASP262     -0.2456
    143  N         15.9420    2.9780  -23.1940 N.3   264  ASP264     -0.1225
    144  CA        16.4590    2.1980  -24.3150 C.3   264  ASP264      0.1805
    145  C         17.4720    1.1340  -23.9130 C.2   264  ASP264      0.2598
    146  O         17.9550    0.3840  -24.7480 O.2   264  ASP264     -0.2718
    147  CB        16.9900    3.1050  -25.4250 C.3   264  ASP264      0.1424
    148  CG        15.8660    3.7270  -26.2330 C.2   264  ASP264      0.3668
    149  OD1       14.9010    2.9940  -26.5560 O.co2 264  ASP264     -0.2456
    150  OD2       15.9300    4.9410  -26.5210 O.co2 264  ASP264     -0.2456
    151  N         17.7730    1.0510  -22.6200 N.am  265  GLY265     -0.1942
    152  CA        18.6720    0.0200  -22.1380 C.3   265  GLY265      0.2014
    153  C         17.9750   -0.9910  -21.2430 C.2   265  GLY265      0.2639
    154  O         18.6330   -1.8140  -20.6060 O.2   265  GLY265     -0.2714
    155  N         16.6430   -0.9400  -21.2170 N.am  266  ILE266     -0.1963
    156  CA        15.8450   -1.7370  -20.2850 C.3   266  ILE266      0.1712
    157  C         14.6710   -2.4670  -20.9600 C.2   266  ILE266      0.2458
    158  O         13.9500   -1.8930  -21.7800 O.2   266  ILE266     -0.2730
    159  CB        15.3030   -0.8600  -19.1200 C.3   266  ILE266      0.0289
    160  CG1       14.4900    0.3120  -19.6690 C.3   266  ILE266      0.0022
    161  CG2       16.4570   -0.3460  -18.2260 C.3   266  ILE266      0.0023
    162  CD1       13.9460    1.2240  -18.5990 C.3   266  ILE266      0.0001
    163  N         14.4740   -3.7480  -20.6110 N.am  267  PRO267     -0.2727
    164  CA        13.4340   -4.5800  -21.2330 C.3   267  PRO267      0.1402
    165  C         12.0500   -4.3480  -20.6240 C.2   267  PRO267      0.2269
    166  O         11.0340   -4.6710  -21.2380 O.2   267  PRO267     -0.2865
    167  CB        13.8910   -6.0160  -20.9250 C.3   267  PRO267      0.0296
    168  CG        15.2260   -5.8980  -20.2130 C.3   267  PRO267      0.0237
    169  CD        15.3140   -4.5090  -19.6720 C.3   267  PRO267      0.0939
@<TRIPOS>BOND
     1    22    21    2
     2    21    20    1
     3    20    19    1
     4    20    23    1
     5    49    47   ar
     6    23    24    1
     7    25    24   ar
     8    25    27   ar
     9    24    26   ar
    10    27    29   ar
    11    46    47    1
    12    46    43    1
    13    26    28   ar
    14    29    28   ar
    15    29    30    1
    16    34    33    2
    17    47    48   ar
    18    14    13    2
    19    42    43    1
    20    45    44    2
    21   149   148   ar
    22   150   148   ar
    23    33    32    1
    24    43    44    1
    25   148   147    1
    26    13    12    1
    27    31    32    1
    28   147   144    1
    29    32    35    1
    30    12    15    1
    31    12    11    1
    32   146   145    2
    33    35    36    1
    34   144   145    1
    35   144   143    1
    36    38    36   ar
    37    38    40   ar
    38    15    16    1
    39   145   151   am
    40    36    37   ar
    41    40    41   ar
    42    17    16   ar
    43    16    18   ar
    44    37    39   ar
    45    41    39   ar
    46   151   152    1
    47   152   153    1
    48    50    51    1
    49   158   157    2
    50    53    52    2
    51    57    56   ar
    52    54    51    1
    53    54    55    1
    54   153   155   am
    55   153   154    2
    56   166   165    2
    57   164   167    1
    58   164   165    1
    59   164   163    1
    60   155   156    1
    61   157   163   am
    62   157   156    1
    63    51    52    1
    64   167   168    1
    65   163   169    1
    66     3     4    2
    67     3     2    1
    68   156   159    1
    69   168   169    1
    70    55    56    1
    71    56    58   ar
    72   138   137    2
    73    10     9   ar
    74    10     8   ar
    75   137   136    1
    76    71    72   ar
    77    71    69   ar
    78    72    70   ar
    79     9     7   ar
    80   160   159    1
    81   160   162    1
    82     2     1    1
    83     2     5    1
    84    69    66   ar
    85    70    68   ar
    86     8     6   ar
    87    66    68   ar
    88    66    64   ar
    89    68    67   ar
    90     7     6   ar
    91   159   161    1
    92   141   140   ar
    93     6     5    1
    94    64    63    1
    95    64    65   ar
    96    67    65   ar
    97    63    60    1
    98   136   135    1
    99   136   139    1
   100   140   139    1
   101   140   142   ar
   102    59    60    1
   103    60    61    1
   104   100    99   ar
   105   100    98   ar
   106    73    61   am
   107    73    74    1
   108    99    97   ar
   109   123   122    1
   110    61    62    2
   111   120   122   ar
   112   120   118   ar
   113    90    89   ar
   114    90    88   ar
   115    98    96   ar
   116    80    78   am
   117   122   121   ar
   118    89    87   ar
   119    97    96   ar
   120   118   117   ar
   121    88    86   ar
   122    77    74    1
   123    77    78    1
   124    96    95    1
   125    74    75    1
   126    78    79    2
   127    75    76    2
   128    87    86   ar
   129   121   119   ar
   130    86    85    1
   131   117   119   ar
   132   117   116    1
   133    95    92    1
   134   116   113    1
   135    85    82    1
   136   113   112    1
   137   113   114    1
   138   111   109    1
   139    91    92    1
   140    92    93    1
   141   114   115    2
   142   132   134   ar
   143   132   130   ar
   144   108   109    2
   145   108   107    1
   146   134   133   ar
   147   109   110    1
   148    82    81    1
   149    82    83    1
   150    94    93    2
   151    84    83    2
   152   130   129   ar
   153   107   106    1
   154   133   131   ar
   155   106   105    1
   156   129   131   ar
   157   129   128    1
   158   124   125    1
   159   128   125    1
   160   105   102    1
   161   125   126    1
   162   102   103    1
   163   102   101    1
   164   104   103    2
   165   126   127    2
