@<TRIPOS>MOLECULE
tmp/3nelA00.pdb
 108 100 0 0 0
SMALL
GASTEIGER

@<TRIPOS>ATOM
      1  N         35.8360   20.9910   50.4540 N.3   170  GLU170     -0.1245
      2  CA        36.1800   19.6400   50.9180 C.3   170  GLU170      0.1567
      3  C         37.2940   19.5430   51.9760 C.2   170  GLU170      0.2260
      4  O         37.4750   18.4720   52.5680 O.2   170  GLU170     -0.2867
      5  CB        36.4850   18.6890   49.7460 C.3   170  GLU170      0.0388
      6  CG        35.2640   18.2500   48.9160 C.3   170  GLU170      0.1160
      7  CD        34.1710   17.5520   49.7260 C.2   170  GLU170      0.3649
      8  OE1       32.9840   17.7000   49.3630 O.co2 170  GLU170     -0.2457
      9  OE2       34.4900   16.8520   50.7130 O.co2 170  GLU170     -0.2457
     10  N         34.2580   20.3490   44.9420 N.3   190  SER190     -0.1217
     11  CA        32.9470   19.7210   44.9510 C.3   190  SER190      0.1889
     12  C         31.8260   20.7540   45.1060 C.2   190  SER190      0.2288
     13  O         32.0440   21.8420   45.6500 O.2   190  SER190     -0.2866
     14  CB        32.8950   18.7650   46.1510 C.3   190  SER190      0.2089
     15  OG        31.5780   18.3100   46.4120 O.3   190  SER190     -0.2183
     16  N         29.3050   20.2370   46.8930 N.3   192  GLN192     -0.1245
     17  CA        28.7300   19.8100   48.1740 C.3   192  GLN192      0.1566
     18  C         27.9030   20.8290   48.9620 C.2   192  GLN192      0.2260
     19  O         26.7300   20.5900   49.2650 O.2   192  GLN192     -0.2867
     20  CB        29.8330   19.2370   49.0750 C.3   192  GLN192      0.0367
     21  CG        29.3170   18.5930   50.3710 C.3   192  GLN192      0.0905
     22  CD        28.4050   17.4050   50.1150 C.2   192  GLN192      0.2608
     23  OE1       28.7220   16.5240   49.3200 O.2   192  GLN192     -0.2717
     24  NE2       27.2710   17.3730   50.7960 N.am  192  GLN192     -0.0878
     25  N         24.7930   22.0460   46.6990 N.3   195  LYS195     -0.1245
     26  CA        23.6920   21.0990   46.4940 C.3   195  LYS195      0.1561
     27  C         22.8810   20.9040   47.7700 C.2   195  LYS195      0.2260
     28  O         21.6720   20.6640   47.7110 O.2   195  LYS195     -0.2867
     29  CB        24.1620   19.7560   45.9010 C.3   195  LYS195      0.0271
     30  CG        25.2000   18.9720   46.6910 C.3   195  LYS195      0.0035
     31  CD        25.4770   17.6330   46.0110 C.3   195  LYS195      0.0206
     32  CE        26.6200   16.9030   46.6770 C.3   195  LYS195      0.1093
     33  NZ        26.8370   15.5570   46.0950 N.3   195  LYS195     -0.1314
     34  N         41.2280   19.3750   42.1800 N.3   214  ARG214     -0.1245
     35  CA        41.9040   18.9510   43.4100 C.3   214  ARG214      0.1563
     36  C         43.3850   18.7930   43.1190 C.2   214  ARG214      0.2260
     37  O         43.7650   18.1040   42.1770 O.2   214  ARG214     -0.2867
     38  CB        41.3170   17.6280   43.9180 C.3   214  ARG214      0.0307
     39  CG        39.8390   17.7280   44.3140 C.3   214  ARG214      0.0489
     40  CD        39.2140   16.3910   44.7060 C.3   214  ARG214      0.2205
     41  NE        37.7910   16.5370   45.0230 N.pl3 214  ARG214     -0.0865
     42  CZ        36.9950   15.5480   45.4290 C.cat 214  ARG214      0.5346
     43  NH1       37.4710   14.3160   45.5800 N.pl3 214  ARG214      0.1354
     44  NH2       35.7070   15.7850   45.6610 N.pl3 214  ARG214      0.1354
     45  N         27.1760   14.9570   40.3510 N.3   231  ASP231     -0.1239
     46  CA        26.6260   15.1470   41.6930 C.3   231  ASP231      0.1674
     47  C         25.1160   15.1490   41.7510 C.2   231  ASP231      0.2266
     48  O         24.4430   15.5620   40.8100 O.2   231  ASP231     -0.2867
     49  CB        27.1290   16.4660   42.2860 C.3   231  ASP231      0.1410
     50  CG        28.5420   16.3750   42.7880 C.2   231  ASP231      0.3668
     51  OD1       28.7250   16.0510   43.9810 O.co2 231  ASP231     -0.2456
     52  OD2       29.4740   16.6270   41.9990 O.co2 231  ASP231     -0.2456
     53  N         29.6400   16.8330   57.3120 N.3   339  TYR339     -0.1227
     54  CA        28.2670   16.8850   56.8040 C.3   339  TYR339      0.1736
     55  C         27.5210   15.5460   56.7470 C.2   339  TYR339      0.2595
     56  O         26.3480   15.4960   56.3670 O.2   339  TYR339     -0.2718
     57  CB        28.2220   17.5930   55.4410 C.3   339  TYR339      0.0548
     58  CG        29.2210   17.0770   54.4230 C.ar  339  TYR339     -0.0200
     59  CD1       28.9900   15.8930   53.7250 C.ar  339  TYR339     -0.0009
     60  CD2       30.3840   17.7930   54.1390 C.ar  339  TYR339     -0.0009
     61  CE1       29.8970   15.4300   52.7650 C.ar  339  TYR339      0.0417
     62  CE2       31.2970   17.3440   53.1800 C.ar  339  TYR339      0.0417
     63  CZ        31.0440   16.1630   52.4980 C.ar  339  TYR339      0.1957
     64  OH        31.9360   15.7300   51.5440 O.3   339  TYR339     -0.2866
     65  N         28.1930   14.4640   57.1260 N.am  340  ILE340     -0.1980
     66  CA        27.5550   13.1560   57.1290 C.3   340  ILE340      0.1595
     67  C         26.8450   12.9270   58.4770 C.2   340  ILE340      0.2287
     68  O         27.3670   13.3030   59.5330 O.2   340  ILE340     -0.2864
     69  CB        28.5870   12.0330   56.9030 C.3   340  ILE340      0.0276
     70  CG1       29.2890   12.2050   55.5480 C.3   340  ILE340      0.0022
     71  CG2       27.9050   10.6740   56.9890 C.3   340  ILE340      0.0022
     72  CD1       28.3470   12.0940   54.3490 C.3   340  ILE340      0.0001
     73  N         31.1320    8.2490   46.1860 N.3   364  SER364     -0.1202
     74  CA        30.9550    8.2910   47.6380 C.3   364  SER364      0.2020
     75  C         29.8100    9.2450   47.9430 C.2   364  SER364      0.2619
     76  O         29.6190   10.2390   47.2400 O.2   364  SER364     -0.2717
     77  CB        32.2220    8.7840   48.3390 C.3   364  SER364      0.2103
     78  OG        32.5390   10.1090   47.9540 O.3   364  SER364     -0.2182
     79  N         29.0420    8.9370   48.9790 N.am  365  GLY365     -0.1956
     80  CA        27.9240    9.7800   49.3590 C.3   365  GLY365      0.1869
     81  C         27.3900    9.3610   50.7120 C.2   365  GLY365      0.2309
     82  O         28.0880    8.6940   51.4680 O.2   365  GLY365     -0.2863
     83  N         23.0090   13.2410   54.8910 N.3   368  ARG368     -0.1245
     84  CA        23.6410   14.3740   55.5570 C.3   368  ARG368      0.1563
     85  C         22.9920   14.6920   56.8950 C.2   368  ARG368      0.2260
     86  O         21.8830   14.2480   57.1970 O.2   368  ARG368     -0.2867
     87  CB        23.5650   15.6320   54.6790 C.3   368  ARG368      0.0307
     88  CG        23.6850   15.4020   53.1710 C.3   368  ARG368      0.0489
     89  CD        25.0050   14.7880   52.7600 C.3   368  ARG368      0.2205
     90  NE        25.0510   14.6750   51.3070 N.pl3 368  ARG368     -0.0865
     91  CZ        26.0300   14.1040   50.6150 C.cat 368  ARG368      0.5346
     92  NH1       27.0810   13.5690   51.2290 N.pl3 368  ARG368      0.1354
     93  NH2       25.9610   14.0950   49.2900 N.pl3 368  ARG368      0.1354
     94  N         25.2800   12.0470   46.4630 N.3   406  PHE406     -0.1227
     95  CA        26.5510   11.4170   46.1100 C.3   406  PHE406      0.1736
     96  C         27.3440   12.2020   45.0750 C.2   406  PHE406      0.2596
     97  O         26.8090   13.0590   44.3860 O.2   406  PHE406     -0.2718
     98  CB        26.3000   10.0030   45.5560 C.3   406  PHE406      0.0547
     99  CG        25.4180    9.9780   44.3340 C.ar  406  PHE406     -0.0202
    100  CD1       24.0580    9.6760   44.4460 C.ar  406  PHE406     -0.0042
    101  CD2       25.9410   10.2760   43.0680 C.ar  406  PHE406     -0.0042
    102  CE1       23.2320    9.6740   43.3200 C.ar  406  PHE406     -0.0003
    103  CE2       25.1220   10.2790   41.9330 C.ar  406  PHE406     -0.0003
    104  CZ        23.7680    9.9770   42.0560 C.ar  406  PHE406     -0.0000
    105  N         28.6240   11.8700   44.9790 N.am  407  GLY407     -0.1957
    106  CA        29.5140   12.4670   44.0080 C.3   407  GLY407      0.1869
    107  C         30.0490   11.2770   43.2230 C.2   407  GLY407      0.2309
    108  O         30.6730   10.3890   43.8050 O.2   407  GLY407     -0.2863
@<TRIPOS>BOND
     1    45    46    1
     2    48    47    2
     3    46    47    1
     4    46    49    1
     5   103   104   ar
     6   103   101   ar
     7    52    50   ar
     8   104   102   ar
     9    37    36    2
    10    34    35    1
    11    49    50    1
    12    50    51   ar
    13   101    99   ar
    14    36    35    1
    15   107   108    2
    16   107   106    1
    17   102   100   ar
    18    35    38    1
    19    38    39    1
    20   106   105    1
    21    39    40    1
    22    99   100   ar
    23    99    98    1
    24    97    96    2
    25    40    41    1
    26    10    11    1
    27    11    12    1
    28    11    14    1
    29   105    96   am
    30    41    42    2
    31    96    95    1
    32    12    13    2
    33    42    43    1
    34    42    44    1
    35    98    95    1
    36    29    26    1
    37    29    30    1
    38    31    32    1
    39    31    30    1
    40    33    32    1
    41    95    94    1
    42    14    15    1
    43    73    74    1
    44    26    25    1
    45    26    27    1
    46    16    17    1
    47    76    75    2
    48    74    75    1
    49    74    77    1
    50    28    27    2
    51    75    79   am
    52    78    77    1
    53    17    18    1
    54    17    20    1
    55     6     7    1
    56     6     5    1
    57    18    19    2
    58    79    80    1
    59    20    21    1
    60    93    91    1
    61    23    22    2
    62    80    81    1
    63     8     7   ar
    64     7     9   ar
    65     5     2    1
    66    22    21    1
    67    22    24   am
    68     1     2    1
    69    91    92    1
    70    91    90    2
    71    81    82    2
    72     2     3    1
    73    90    89    1
    74    64    63    1
    75     3     4    2
    76    63    61   ar
    77    63    62   ar
    78    89    88    1
    79    61    59   ar
    80    88    87    1
    81    62    60   ar
    82    59    58   ar
    83    60    58   ar
    84    72    70    1
    85    58    57    1
    86    87    84    1
    87    83    84    1
    88    57    54    1
    89    70    69    1
    90    84    85    1
    91    56    55    2
    92    55    54    1
    93    55    65   am
    94    54    53    1
    95    85    86    2
    96    69    71    1
    97    69    66    1
    98    65    66    1
    99    66    67    1
   100    67    68    2
