@<TRIPOS>MOLECULE
tmp/3nemA00.pdb
 220 205 0 0 0
SMALL
GASTEIGER

@<TRIPOS>ATOM
      1  N         35.1000   20.4640   49.8800 N.3   170  GLU170     -0.1245
      2  CA        35.4180   19.1400   50.4180 C.3   170  GLU170      0.1567
      3  C         36.5950   19.1350   51.3960 C.2   170  GLU170      0.2260
      4  O         37.0360   18.0720   51.8360 O.2   170  GLU170     -0.2867
      5  CB        35.7150   18.1310   49.2950 C.3   170  GLU170      0.0388
      6  CG        34.5580   17.8960   48.3320 C.3   170  GLU170      0.1160
      7  CD        33.3650   17.2460   49.0080 C.2   170  GLU170      0.3649
      8  OE1       32.2360   17.3810   48.4890 O.co2 170  GLU170     -0.2457
      9  OE2       33.5580   16.6030   50.0670 O.co2 170  GLU170     -0.2457
     10  N         33.7250   20.1190   44.3960 N.3   190  SER190     -0.1217
     11  CA        32.4410   19.4470   44.2520 C.3   190  SER190      0.1889
     12  C         31.3470   20.4890   44.4060 C.2   190  SER190      0.2288
     13  O         31.5970   21.5810   44.9090 O.2   190  SER190     -0.2866
     14  CB        32.2650   18.4300   45.3640 C.3   190  SER190      0.2089
     15  OG        31.9910   19.1130   46.5720 O.3   190  SER190     -0.2183
     16  N         28.9330   20.0320   46.4830 N.3   192  GLN192     -0.1245
     17  CA        28.2760   19.4870   47.6730 C.3   192  GLN192      0.1566
     18  C         27.4400   20.5110   48.4560 C.2   192  GLN192      0.2260
     19  O         26.2790   20.2660   48.7920 O.2   192  GLN192     -0.2867
     20  CB        29.3180   18.8520   48.6050 C.3   192  GLN192      0.0367
     21  CG        28.7310   18.3280   49.9180 C.3   192  GLN192      0.0905
     22  CD        27.7550   17.1930   49.6770 C.2   192  GLN192      0.2608
     23  OE1       27.9880   16.3460   48.8140 O.2   192  GLN192     -0.2717
     24  NE2       26.6660   17.1580   50.4450 N.am  192  GLN192     -0.0878
     25  N         24.3280   21.7680   46.3420 N.3   195  LYS195     -0.1245
     26  CA        23.2190   20.8530   46.0800 C.3   195  LYS195      0.1561
     27  C         22.4060   20.6450   47.3500 C.2   195  LYS195      0.2260
     28  O         21.1960   20.4510   47.2780 O.2   195  LYS195     -0.2867
     29  CB        23.6550   19.5200   45.4610 C.3   195  LYS195      0.0271
     30  CG        24.6070   18.6760   46.2930 C.3   195  LYS195      0.0035
     31  CD        24.9500   17.3930   45.5340 C.3   195  LYS195      0.0206
     32  CE        25.8800   16.4890   46.3350 C.3   195  LYS195      0.1093
     33  NZ        26.1010   15.2070   45.5890 N.3   195  LYS195     -0.1314
     34  N         34.7610   19.2620   38.1930 N.3   212  ILE212     -0.1245
     35  CA        35.2390   19.4770   39.5460 C.3   212  ILE212      0.1561
     36  C         36.7470   19.5840   39.4510 C.2   212  ILE212      0.2260
     37  O         37.3500   19.1000   38.4890 O.2   212  ILE212     -0.2867
     38  CB        34.8730   18.3130   40.4910 C.3   212  ILE212      0.0252
     39  CG1       35.3810   16.9710   39.9400 C.3   212  ILE212      0.0019
     40  CG2       33.3660   18.2850   40.7450 C.3   212  ILE212      0.0019
     41  CD1       35.3340   15.8400   40.9760 C.3   212  ILE212      0.0001
     42  N         40.4550   19.2190   41.5900 N.3   214  ARG214     -0.1245
     43  CA        41.1590   18.7360   42.7680 C.3   214  ARG214      0.1563
     44  C         42.6520   18.7170   42.4890 C.2   214  ARG214      0.2260
     45  O         43.1080   18.1290   41.5020 O.2   214  ARG214     -0.2867
     46  CB        40.6800   17.3410   43.1140 C.3   214  ARG214      0.0307
     47  CG        39.1700   17.2260   43.1090 C.3   214  ARG214      0.0489
     48  CD        38.6800   16.4820   44.2990 C.3   214  ARG214      0.2205
     49  NE        37.2260   16.4780   44.4010 N.pl3 214  ARG214     -0.0865
     50  CZ        36.5590   15.5800   45.1170 C.cat 214  ARG214      0.5346
     51  NH1       37.2320   14.6330   45.7560 N.pl3 214  ARG214      0.1354
     52  NH2       35.2340   15.6190   45.1940 N.pl3 214  ARG214      0.1354
     53  N         45.3600   17.1510   43.1950 N.3   216  GLU216     -0.1245
     54  CA        45.8970   15.8960   43.7360 C.3   216  GLU216      0.1567
     55  C         47.4230   15.9740   43.7740 C.2   216  GLU216      0.2260
     56  O         48.0570   16.3800   42.7970 O.2   216  GLU216     -0.2867
     57  CB        45.4690   14.6950   42.8840 C.3   216  GLU216      0.0388
     58  CG        43.9450   14.5050   42.6900 C.3   216  GLU216      0.1160
     59  CD        43.2400   13.9890   43.9320 C.2   216  GLU216      0.3649
     60  OE1       43.9070   13.3630   44.7840 O.co2 216  GLU216     -0.2457
     61  OE2       42.0100   14.1990   44.0480 O.co2 216  GLU216     -0.2457
     62  N         44.1540    6.4410   38.3270 N.3   222  ARG222     -0.1231
     63  CA        42.7300    6.6120   38.5980 C.3   222  ARG222      0.1694
     64  C         42.3370    7.9850   39.1430 C.2   222  ARG222      0.2592
     65  O         41.1890    8.1910   39.5230 O.2   222  ARG222     -0.2718
     66  CB        42.2400    5.4840   39.5140 C.3   222  ARG222      0.0321
     67  CG        43.1840    5.1690   40.6560 C.3   222  ARG222      0.0489
     68  CD        42.5400    4.2120   41.6530 C.3   222  ARG222      0.2205
     69  NE        42.9310    2.8190   41.4680 N.pl3 222  ARG222     -0.0865
     70  CZ        42.6040    1.8440   42.3130 C.cat 222  ARG222      0.5346
     71  NH1       41.8770    2.1190   43.3910 N.pl3 222  ARG222      0.1354
     72  NH2       43.0010    0.5990   42.0820 N.pl3 222  ARG222      0.1354
     73  N         43.2710    8.9330   39.1600 N.am  223  HIS223     -0.1962
     74  CA        42.9340   10.2970   39.5590 C.3   223  HIS223      0.1787
     75  C         43.2550   11.2930   38.4550 C.2   223  HIS223      0.2620
     76  O         44.1910   11.0960   37.6820 O.2   223  HIS223     -0.2715
     77  CB        43.6970   10.7020   40.8270 C.3   223  HIS223      0.0785
     78  CG        43.2590    9.9710   42.0560 C.ar  223  HIS223      0.0821
     79  ND1       43.7690    8.7410   42.4110 N.ar  223  HIS223     -0.2267
     80  CD2       42.3700   10.3040   43.0220 C.ar  223  HIS223      0.1154
     81  CE1       43.2070    8.3420   43.5390 C.ar  223  HIS223      0.1986
     82  NE2       42.3580    9.2750   43.9340 N.ar  223  HIS223     -0.2212
     83  N         42.4640   12.3630   38.3880 N.am  224  LEU224     -0.1977
     84  CA        42.7700   13.5110   37.5560 C.3   224  LEU224      0.1596
     85  C         42.6180   14.7470   38.4330 C.2   224  LEU224      0.2287
     86  O         42.0270   14.6650   39.5140 O.2   224  LEU224     -0.2864
     87  CB        41.8050   13.5940   36.3690 C.3   224  LEU224      0.0297
     88  CG        41.8040   12.4010   35.4180 C.3   224  LEU224      0.0022
     89  CD1       40.4690   12.2730   34.6810 C.3   224  LEU224      0.0001
     90  CD2       42.9560   12.5530   34.4470 C.3   224  LEU224      0.0001
     91  N         37.9170   16.8100   36.5280 N.3   227  ALA227     -0.1245
     92  CA        37.0630   15.6660   36.2290 C.3   227  ALA227      0.1562
     93  C         35.6230   16.1130   36.0850 C.2   227  ALA227      0.2260
     94  O         35.2720   17.2450   36.4330 O.2   227  ALA227     -0.2867
     95  CB        37.1790   14.6070   37.3330 C.3   227  ALA227      0.0290
     96  N         31.9180   15.4080   37.3940 N.3   229  SER229     -0.1217
     97  CA        31.1550   14.7620   38.4400 C.3   229  SER229      0.1889
     98  C         29.6710   14.7850   38.1180 C.2   229  SER229      0.2288
     99  O         29.1380   15.8150   37.7060 O.2   229  SER229     -0.2866
    100  CB        31.4120   15.4660   39.7840 C.3   229  SER229      0.2089
    101  OG        30.8450   14.7160   40.8350 O.3   229  SER229     -0.2183
    102  N         26.4600   14.6400   39.9420 N.3   231  ASP231     -0.1239
    103  CA        26.0120   14.8440   41.3100 C.3   231  ASP231      0.1674
    104  C         24.5000   14.8380   41.3830 C.2   231  ASP231      0.2266
    105  O         23.8240   15.3070   40.4760 O.2   231  ASP231     -0.2867
    106  CB        26.5220   16.1790   41.8600 C.3   231  ASP231      0.1410
    107  CG        27.9130   16.0750   42.4140 C.2   231  ASP231      0.3668
    108  OD1       28.0400   15.7650   43.6270 O.co2 231  ASP231     -0.2456
    109  OD2       28.8780   16.3040   41.6440 O.co2 231  ASP231     -0.2456
    110  N         29.2420   16.4540   56.7490 N.3   339  TYR339     -0.1227
    111  CA        27.8930   16.6320   56.2170 C.3   339  TYR339      0.1736
    112  C         27.0840   15.3400   56.1760 C.2   339  TYR339      0.2595
    113  O         25.9100   15.3520   55.8250 O.2   339  TYR339     -0.2718
    114  CB        27.9060   17.3540   54.8580 C.3   339  TYR339      0.0548
    115  CG        28.8300   16.7770   53.7980 C.ar  339  TYR339     -0.0200
    116  CD1       28.5280   15.5790   53.1570 C.ar  339  TYR339     -0.0009
    117  CD2       29.9870   17.4520   53.4160 C.ar  339  TYR339     -0.0009
    118  CE1       29.3650   15.0610   52.1770 C.ar  339  TYR339      0.0417
    119  CE2       30.8370   16.9400   52.4380 C.ar  339  TYR339      0.0417
    120  CZ        30.5110   15.7500   51.8180 C.ar  339  TYR339      0.1957
    121  OH        31.3430   15.2460   50.8490 O.3   339  TYR339     -0.2866
    122  N         27.7170   14.2360   56.5570 N.am  340  ILE340     -0.1980
    123  CA        27.0500   12.9500   56.6220 C.3   340  ILE340      0.1595
    124  C         26.3580   12.7770   57.9810 C.2   340  ILE340      0.2287
    125  O         26.9030   13.1400   59.0270 O.2   340  ILE340     -0.2864
    126  CB        28.0550   11.7950   56.4080 C.3   340  ILE340      0.0276
    127  CG1       28.7810   11.9500   55.0570 C.3   340  ILE340      0.0022
    128  CG2       27.3430   10.4450   56.5050 C.3   340  ILE340      0.0022
    129  CD1       27.8850   11.7100   53.8250 C.3   340  ILE340      0.0001
    130  N         36.5660    2.7150   43.4670 N.3   361  GLU361     -0.1231
    131  CA        35.4570    3.5980   43.8270 C.3   361  GLU361      0.1699
    132  C         34.9980    4.4440   42.6410 C.2   361  GLU361      0.2592
    133  O         35.8040    5.1560   42.0310 O.2   361  GLU361     -0.2718
    134  CB        35.8650    4.5160   44.9810 C.3   361  GLU361      0.0402
    135  CG        34.8570    5.6350   45.2460 C.3   361  GLU361      0.1161
    136  CD        35.4230    6.7350   46.1250 C.2   361  GLU361      0.3649
    137  OE1       36.3530    6.4550   46.9140 O.co2 361  GLU361     -0.2457
    138  OE2       34.9360    7.8820   46.0260 O.co2 361  GLU361     -0.2457
    139  N         33.7060    4.3930   42.3110 N.am  362  ILE362     -0.1966
    140  CA        33.1980    5.2710   41.2580 C.3   362  ILE362      0.1727
    141  C         32.2340    6.3420   41.7840 C.2   362  ILE362      0.2617
    142  O         31.9590    7.3220   41.0940 O.2   362  ILE362     -0.2715
    143  CB        32.5380    4.5130   40.0940 C.3   362  ILE362      0.0290
    144  CG1       31.3100    3.7440   40.5710 C.3   362  ILE362      0.0022
    145  CG2       33.5520    3.5700   39.3990 C.3   362  ILE362      0.0023
    146  CD1       30.4300    3.2640   39.4130 C.3   362  ILE362      0.0001
    147  N         31.7430    6.1600   43.0050 N.am  363  SER363     -0.1936
    148  CA        30.8370    7.1260   43.6100 C.3   363  SER363      0.2055
    149  C         30.9000    7.0430   45.1290 C.2   363  SER363      0.2644
    150  O         31.1930    5.9890   45.6950 O.2   363  SER363     -0.2714
    151  CB        29.4010    6.8750   43.1400 C.3   363  SER363      0.2130
    152  OG        28.5080    7.8730   43.6260 O.3   363  SER363     -0.2179
    153  N         30.6310    8.1620   45.7840 N.am  364  SER364     -0.1935
    154  CA        30.3780    8.1490   47.2200 C.3   364  SER364      0.2055
    155  C         29.1800    9.0480   47.4830 C.2   364  SER364      0.2643
    156  O         28.8590    9.9310   46.6830 O.2   364  SER364     -0.2714
    157  CB        31.6040    8.6420   47.9960 C.3   364  SER364      0.2130
    158  OG        31.8540   10.0040   47.7030 O.3   364  SER364     -0.2179
    159  N         28.5060    8.8250   48.6000 N.am  365  GLY365     -0.1954
    160  CA        27.3500    9.6300   48.9410 C.3   365  GLY365      0.1869
    161  C         26.8720    9.2520   50.3250 C.2   365  GLY365      0.2309
    162  O         27.6080    8.6170   51.0830 O.2   365  GLY365     -0.2863
    163  N         22.5070   13.1070   54.4510 N.3   368  ARG368     -0.1245
    164  CA        23.1740   14.2460   55.0830 C.3   368  ARG368      0.1563
    165  C         22.6160   14.5270   56.4610 C.2   368  ARG368      0.2260
    166  O         21.4960   14.1290   56.7820 O.2   368  ARG368     -0.2867
    167  CB        23.0040   15.5100   54.2430 C.3   368  ARG368      0.0307
    168  CG        23.1110   15.2910   52.7400 C.3   368  ARG368      0.0489
    169  CD        24.4270   14.6470   52.3350 C.3   368  ARG368      0.2205
    170  NE        24.4770   14.5540   50.8740 N.pl3 368  ARG368     -0.0865
    171  CZ        25.4330   13.9540   50.1710 C.cat 368  ARG368      0.5346
    172  NH1       26.4710   13.3810   50.7820 N.pl3 368  ARG368      0.1354
    173  NH2       25.3360   13.9400   48.8410 N.pl3 368  ARG368      0.1354
    174  N         24.7270   11.7820   46.1030 N.3   406  PHE406     -0.1227
    175  CA        25.9750   11.1460   45.7290 C.3   406  PHE406      0.1736
    176  C         26.7110   11.9780   44.7040 C.2   406  PHE406      0.2596
    177  O         26.1360   12.8680   44.0780 O.2   406  PHE406     -0.2718
    178  CB        25.7270    9.7470   45.1570 C.3   406  PHE406      0.0547
    179  CG        24.8110    9.7360   43.9580 C.ar  406  PHE406     -0.0202
    180  CD1       23.4760    9.3890   44.0950 C.ar  406  PHE406     -0.0042
    181  CD2       25.2830   10.0850   42.6970 C.ar  406  PHE406     -0.0042
    182  CE1       22.6270    9.3880   42.9900 C.ar  406  PHE406     -0.0003
    183  CE2       24.4360   10.0860   41.5930 C.ar  406  PHE406     -0.0003
    184  CZ        23.1080    9.7260   41.7440 C.ar  406  PHE406     -0.0000
    185  N         27.9910   11.6790   44.5590 N.am  407  GLY407     -0.1957
    186  CA        28.8080   12.2100   43.4850 C.3   407  GLY407      0.1869
    187  C         29.3380   10.9980   42.7430 C.2   407  GLY407      0.2309
    188  O         29.9400   10.1160   43.3550 O.2   407  GLY407     -0.2863
    189  N         31.7140    9.8200   39.5870 N.3   409  GLY409     -0.1225
    190  CA        32.7340   10.3410   38.6890 C.3   409  GLY409      0.1811
    191  C         32.4940    9.8090   37.2900 C.2   409  GLY409      0.2280
    192  O         32.3990    8.5950   37.1090 O.2   409  GLY409     -0.2866
    193  N         34.5030    9.9900   34.5940 N.3   411  GLU411     -0.1231
    194  CA        35.7240    9.3050   34.1780 C.3   411  GLU411      0.1699
    195  C         35.8820    7.9850   34.9170 C.2   411  GLU411      0.2592
    196  O         36.1950    6.9650   34.3110 O.2   411  GLU411     -0.2718
    197  CB        36.9620   10.1820   34.4050 C.3   411  GLU411      0.0402
    198  CG        37.0140   11.3990   33.5000 C.3   411  GLU411      0.1161
    199  CD        35.9690   12.4340   33.8750 C.2   411  GLU411      0.3649
    200  OE1       35.6430   12.5250   35.0830 O.co2 411  GLU411     -0.2457
    201  OE2       35.4760   13.1480   32.9690 O.co2 411  GLU411     -0.2457
    202  N         35.6590    7.9970   36.2270 N.am  412  ARG412     -0.1980
    203  CA        35.7560    6.7570   36.9960 C.3   412  ARG412      0.1597
    204  C         34.7820    5.7140   36.4470 C.2   412  ARG412      0.2287
    205  O         35.1440    4.5560   36.2320 O.2   412  ARG412     -0.2864
    206  CB        35.4810    7.0110   38.4810 C.3   412  ARG412      0.0334
    207  CG        36.6380    7.6540   39.2120 C.3   412  ARG412      0.0492
    208  CD        37.6750    6.6120   39.6480 C.3   412  ARG412      0.2205
    209  NE        38.7740    7.2620   40.3580 N.pl3 412  ARG412     -0.0865
    210  CZ        38.7620    7.5610   41.6530 C.cat 412  ARG412      0.5346
    211  NH1       37.7240    7.2330   42.4100 N.pl3 412  ARG412      0.1354
    212  NH2       39.8020    8.1820   42.1960 N.pl3 412  ARG412      0.1354
    213  N         42.8620    6.1190   33.6320 N.3   423  ILE423     -0.1245
    214  CA        41.7640    7.0710   33.5710 C.3   423  ILE423      0.1561
    215  C         41.9540    8.1390   32.4760 C.2   423  ILE423      0.2260
    216  O         40.9910    8.7700   32.0430 O.2   423  ILE423     -0.2867
    217  CB        41.5450    7.7470   34.9370 C.3   423  ILE423      0.0252
    218  CG1       40.1600    8.4000   34.9830 C.3   423  ILE423      0.0019
    219  CG2       42.6640    8.7390   35.2190 C.3   423  ILE423      0.0019
    220  CD1       39.6860    8.7610   36.3900 C.3   423  ILE423      0.0001
@<TRIPOS>BOND
     1   216   215    2
     2   215   214    1
     3   201   199   ar
     4   198   199    1
     5   198   197    1
     6   214   213    1
     7   214   217    1
     8   199   200   ar
     9   194   197    1
    10   194   193    1
    11   194   195    1
    12   196   195    2
    13    90    88    1
    14    89    88    1
    15   195   202   am
    16   217   218    1
    17   217   219    1
    18   218   220    1
    19    88    87    1
    20    93    92    1
    21    93    94    2
    22   202   203    1
    23    92    91    1
    24    92    95    1
    25   205   204    2
    26    87    84    1
    27   204   203    1
    28   203   206    1
    29   192   191    2
    30   191   190    1
    31    96    97    1
    32    84    83    1
    33    84    85    1
    34    76    75    2
    35    99    98    2
    36    98    97    1
    37    34    35    1
    38    62    63    1
    39    83    75   am
    40    85    86    2
    41    97   100    1
    42    75    74    1
    43   206   207    1
    44    37    36    2
    45    63    64    1
    46    63    66    1
    47   190   189    1
    48    64    73   am
    49    64    65    2
    50    73    74    1
    51   207   208    1
    52   145   143    1
    53   146   144    1
    54    36    35    1
    55    66    67    1
    56    35    38    1
    57    74    77    1
    58   208   209    1
    59   100   101    1
    60    39    38    1
    61    39    41    1
    62   102   103    1
    63   143   144    1
    64   143   140    1
    65   209   210    2
    66   105   104    2
    67    38    40    1
    68    67    68    1
    69    77    78    1
    70   142   141    2
    71   140   141    1
    72   140   139    1
    73   103   104    1
    74   103   106    1
    75    69    68    1
    76    69    70    2
    77    45    44    2
    78    42    43    1
    79   183   184   ar
    80   183   181   ar
    81   109   107   ar
    82   210   212    1
    83   210   211    1
    84   184   182   ar
    85   141   147   am
    86   106   107    1
    87   133   132    2
    88    78    79   ar
    89    78    80   ar
    90    72    70    1
    91   139   132   am
    92    70    71    1
    93    79    81   ar
    94   107   108   ar
    95    44    43    1
    96   132   131    1
    97    58    57    1
    98    58    59    1
    99   181   179   ar
   100   187   188    2
   101   187   186    1
   102    43    46    1
   103    56    55    2
   104    57    54    1
   105   182   180   ar
   106   147   148    1
   107    80    82   ar
   108    47    46    1
   109    47    48    1
   110   151   148    1
   111   151   152    1
   112    53    54    1
   113   130   131    1
   114   186   185    1
   115    81    82   ar
   116   148   149    1
   117    54    55    1
   118   131   134    1
   119    59    61   ar
   120    59    60   ar
   121   179   180   ar
   122   179   178    1
   123   177   176    2
   124    11    10    1
   125    11    12    1
   126    11    14    1
   127    48    49    1
   128    49    50    2
   129    12    13    2
   130   185   176   am
   131   176   175    1
   132   134   135    1
   133    50    52    1
   134    50    51    1
   135   149   150    2
   136   149   153   am
   137   178   175    1
   138   135   136    1
   139    14    15    1
   140    29    26    1
   141    29    30    1
   142    31    30    1
   143    31    32    1
   144    33    32    1
   145   175   174    1
   146   153   154    1
   147   138   136   ar
   148    26    25    1
   149    26    27    1
   150   136   137   ar
   151    16    17    1
   152   156   155    2
   153   154   155    1
   154   154   157    1
   155    28    27    2
   156   155   159   am
   157    17    18    1
   158    17    20    1
   159   158   157    1
   160     6     7    1
   161     6     5    1
   162    18    19    2
   163     8     7   ar
   164   159   160    1
   165    20    21    1
   166    23    22    2
   167   173   171    1
   168   160   161    1
   169     7     9   ar
   170     5     2    1
   171    22    21    1
   172    22    24   am
   173     1     2    1
   174   171   172    1
   175   171   170    2
   176   161   162    2
   177     2     3    1
   178   121   120    1
   179   170   169    1
   180     3     4    2
   181   120   118   ar
   182   120   119   ar
   183   118   116   ar
   184   169   168    1
   185   119   117   ar
   186   168   167    1
   187   116   115   ar
   188   117   115   ar
   189   115   114    1
   190   129   127    1
   191   167   164    1
   192   163   164    1
   193   114   111    1
   194   127   126    1
   195   164   165    1
   196   113   112    2
   197   112   111    1
   198   112   122   am
   199   111   110    1
   200   126   128    1
   201   126   123    1
   202   165   166    2
   203   122   123    1
   204   123   124    1
   205   124   125    2
