@<TRIPOS>MOLECULE
tmp/3nerB00.pdb
 190 183 0 0 0
SMALL
GASTEIGER

@<TRIPOS>ATOM
      1  N         -4.3470   -1.4560   19.2600 N.3    28  LEU28      -0.1245
      2  CA        -3.0040   -1.6400   19.8790 C.3    28  LEU28       0.1561
      3  C         -2.4660   -0.3400   20.3490 C.2    28  LEU28       0.2260
      4  O         -2.8230    0.7230   19.7850 O.2    28  LEU28      -0.2867
      5  CB        -1.9990   -2.1840   18.8630 C.3    28  LEU28       0.0270
      6  CG        -2.3900   -3.5770   18.3280 C.3    28  LEU28       0.0019
      7  CD1       -1.3780   -4.0180   17.2780 C.3    28  LEU28       0.0001
      8  CD2       -2.4430   -4.5880   19.4650 C.3    28  LEU28       0.0001
      9  N          1.0570    1.7130   20.6960 N.3    30  ILE30      -0.1245
     10  CA         2.4530    1.7140   20.2830 C.3    30  ILE30       0.1561
     11  C          2.9420    3.1400   20.4290 C.2    30  ILE30       0.2260
     12  O          2.3210    4.1080   19.9170 O.2    30  ILE30      -0.2867
     13  CB         2.5310    1.2720   18.8310 C.3    30  ILE30       0.0252
     14  CG1        2.0680   -0.1960   18.6750 C.3    30  ILE30       0.0019
     15  CG2        4.0180    1.3740   18.3570 C.3    30  ILE30       0.0019
     16  CD1        2.0210   -0.6110   17.1950 C.3    30  ILE30       0.0001
     17  N         -3.9220    2.5800   17.8800 N.3    35  TYR35      -0.1241
     18  CA        -4.1060    2.1940   16.4870 C.3    35  TYR35       0.1605
     19  C         -5.2260    1.1860   16.3710 C.2    35  TYR35       0.2264
     20  O         -5.2460    0.2310   17.1360 O.2    35  TYR35      -0.2867
     21  CB        -2.8170    1.5710   15.9590 C.3    35  TYR35       0.0534
     22  CG        -1.6960    2.5650   15.9800 C.ar   35  TYR35      -0.0201
     23  CD1       -0.8800    2.7330   17.1090 C.ar   35  TYR35      -0.0009
     24  CD2       -1.5050    3.4120   14.8880 C.ar   35  TYR35      -0.0009
     25  CE1        0.0840    3.7090   17.1360 C.ar   35  TYR35       0.0417
     26  CE2       -0.5290    4.3920   14.9070 C.ar   35  TYR35       0.0417
     27  CZ         0.2600    4.5310   16.0440 C.ar   35  TYR35       0.1957
     28  OH         1.2440    5.5200   16.1230 O.3    35  TYR35      -0.2866
     29  N         -6.3130   -1.5770   14.2540 N.3    37  VAL37      -0.1245
     30  CA        -5.6850   -2.3840   13.2210 C.3    37  VAL37       0.1561
     31  C         -6.6030   -3.4750   12.7560 C.2    37  VAL37       0.2260
     32  O         -6.1850   -4.4190   12.0780 O.2    37  VAL37      -0.2867
     33  CB        -4.3310   -3.0050   13.7280 C.3    37  VAL37       0.0252
     34  CG1       -3.3120   -1.8770   13.9090 C.3    37  VAL37       0.0019
     35  CG2       -4.4730   -3.7940   15.0010 C.3    37  VAL37       0.0019
     36  N         -6.4060   -4.3820    9.2220 N.3    40  PHE40      -0.1241
     37  CA        -5.0780   -4.7690    8.7900 C.3    40  PHE40       0.1605
     38  C         -4.6750   -6.1890    9.2700 C.2    40  PHE40       0.2264
     39  O         -3.7220   -6.8090    8.7320 O.2    40  PHE40      -0.2867
     40  CB        -4.1410   -3.7260    9.3970 C.3    40  PHE40       0.0534
     41  CG        -2.6930   -3.9430    9.1060 C.ar   40  PHE40      -0.0203
     42  CD1       -2.2130   -3.8470    7.8210 C.ar   40  PHE40      -0.0042
     43  CD2       -1.8230   -4.2200   10.1220 C.ar   40  PHE40      -0.0042
     44  CE1       -0.8530   -4.0340    7.5620 C.ar   40  PHE40      -0.0003
     45  CE2       -0.4930   -4.4040    9.8700 C.ar   40  PHE40      -0.0003
     46  CZ        -0.0180   -4.3060    8.5570 C.ar   40  PHE40      -0.0000
     47  N         -1.4880   -8.2190    7.6900 N.3    44  HIS44      -0.1227
     48  CA        -0.1990   -7.9920    8.3540 C.3    44  HIS44       0.1737
     49  C          0.7950   -9.1000    7.9790 C.2    44  HIS44       0.2438
     50  O          0.5470  -10.2460    8.2040 O.2    44  HIS44      -0.2733
     51  CB        -0.4040   -7.9480    9.8770 C.3    44  HIS44       0.0758
     52  CG         0.8840   -7.7520   10.6200 C.ar   44  HIS44       0.0818
     53  ND1        1.3060   -8.5970   11.6220 N.ar   44  HIS44      -0.2268
     54  CD2        1.8080   -6.7750   10.5260 C.ar   44  HIS44       0.1154
     55  CE1        2.4390   -8.1280   12.1260 C.ar   44  HIS44       0.1986
     56  NE2        2.7710   -7.0220   11.4880 N.ar   44  HIS44      -0.2212
     57  N          1.9980   -8.7280    7.4810 N.am   45  PRO45      -0.2718
     58  CA         2.9480   -9.7630    7.0720 C.3    45  PRO45       0.1535
     59  C          3.4470  -10.6490    8.1800 C.2    45  PRO45       0.2599
     60  O          3.8640  -11.7740    7.9210 O.2    45  PRO45      -0.2715
     61  CB         4.0740   -8.9560    6.4300 C.3    45  PRO45       0.0310
     62  CG         3.3480   -7.8190    5.8090 C.3    45  PRO45       0.0237
     63  CD         2.4680   -7.4210    7.0400 C.3    45  PRO45       0.0939
     64  N          3.4330  -10.1530    9.4240 N.am   46  GLY46      -0.1955
     65  CA         3.8340  -11.0040   10.5380 C.3    46  GLY46       0.1869
     66  C          2.7370  -11.8990   11.0880 C.2    46  GLY46       0.2309
     67  O          2.9580  -12.6130   12.0400 O.2    46  GLY46      -0.2863
     68  N          0.5110  -12.3880   16.3490 N.3    50  VAL50      -0.1231
     69  CA         1.4490  -11.5270   17.0710 C.3    50  VAL50       0.1692
     70  C          0.7530  -10.1930   17.4030 C.2    50  VAL50       0.2591
     71  O          1.1490   -9.5620   18.3830 O.2    50  VAL50      -0.2718
     72  CB         2.7940  -11.2170   16.2830 C.3    50  VAL50       0.0266
     73  CG1        3.5940  -12.5010   16.2090 C.3    50  VAL50       0.0020
     74  CG2        2.5170  -10.6070   14.8410 C.3    50  VAL50       0.0020
     75  N         -0.2420   -9.7410   16.6200 N.am   51  LEU51      -0.1980
     76  CA        -0.9550   -8.5250   16.9550 C.3    51  LEU51       0.1596
     77  C         -1.9720   -8.7740   18.0500 C.2    51  LEU51       0.2287
     78  O         -2.0310   -8.0310   19.0300 O.2    51  LEU51      -0.2864
     79  CB        -1.6640   -7.9520   15.7140 C.3    51  LEU51       0.0297
     80  CG        -0.7400   -7.6980   14.5180 C.3    51  LEU51       0.0022
     81  CD1       -1.5360   -7.1310   13.3540 C.3    51  LEU51       0.0001
     82  CD2        0.3100   -6.7610   14.9870 C.3    51  LEU51       0.0001
     83  N         -1.9790  -10.9160   20.3440 N.3    53  GLU53      -0.1231
     84  CA        -1.2980  -11.1500   21.6170 C.3    53  GLU53       0.1699
     85  C         -0.9240   -9.8800   22.3530 C.2    53  GLU53       0.2592
     86  O         -0.6780   -9.9260   23.5340 O.2    53  GLU53      -0.2718
     87  CB        -0.0160  -11.9480   21.4110 C.3    53  GLU53       0.0402
     88  CG        -0.2150  -13.2910   20.8660 C.3    53  GLU53       0.1161
     89  CD         1.1450  -14.0080   20.6250 C.2    53  GLU53       0.3649
     90  OE1        2.2010  -13.3220   20.5510 O.co2  53  GLU53      -0.2457
     91  OE2        1.1390  -15.2590   20.4700 O.co2  53  GLU53      -0.2457
     92  N         -0.8930   -8.7470   21.6540 N.am   54  GLN54      -0.1979
     93  CA        -0.5650   -7.5120   22.3350 C.3    54  GLN54       0.1601
     94  C         -1.7840   -6.6710   22.7210 C.2    54  GLN54       0.2287
     95  O         -1.6420   -5.5200   23.0990 O.2    54  GLN54      -0.2864
     96  CB         0.3700   -6.6190   21.4820 C.3    54  GLN54       0.0394
     97  CG         1.7200   -7.2920   21.1680 C.3    54  GLN54       0.0908
     98  CD         2.4540   -7.6280   22.4220 C.2    54  GLN54       0.2608
     99  OE1        2.4540   -6.8230   23.3920 O.2    54  GLN54      -0.2717
    100  NE2        3.0940   -8.7840   22.4350 N.am   54  GLN54      -0.0878
    101  N          2.4120   -2.2930   23.3890 N.3    59  ALA59      -0.1245
    102  CA         2.9740   -3.1130   22.3480 C.3    59  ALA59       0.1562
    103  C          4.2570   -2.5340   21.7540 C.2    59  ALA59       0.2260
    104  O          4.7840   -3.0950   20.7970 O.2    59  ALA59      -0.2867
    105  CB         1.9020   -3.2580   21.2310 C.3    59  ALA59       0.0290
    106  N          7.4670   -4.8670   21.6270 N.3    62  SER62      -0.1202
    107  CA         7.2710   -5.9360   20.6640 C.3    62  SER62       0.2020
    108  C          7.4020   -5.3990   19.2320 C.2    62  SER62       0.2618
    109  O          8.0030   -6.0310   18.3500 O.2    62  SER62      -0.2717
    110  CB         5.8990   -6.5640   20.8780 C.3    62  SER62       0.2103
    111  OG         5.8460   -7.1350   22.1580 O.3    62  SER62      -0.2182
    112  N          6.8300   -4.2260   18.9800 N.am   63  PHE63      -0.1975
    113  CA         6.8870   -3.6460   17.6450 C.3    63  PHE63       0.1639
    114  C          8.3280   -3.2490   17.3150 C.2    63  PHE63       0.2290
    115  O          8.8070   -3.4490   16.2160 O.2    63  PHE63      -0.2864
    116  CB         5.9740   -2.3690   17.5890 C.3    63  PHE63       0.0560
    117  CG         5.9800   -1.6600   16.2560 C.ar   63  PHE63      -0.0200
    118  CD1        5.1280   -2.0890   15.2260 C.ar   63  PHE63      -0.0042
    119  CD2        6.8310   -0.5780   16.0120 C.ar   63  PHE63      -0.0042
    120  CE1        5.0980   -1.4720   13.9840 C.ar   63  PHE63      -0.0003
    121  CE2        6.8230    0.0660   14.7510 C.ar   63  PHE63      -0.0003
    122  CZ         5.9470   -0.3920   13.7360 C.ar   63  PHE63      -0.0000
    123  N         10.9890   -6.1720   16.3570 N.3    66  VAL66      -0.1231
    124  CA        10.8420   -6.7840   15.0450 C.3    66  VAL66       0.1692
    125  C         11.7350   -6.0830   14.0490 C.2    66  VAL66       0.2593
    126  O         12.2500   -6.7140   13.1130 O.2    66  VAL66      -0.2718
    127  CB         9.3630   -6.6390   14.5740 C.3    66  VAL66       0.0266
    128  CG1        9.1840   -7.0200   13.0640 C.3    66  VAL66       0.0020
    129  CG2        8.4960   -7.4850   15.4360 C.3    66  VAL66       0.0020
    130  N         11.9630   -4.7900   14.2260 N.am   67  GLY67      -0.1942
    131  CA        12.7780   -4.0660   13.2740 C.3    67  GLY67       0.2014
    132  C         11.9860   -3.7870   12.0030 C.2    67  GLY67       0.2639
    133  O         12.4030   -4.0740   10.8770 O.2    67  GLY67      -0.2714
    134  N         10.8200   -3.2060   12.1970 N.am   68  HIS68      -0.1959
    135  CA         9.9340   -2.8450   11.1070 C.3    68  HIS68       0.1787
    136  C         10.5950   -1.8300   10.1550 C.2    68  HIS68       0.2620
    137  O         11.3840   -0.9800   10.5980 O.2    68  HIS68      -0.2715
    138  CB         8.6580   -2.2440   11.7040 C.3    68  HIS68       0.0785
    139  CG         7.6510   -3.2740   12.1260 C.ar   68  HIS68       0.0821
    140  ND1        7.5690   -3.7490   13.4130 N.ar   68  HIS68      -0.2267
    141  CD2        6.6820   -3.9000   11.4250 C.ar   68  HIS68       0.1154
    142  CE1        6.5890   -4.6340   13.4910 C.ar   68  HIS68       0.1986
    143  NE2        6.0370   -4.7470   12.2940 N.ar   68  HIS68      -0.2212
    144  N         10.3020   -1.9470    8.8750 N.am   69  SER69      -0.1950
    145  CA        10.8740   -1.0830    7.8410 C.3    69  SER69       0.1924
    146  C         10.3490    0.3310    7.9270 C.2    69  SER69       0.2314
    147  O          9.4170    0.6040    8.6670 O.2    69  SER69      -0.2863
    148  CB        10.5040   -1.6270    6.4810 C.3    69  SER69       0.2116
    149  OG         9.1200   -1.4750    6.2620 O.3    69  SER69      -0.2180
    150  N          8.7470    1.7590    5.5570 N.3    71  ASP71      -0.1225
    151  CA         7.4480    1.6180    4.9240 C.3    71  ASP71       0.1805
    152  C          6.4530    1.1580    5.9920 C.2    71  ASP71       0.2597
    153  O          5.3700    1.7160    6.0710 O.2    71  ASP71      -0.2718
    154  CB         7.4970    0.5880    3.7990 C.3    71  ASP71       0.1424
    155  CG         6.1570    0.3740    3.1420 C.2    71  ASP71       0.3668
    156  OD1        5.5740    1.3450    2.6370 O.co2  71  ASP71      -0.2456
    157  OD2        5.6830   -0.7810    3.1360 O.co2  71  ASP71      -0.2456
    158  N          6.8200    0.1680    6.7910 N.am   72  ALA72      -0.1979
    159  CA         5.8670   -0.3290    7.8350 C.3    72  ALA72       0.1597
    160  C          5.5340    0.8200    8.8010 C.2    72  ALA72       0.2287
    161  O          4.3900    0.9610    9.2190 O.2    72  ALA72      -0.2864
    162  CB         6.4920   -1.5230    8.6340 C.3    72  ALA72       0.0319
    163  N          3.1250    3.2040    7.2490 N.3    75  MET75      -0.1230
    164  CA         1.8470    2.5020    7.1620 C.3    75  MET75       0.1702
    165  C          1.1220    2.5520    8.5080 C.2    75  MET75       0.2592
    166  O         -0.1110    2.6130    8.5330 O.2    75  MET75      -0.2718
    167  CB         2.1110    1.0340    6.7750 C.3    75  MET75       0.0401
    168  CG         0.9190    0.2540    6.3810 C.3    75  MET75       0.0596
    169  SD         1.5100   -1.4890    6.1060 S.3    75  MET75      -0.1393
    170  CE         2.8260   -1.1220    4.9630 C.3    75  MET75       0.0692
    171  N          1.8680    2.5050    9.6010 N.am   76  LEU76      -0.1980
    172  CA         1.2830    2.5620   10.9530 C.3    76  LEU76       0.1596
    173  C          0.4040    3.8100   11.0910 C.2    76  LEU76       0.2287
    174  O         -0.6950    3.7560   11.6510 O.2    76  LEU76      -0.2864
    175  CB         2.4130    2.5590   11.9700 C.3    76  LEU76       0.0297
    176  CG         2.1950    2.5960   13.4550 C.3    76  LEU76       0.0022
    177  CD1        1.3050    1.4960   13.9070 C.3    76  LEU76       0.0001
    178  CD2        3.5440    2.4800   14.0850 C.3    76  LEU76       0.0001
    179  N         -3.3940    3.7360   10.5620 N.3    79  TYR79      -0.1241
    180  CA        -4.2480    3.1090   11.5770 C.3    79  TYR79       0.1605
    181  C         -4.3900    3.9000   12.8580 C.2    79  TYR79       0.2264
    182  O         -5.1060    3.5130   13.7500 O.2    79  TYR79      -0.2867
    183  CB        -3.6740    1.6900   11.8570 C.3    79  TYR79       0.0534
    184  CG        -3.6890    0.8920   10.5830 C.ar   79  TYR79      -0.0201
    185  CD1       -4.8490    0.4110   10.0590 C.ar   79  TYR79      -0.0009
    186  CD2       -2.5430    0.7190    9.8710 C.ar   79  TYR79      -0.0009
    187  CE1       -4.8560   -0.2480    8.8330 C.ar   79  TYR79       0.0417
    188  CE2       -2.5600    0.1080    8.6400 C.ar   79  TYR79       0.0417
    189  CZ        -3.6930   -0.3680    8.1470 C.ar   79  TYR79       0.1957
    190  OH        -3.6290   -1.0050    6.9260 O.3    79  TYR79      -0.2866
@<TRIPOS>BOND
     1   156   155   ar
     2   157   155   ar
     3   155   154    1
     4   154   151    1
     5   151   150    1
     6   151   152    1
     7   170   169    1
     8    62    61    1
     9    62    63    1
    10   152   153    2
    11   152   158   am
    12   169   168    1
    13   149   148    1
    14   168   167    1
    15    61    58    1
    16   148   145    1
    17   167   164    1
    18   158   159    1
    19   190   189    1
    20    63    57    1
    21    58    57    1
    22    58    59    1
    23   164   163    1
    24   164   165    1
    25    57    49   am
    26    44    42   ar
    27    44    46   ar
    28    47    48    1
    29    42    41   ar
    30   159   162    1
    31   159   160    1
    32   145   146    1
    33   145   144    1
    34    60    59    2
    35   146   147    2
    36    49    50    2
    37    49    48    1
    38   189   188   ar
    39   189   187   ar
    40    59    64   am
    41    48    51    1
    42   165   166    2
    43   165   171   am
    44    46    45   ar
    45   188   186   ar
    46    39    38    2
    47    37    36    1
    48    37    38    1
    49    37    40    1
    50   160   161    2
    51   187   185   ar
    52   144   136   am
    53    41    40    1
    54    41    43   ar
    55    64    65    1
    56   171   172    1
    57    45    43   ar
    58   186   184   ar
    59    51    52    1
    60   185   184   ar
    61   136   137    2
    62   136   135    1
    63    54    52   ar
    64    54    56   ar
    65    65    66    1
    66   179   180    1
    67   184   183    1
    68    52    53   ar
    69   133   132    2
    70   172   173    1
    71   172   175    1
    72    66    67    2
    73   173   174    2
    74   135   138    1
    75   135   134    1
    76   141   139   ar
    77   141   143   ar
    78    56    55   ar
    79   180   183    1
    80   180   181    1
    81    53    55   ar
    82   138   139    1
    83   175   176    1
    84   132   134   am
    85   132   131    1
    86    32    31    2
    87   139   140   ar
    88   143   142   ar
    89    31    30    1
    90   181   182    2
    91   128   127    1
    92   126   125    2
    93    30    33    1
    94    30    29    1
    95   131   130    1
    96    81    80    1
    97   140   142   ar
    98   176   177    1
    99   176   178    1
   100    33    34    1
   101    33    35    1
   102   122   120   ar
   103   122   121   ar
   104   120   118   ar
   105   125   130   am
   106   125   124    1
   107    80    82    1
   108    80    79    1
   109   127   124    1
   110   127   129    1
   111   121   119   ar
   112    74    72    1
   113    24    26   ar
   114    24    22   ar
   115    26    27   ar
   116   124   123    1
   117   118   117   ar
   118    79    76    1
   119    21    22    1
   120    21    18    1
   121    22    23   ar
   122   119   117   ar
   123    27    28    1
   124    27    25   ar
   125    73    72    1
   126   115   114    2
   127   117   116    1
   128    72    69    1
   129    68    69    1
   130    19    18    1
   131    19    20    2
   132    18    17    1
   133    75    76    1
   134    75    70   am
   135    76    77    1
   136    69    70    1
   137    23    25   ar
   138    16    14    1
   139     7     6    1
   140   114   113    1
   141    70    71    2
   142   116   113    1
   143   113   112    1
   144    77    78    2
   145     6     5    1
   146     6     8    1
   147   109   108    2
   148    15    13    1
   149    14    13    1
   150    13    10    1
   151     5     2    1
   152   112   108   am
   153   108   107    1
   154     1     2    1
   155     4     3    2
   156     2     3    1
   157    12    11    2
   158    10    11    1
   159    10     9    1
   160    83    84    1
   161    91    89   ar
   162    90    89   ar
   163    89    88    1
   164   107   110    1
   165   107   106    1
   166   104   103    2
   167    88    87    1
   168   110   111    1
   169    97    96    1
   170    97    98    1
   171   105   102    1
   172    87    84    1
   173    96    93    1
   174    84    85    1
   175    92    93    1
   176    92    85   am
   177   103   102    1
   178    93    94    1
   179   102   101    1
   180    85    86    2
   181    98   100   am
   182    98    99    2
   183    94    95    2
