@<TRIPOS>MOLECULE
tmp/3newA00.pdb
 133 126 0 0 0
SMALL
GASTEIGER

@<TRIPOS>ATOM
      1  N         20.6710   12.4360   17.0590 N.3   173  PRO173     -0.2102
      2  CA        21.3000   13.6990   17.2450 C.3   173  PRO173      0.1504
      3  C         20.8680   14.6080   16.0910 C.2   173  PRO173      0.2575
      4  O         20.4610   15.7090   16.3520 O.2   173  PRO173     -0.2718
      5  CB        22.8500   13.3620   17.1580 C.3   173  PRO173      0.0282
      6  CG        22.9030   12.0730   16.4860 C.3   173  PRO173      0.0208
      7  CD        21.6570   11.3610   16.9130 C.3   173  PRO173      0.0893
      8  N         20.8060   14.0780   14.8730 N.am  174  GLU174     -0.1980
      9  CA        20.4020   14.8290   13.7360 C.3   174  GLU174      0.1602
     10  C         19.0440   15.3880   13.7940 C.2   174  GLU174      0.2287
     11  O         18.7660   16.3180   12.9780 O.2   174  GLU174     -0.2864
     12  CB        20.5260   14.0670   12.3690 C.3   174  GLU174      0.0415
     13  CG        19.6930   12.8810   12.3020 C.3   174  GLU174      0.1163
     14  CD        20.4930   11.6600   12.7670 C.2   174  GLU174      0.3649
     15  OE1       20.3940   10.6210   12.1080 O.co2 174  GLU174     -0.2457
     16  OE2       21.3120   11.7620   13.7150 O.co2 174  GLU174     -0.2457
     17  N         19.2060   18.4090   16.2480 N.3   177  LEU177     -0.1245
     18  CA        19.7910   19.4960   15.4150 C.3   177  LEU177      0.1561
     19  C         18.8530   19.9790   14.3070 C.2   177  LEU177      0.2260
     20  O         19.1820   20.8260   13.5420 O.2   177  LEU177     -0.2867
     21  CB        21.0480   18.9840   14.7620 C.3   177  LEU177      0.0270
     22  CG        22.1190   18.7530   15.8260 C.3   177  LEU177      0.0019
     23  CD1       23.1420   17.8720   15.2800 C.3   177  LEU177      0.0001
     24  CD2       22.7840   19.9920   16.2460 C.3   177  LEU177      0.0001
     25  N         17.8910   18.5920   11.3930 N.3   179  TRP179     -0.1241
     26  CA        18.1750   18.3380   10.0010 C.3   179  TRP179      0.1605
     27  C         16.8220   17.9670    9.3310 C.2   179  TRP179      0.2264
     28  O         16.0070   17.1680    9.8650 O.2   179  TRP179     -0.2867
     29  CB        19.1760   17.1890    9.9010 C.3   179  TRP179      0.0550
     30  CG        19.6440   16.9510    8.5660 C.ar  179  TRP179      0.0003
     31  CD1       19.6440   17.8350    7.5660 C.ar  179  TRP179      0.0946
     32  CD2       20.1710   15.7520    8.0340 C.ar  179  TRP179      0.0152
     33  NE1       20.1880   17.3020    6.4100 N.ar  179  TRP179     -0.2442
     34  CE2       20.5050   16.0080    6.6620 C.ar  179  TRP179      0.0810
     35  CE3       20.4100   14.4820    8.5580 C.ar  179  TRP179      0.0012
     36  CZ2       21.0760   15.0400    5.8220 C.ar  179  TRP179      0.0191
     37  CZ3       21.0290   13.5170    7.7320 C.ar  179  TRP179      0.0001
     38  CH2       21.3140   13.7840    6.3960 C.ar  179  TRP179      0.0015
     39  N         21.7350   16.4390   23.3790 N.3   214  LEU214     -0.1245
     40  CA        22.9200   16.3700   22.5880 C.3   214  LEU214      0.1561
     41  C         24.2500   16.3260   23.3090 C.2   214  LEU214      0.2260
     42  O         25.1710   15.6800   22.8190 O.2   214  LEU214     -0.2867
     43  CB        22.8860   17.5880   21.7470 C.3   214  LEU214      0.0270
     44  CG        23.6730   17.6070   20.4650 C.3   214  LEU214      0.0019
     45  CD1       23.2040   16.5100   19.5580 C.3   214  LEU214      0.0001
     46  CD2       23.3200   18.9730   19.9160 C.3   214  LEU214      0.0001
     47  N         26.9900   13.3860   22.5760 N.3   218  LEU218     -0.1245
     48  CA        28.3830   13.5740   22.0880 C.3   218  LEU218      0.1561
     49  C         29.4020   13.0970   23.1170 C.2   218  LEU218      0.2260
     50  O         30.4730   12.6950   22.7570 O.2   218  LEU218     -0.2867
     51  CB        28.6790   15.0600   21.7560 C.3   218  LEU218      0.0270
     52  CG        27.7510   15.6570   20.6590 C.3   218  LEU218      0.0019
     53  CD1       28.2360   17.0120   20.4680 C.3   218  LEU218      0.0001
     54  CD2       27.7610   14.9000   19.3270 C.3   218  LEU218      0.0001
     55  N         31.8650   15.4930   16.2040 N.3   224  PRO224     -0.2116
     56  CA        32.1230   15.0530   14.7880 C.3   224  PRO224      0.1372
     57  C         33.5720   15.1080   14.2830 C.2   224  PRO224      0.2244
     58  O         34.2590   16.0460   14.5550 O.2   224  PRO224     -0.2868
     59  CB        31.1930   15.9970   13.9580 C.3   224  PRO224      0.0268
     60  CG        30.0870   16.4650   14.9500 C.3   224  PRO224      0.0207
     61  CD        30.7840   16.5220   16.3190 C.3   224  PRO224      0.0892
     62  N         32.5030   13.9850    8.5260 N.3   228  LEU228     -0.1245
     63  CA        31.1080   14.1410    8.7170 C.3   228  LEU228      0.1561
     64  C         30.7960   15.6780    8.7110 C.2   228  LEU228      0.2260
     65  O         29.7340   16.1260    8.2950 O.2   228  LEU228     -0.2867
     66  CB        30.6890   13.5130   10.0550 C.3   228  LEU228      0.0270
     67  CG        29.2590   13.8450   10.4910 C.3   228  LEU228      0.0019
     68  CD1       28.0920   13.2520    9.4930 C.3   228  LEU228      0.0001
     69  CD2       29.0900   13.3980   11.9110 C.3   228  LEU228      0.0001
     70  N         29.7670   17.2030    5.6110 N.3   231  LYS231     -0.1231
     71  CA        28.5020   16.9220    4.8990 C.3   231  LYS231      0.1693
     72  C         27.3450   17.8090    5.4730 C.2   231  LYS231      0.2592
     73  O         26.2500   17.7350    5.0280 O.2   231  LYS231     -0.2718
     74  CB        28.0910   15.4490    4.9720 C.3   231  LYS231      0.0285
     75  CG        28.9870   14.4350    4.2550 C.3   231  LYS231      0.0035
     76  CD        29.0200   13.1910    5.1710 C.3   231  LYS231      0.0206
     77  CE        29.0520   11.8560    4.5090 C.3   231  LYS231      0.1093
     78  NZ        29.1190   10.8340    5.6240 N.3   231  LYS231     -0.1314
     79  N         27.6270   18.5870    6.5050 N.am  232  ILE232     -0.1966
     80  CA        26.6670   19.4460    7.1130 C.3   232  ILE232      0.1727
     81  C         26.4980   20.7790    6.2780 C.2   232  ILE232      0.2617
     82  O         27.3640   21.6820    6.3180 O.2   232  ILE232     -0.2715
     83  CB        26.9920   19.6740    8.5830 C.3   232  ILE232      0.0290
     84  CG1       27.2950   18.3090    9.2720 C.3   232  ILE232      0.0022
     85  CG2       25.8280   20.5560    9.2840 C.3   232  ILE232      0.0023
     86  CD1       27.8120   18.3550   10.6790 C.3   232  ILE232      0.0001
     87  N         25.4050   20.7910    5.4940 N.am  233  SER233     -0.1936
     88  CA        24.7800   21.9310    4.8410 C.3   233  SER233      0.2055
     89  C         24.6230   23.1550    5.6980 C.2   233  SER233      0.2643
     90  O         25.2540   24.1530    5.5180 O.2   233  SER233     -0.2714
     91  CB        23.3750   21.5150    4.4960 C.3   233  SER233      0.2130
     92  OG        23.1840   21.8720    3.1660 O.3   233  SER233     -0.2179
     93  N         23.7310   23.0620    6.6420 N.am  234  SER234     -0.1949
     94  CA        23.3860   24.0960    7.5250 C.3   234  SER234      0.1924
     95  C         24.5620   24.8680    8.1270 C.2   234  SER234      0.2314
     96  O         25.3520   24.3400    8.8690 O.2   234  SER234     -0.2863
     97  CB        22.5680   23.4040    8.5650 C.3   234  SER234      0.2116
     98  OG        22.5550   24.2020    9.6980 O.3   234  SER234     -0.2180
     99  N         23.7700   24.9380   12.5350 N.3   237  ALA237     -0.1245
    100  CA        24.2590   23.5730   12.9100 C.3   237  ALA237      0.1562
    101  C         25.8130   23.3170   12.7930 C.2   237  ALA237      0.2260
    102  O         26.4340   22.8350   13.7120 O.2   237  ALA237     -0.2867
    103  CB        23.4600   22.5110   12.1440 C.3   237  ALA237      0.0290
    104  N         27.6050   22.5760   16.4530 N.3   241  ILE241     -0.1245
    105  CA        28.4510   21.3860   16.6240 C.3   241  ILE241      0.1561
    106  C         29.9370   21.7000   16.8600 C.2   241  ILE241      0.2260
    107  O         30.5750   21.2350   17.8280 O.2   241  ILE241     -0.2867
    108  CB        28.3340   20.4970   15.3270 C.3   241  ILE241      0.0252
    109  CG1       27.0830   19.6070   15.3630 C.3   241  ILE241      0.0019
    110  CG2       29.6230   19.7140   15.0230 C.3   241  ILE241      0.0019
    111  CD1       27.0140   18.6440   16.5120 C.3   241  ILE241      0.0001
    112  N         27.5810    8.2430   15.1290 N.3   273  LEU273     -0.1231
    113  CA        27.1140    9.6710   14.8590 C.3   273  LEU273      0.1693
    114  C         26.6810    9.8930   13.4240 C.2   273  LEU273      0.2592
    115  O         25.5500   10.2690   13.1030 O.2   273  LEU273     -0.2718
    116  CB        28.2320   10.6320   15.2020 C.3   273  LEU273      0.0284
    117  CG        27.7830   11.9780   15.7160 C.3   273  LEU273      0.0019
    118  CD1       26.5130   11.9120   16.3700 C.3   273  LEU273      0.0001
    119  CD2       28.8540   12.5540   16.6100 C.3   273  LEU273      0.0001
    120  N         27.5730    9.5420   12.5230 N.am  274  ASP274     -0.1960
    121  CA        27.3100    9.7520   11.1160 C.3   274  ASP274      0.1840
    122  C         26.2260    8.7910   10.6650 C.2   274  ASP274      0.2622
    123  O         26.4790    7.6210   10.4470 O.2   274  ASP274     -0.2715
    124  CB        28.6100    9.6150   10.3290 C.3   274  ASP274      0.1450
    125  CG        28.4280    9.7530    8.8520 C.2   274  ASP274      0.3671
    126  OD1       27.2980    9.7200    8.2900 O.co2 274  ASP274     -0.2456
    127  OD2       29.4670    9.8300    8.1700 O.co2 274  ASP274     -0.2456
    128  N         25.0650    9.3250   10.3750 N.am  275  SER275     -0.1950
    129  CA        24.0030    8.5170    9.9480 C.3   275  SER275      0.1924
    130  C         24.2620    7.7400    8.7090 C.2   275  SER275      0.2314
    131  O         23.6180    6.7260    8.4740 O.2   275  SER275     -0.2863
    132  CB        22.7690    9.3670    9.8720 C.3   275  SER275      0.2116
    133  OG        22.5590   10.0140    8.6440 O.3   275  SER275     -0.2180
@<TRIPOS>BOND
     1    92    91    1
     2    75    74    1
     3    75    76    1
     4    91    88    1
     5    77    76    1
     6    77    78    1
     7    88    87    1
     8    88    89    1
     9    71    74    1
    10    71    72    1
    11    71    70    1
    12    73    72    2
    13    72    79   am
    14    87    81   am
    15    90    89    2
    16    89    93   am
    17    36    38   ar
    18    36    34   ar
    19    81    82    2
    20    81    80    1
    21    38    37   ar
    22    33    34   ar
    23    33    31   ar
    24    79    80    1
    25    93    94    1
    26    34    32   ar
    27    80    83    1
    28    94    95    1
    29    94    97    1
    30    31    30   ar
    31    37    35   ar
    32    32    35   ar
    33    32    30   ar
    34    95    96    2
    35   127   125   ar
    36   126   125   ar
    37    65    64    2
    38   131   130    2
    39    62    63    1
    40    97    98    1
    41    30    29    1
    42    83    84    1
    43    83    85    1
    44   133   132    1
    45   130   129    1
    46    64    63    1
    47    63    66    1
    48   125   124    1
    49    84    86    1
    50    27    28    2
    51    27    26    1
    52    68    67    1
    53   132   129    1
    54    29    26    1
    55   129   128    1
    56    26    25    1
    57    66    67    1
    58   124   121    1
    59   128   122   am
    60   123   122    2
    61    67    69    1
    62   122   121    1
    63   121   120    1
    64    15    14   ar
    65   103   100    1
    66    13    12    1
    67    13    14    1
    68    12     9    1
    69   120   114   am
    70    99   100    1
    71    14    16   ar
    72   101   100    1
    73   101   102    2
    74    11    10    2
    75   115   114    2
    76   114   113    1
    77    20    19    2
    78     9    10    1
    79     9     8    1
    80    59    56    1
    81    59    60    1
    82    57    58    2
    83    57    56    1
    84    19    18    1
    85    21    18    1
    86    21    22    1
    87    56    55    1
    88   113   112    1
    89   113   116    1
    90     8     3   am
    91    60    61    1
    92   110   108    1
    93   116   117    1
    94    23    22    1
    95   108   109    1
    96   108   105    1
    97   109   111    1
    98    18    17    1
    99   117   118    1
   100   117   119    1
   101    22    24    1
   102     3     4    2
   103     3     2    1
   104    55    61    1
   105   104   105    1
   106     6     7    1
   107     6     5    1
   108   105   106    1
   109   106   107    2
   110     7     1    1
   111     1     2    1
   112     5     2    1
   113    54    52    1
   114    45    44    1
   115    46    44    1
   116    44    43    1
   117    53    52    1
   118    52    51    1
   119    43    40    1
   120    51    48    1
   121    48    47    1
   122    48    49    1
   123    40    41    1
   124    40    39    1
   125    50    49    2
   126    42    41    2
