@<TRIPOS>MOLECULE
tmp/3nexB00.pdb
 86 78 0 0 0
SMALL
GASTEIGER

@<TRIPOS>ATOM
      1  N          2.4840  -11.0190   32.7220 N.3     4  MET4       -0.1245
      2  CA         1.2550  -10.2470   32.8350 C.3     4  MET4        0.1570
      3  C          0.8010   -9.8910   31.4240 C.2     4  MET4        0.2261
      4  O          1.6330   -9.7040   30.5320 O.2     4  MET4       -0.2867
      5  CB         1.4880   -8.9600   33.6500 C.3     4  MET4        0.0387
      6  CG         0.1870   -8.2820   34.0740 C.3     4  MET4        0.0595
      7  SD        -0.3850   -6.9600   32.9700 S.3     4  MET4       -0.1393
      8  CE         0.3800   -5.5780   33.7940 C.3     4  MET4        0.0692
      9  N         -1.8670   -7.1790   29.3850 N.3     6  LYS6       -0.1245
     10  CA        -2.6880   -5.9930   29.4730 C.3     6  LYS6        0.1561
     11  C         -3.3310   -5.7390   28.1090 C.2     6  LYS6        0.2260
     12  O         -2.6380   -5.6890   27.0800 O.2     6  LYS6       -0.2867
     13  CB        -1.8420   -4.7840   29.8890 C.3     6  LYS6        0.0271
     14  CG        -2.5810   -3.4480   29.8390 C.3     6  LYS6        0.0035
     15  CD        -3.1920   -3.1190   31.1460 C.3     6  LYS6        0.0206
     16  CE        -3.8360   -1.7030   31.1570 C.3     6  LYS6        0.1093
     17  NZ        -4.4660   -1.4460   32.4660 N.3     6  LYS6       -0.1314
     18  N         -6.1160   -3.4210   25.7800 N.3     8  LEU8       -0.1245
     19  CA        -6.9090   -2.2030   25.5990 C.3     8  LEU8        0.1561
     20  C         -7.8110   -2.3050   24.3790 C.2     8  LEU8        0.2260
     21  O         -7.5130   -3.0370   23.4110 O.2     8  LEU8       -0.2867
     22  CB        -5.9970   -0.9750   25.4660 C.3     8  LEU8        0.0270
     23  CG        -5.0540   -0.6730   26.6400 C.3     8  LEU8        0.0019
     24  CD1       -4.2590    0.6150   26.3110 C.3     8  LEU8        0.0001
     25  CD2       -5.8470   -0.5580   27.9460 C.3     8  LEU8        0.0001
     26  N         -6.3570   -6.3550   32.7540 N.3    45  GLU45      -0.1245
     27  CA        -5.1240   -7.0370   33.1470 C.3    45  GLU45       0.1567
     28  C         -5.3810   -8.4630   33.5290 C.2    45  GLU45       0.2260
     29  O         -6.4320   -8.7950   34.0840 O.2    45  GLU45      -0.2867
     30  CB        -4.4500   -6.3100   34.3160 C.3    45  GLU45       0.0388
     31  CG        -3.9230   -4.9470   33.9050 C.3    45  GLU45       0.1160
     32  CD        -3.3820   -4.1170   35.0580 C.2    45  GLU45       0.3649
     33  OE1       -3.1620   -4.6630   36.1610 O.co2  45  GLU45      -0.2457
     34  OE2       -3.1850   -2.9030   34.8600 O.co2  45  GLU45      -0.2457
     35  N          5.5820   -8.2910   30.3160 N.3    97  THR97      -0.1218
     36  CA         4.2370   -7.7550   30.1430 C.3    97  THR97       0.1862
     37  C          3.9370   -7.8250   28.6620 C.2    97  THR97       0.2287
     38  O          4.6890   -7.2770   27.8400 O.2    97  THR97      -0.2866
     39  CB         4.1430   -6.2900   30.6500 C.3    97  THR97       0.1770
     40  OG1        4.3680   -6.2710   32.0680 O.3    97  THR97      -0.2211
     41  CG2        2.7630   -5.6720   30.3610 C.3    97  THR97       0.0375
     42  N          1.4530   -6.4530   26.0310 N.3    99  ALA99      -0.1231
     43  CA         0.4350   -5.4000   25.8680 C.3    99  ALA99       0.1694
     44  C         -0.2370   -5.5920   24.5200 C.2    99  ALA99       0.2592
     45  O          0.4530   -5.7550   23.5160 O.2    99  ALA99      -0.2718
     46  CB         1.0810   -4.0280   25.9390 C.3    99  ALA99       0.0304
     47  N         -1.5610   -5.5750   24.4820 N.am  100  ALA100     -0.1966
     48  CA        -2.2890   -5.7300   23.2280 C.3   100  ALA100      0.1728
     49  C         -3.3180   -4.6080   23.1000 C.2   100  ALA100      0.2616
     50  O         -3.9650   -4.2080   24.0940 O.2   100  ALA100     -0.2715
     51  CB        -2.9780   -7.1120   23.1450 C.3   100  ALA100      0.0334
     52  N         -3.3940   -4.0530   21.8960 N.am  101  LEU101     -0.1977
     53  CA        -4.3700   -3.0410   21.5500 C.3   101  LEU101      0.1596
     54  C         -5.2770   -3.5980   20.4930 C.2   101  LEU101      0.2287
     55  O         -4.7990   -4.0100   19.4280 O.2   101  LEU101     -0.2864
     56  CB        -3.6590   -1.7850   21.0350 C.3   101  LEU101      0.0297
     57  CG        -4.6130   -0.6510   20.6530 C.3   101  LEU101      0.0022
     58  CD1       -5.4310   -0.1310   21.8640 C.3   101  LEU101      0.0001
     59  CD2       -3.8010    0.4490   20.0110 C.3   101  LEU101      0.0001
     60  N         -2.4430   -4.9200   17.6710 N.3   108  SER108     -0.1202
     61  CA        -1.0360   -4.7090   17.8510 C.3   108  SER108      0.2020
     62  C         -0.6590   -5.4060   19.1450 C.2   108  SER108      0.2619
     63  O         -1.4570   -5.4220   20.0960 O.2   108  SER108     -0.2717
     64  CB        -0.7660   -3.1980   17.9160 C.3   108  SER108      0.2103
     65  OG        -1.3450   -2.5170   16.7950 O.3   108  SER108     -0.2182
     66  N          0.5530   -5.9320   19.1940 N.am  109  THR109     -0.1938
     67  CA         1.0560   -6.4860   20.4200 C.3   109  THR109      0.2028
     68  C          2.5050   -6.1040   20.6470 C.2   109  THR109      0.2642
     69  O          3.3020   -6.0410   19.7020 O.2   109  THR109     -0.2714
     70  CB         0.8520   -7.9950   20.5110 C.3   109  THR109      0.1808
     71  OG1        1.2140   -8.4110   21.8170 O.3   109  THR109     -0.2208
     72  CG2        1.6730   -8.8180   19.4410 C.3   109  THR109      0.0379
     73  N          2.8330   -5.8350   21.9030 N.am  110  THR110     -0.1950
     74  CA         4.1290   -5.3480   22.2650 C.3   110  THR110      0.1897
     75  C          4.5820   -6.0730   23.5240 C.2   110  THR110      0.2313
     76  O          3.7390   -6.4750   24.3170 O.2   110  THR110     -0.2863
     77  CB         4.0030   -3.8480   22.5090 C.3   110  THR110      0.1794
     78  OG1        3.4990   -3.2460   21.3080 O.3   110  THR110     -0.2208
     79  CG2        5.3370   -3.2540   22.8610 C.3   110  THR110      0.0378
     80  N          7.0430   -5.8420   27.0030 N.3   112  VAL112     -0.1245
     81  CA         7.9030   -5.0760   27.9190 C.3   112  VAL112      0.1561
     82  C          8.6330   -6.1230   28.7480 C.2   112  VAL112      0.2260
     83  O          8.0090   -6.9230   29.4780 O.2   112  VAL112     -0.2867
     84  CB         7.0790   -4.1460   28.8280 C.3   112  VAL112      0.0252
     85  CG1        7.9980   -3.2430   29.6120 C.3   112  VAL112      0.0019
     86  CG2        6.1160   -3.3160   28.0060 C.3   112  VAL112      0.0019
@<TRIPOS>BOND
     1    65    64    1
     2    60    61    1
     3    61    64    1
     4    61    62    1
     5    62    66   am
     6    62    63    2
     7    66    67    1
     8    55    54    2
     9    72    70    1
    10    69    68    2
    11    59    57    1
    12    67    70    1
    13    67    68    1
    14    54    53    1
    15    70    71    1
    16    68    73   am
    17    57    56    1
    18    57    58    1
    19    56    53    1
    20    78    77    1
    21    53    52    1
    22    52    49   am
    23    73    74    1
    24    74    77    1
    25    74    75    1
    26    77    79    1
    27    49    48    1
    28    49    50    2
    29    51    48    1
    30    48    47    1
    31    21    20    2
    32    45    44    2
    33    75    76    2
    34    20    19    1
    35    47    44   am
    36    44    43    1
    37    22    19    1
    38    22    23    1
    39    19    18    1
    40    43    46    1
    41    43    42    1
    42    24    23    1
    43    23    25    1
    44    80    81    1
    45    12    11    2
    46    38    37    2
    47    81    82    1
    48    81    84    1
    49    86    84    1
    50    11    10    1
    51    37    36    1
    52    82    83    2
    53    84    85    1
    54     9    10    1
    55    10    13    1
    56    14    13    1
    57    14    15    1
    58    36    35    1
    59    36    39    1
    60    41    39    1
    61     4     3    2
    62    39    40    1
    63    15    16    1
    64    16    17    1
    65     3     2    1
    66     1     2    1
    67    26    27    1
    68     2     5    1
    69     7     8    1
    70     7     6    1
    71    27    28    1
    72    27    30    1
    73    28    29    2
    74     5     6    1
    75    31    30    1
    76    31    32    1
    77    34    32   ar
    78    32    33   ar
