@<TRIPOS>MOLECULE
tmp/3nf3A00.pdb
 237 232 0 0 0
SMALL
GASTEIGER

@<TRIPOS>ATOM
      1  N         31.1040   38.9660   -1.9610 N.3    63  LYS63      -0.1245
      2  CA        30.9010   40.1690   -1.1680 C.3    63  LYS63       0.1561
      3  C         31.8220   40.1330    0.0440 C.2    63  LYS63       0.2260
      4  O         32.4160   39.1020    0.3510 O.2    63  LYS63      -0.2867
      5  CB        29.4340   40.3050   -0.7590 C.3    63  LYS63       0.0271
      6  CG        28.4920   40.3480   -1.9510 C.3    63  LYS63       0.0035
      7  CD        27.0400   40.3540   -1.5240 C.3    63  LYS63       0.0206
      8  CE        26.6380   41.6940   -0.9280 C.3    63  LYS63       0.1093
      9  NZ        25.1840   41.7330   -0.5850 N.3    63  LYS63      -0.1314
     10  N         30.4430   42.8500    6.2880 N.3    66  PRO66      -0.2102
     11  CA        29.8060   41.7750    7.0520 C.3    66  PRO66       0.1504
     12  C         28.6380   41.1110    6.3240 C.2    66  PRO66       0.2575
     13  O         27.7600   40.5460    6.9860 O.2    66  PRO66      -0.2718
     14  CB        29.2650   42.5240    8.2650 C.3    66  PRO66       0.0282
     15  CG        28.8440   43.8510    7.6910 C.3    66  PRO66       0.0208
     16  CD        29.7520   44.1340    6.5020 C.3    66  PRO66       0.0893
     17  N         28.6090   41.1840    4.9970 N.am   67  VAL67      -0.1980
     18  CA        27.5730   40.4880    4.2360 C.3    67  VAL67       0.1595
     19  C         27.9220   39.0110    4.0960 C.2    67  VAL67       0.2287
     20  O         27.1220   38.1400    4.4230 O.2    67  VAL67      -0.2864
     21  CB        27.3910   41.0700    2.8230 C.3    67  VAL67       0.0276
     22  CG1       26.4090   40.2090    2.0370 C.3    67  VAL67       0.0022
     23  CG2       26.9230   42.5210    2.8900 C.3    67  VAL67       0.0022
     24  N         28.2530   32.7470    6.5460 N.3   158  ILE158     -0.1231
     25  CA        27.1500   33.4580    7.1890 C.3   158  ILE158      0.1692
     26  C         25.9330   33.6100    6.2780 C.2   158  ILE158      0.2592
     27  O         25.0510   34.4260    6.5280 O.2   158  ILE158     -0.2718
     28  CB        27.5810   34.8350    7.7500 C.3   158  ILE158      0.0266
     29  CG1       28.1500   35.7290    6.6480 C.3   158  ILE158      0.0019
     30  CG2       28.6090   34.6630    8.8520 C.3   158  ILE158      0.0020
     31  CD1       28.6230   37.0810    7.1610 C.3   158  ILE158      0.0001
     32  N         25.8930   32.8120    5.2210 N.am  159  GLN159     -0.1966
     33  CA        24.7010   32.7260    4.4020 C.3   159  GLN159      0.1733
     34  C         23.7280   31.7210    5.0350 C.2   159  GLN159      0.2616
     35  O         23.4930   30.6460    4.4910 O.2   159  GLN159     -0.2715
     36  CB        25.0650   32.3090    2.9740 C.3   159  GLN159      0.0408
     37  CG        23.9160   32.4380    1.9920 C.3   159  GLN159      0.0908
     38  CD        24.1790   31.7290    0.6770 C.2   159  GLN159      0.2608
     39  OE1       24.6520   30.5910    0.6500 O.2   159  GLN159     -0.2717
     40  NE2       23.8600   32.3980   -0.4250 N.am  159  GLN159     -0.0878
     41  N         23.1830   32.0720    6.1960 N.am  160  PHE160     -0.1960
     42  CA        22.1770   31.2490    6.8660 C.3   160  PHE160      0.1771
     43  C         20.8780   31.2200    6.0590 C.2   160  PHE160      0.2619
     44  O         20.4480   32.2500    5.5410 O.2   160  PHE160     -0.2715
     45  CB        21.8840   31.7970    8.2660 C.3   160  PHE160      0.0574
     46  CG        23.0910   31.8750    9.1590 C.ar  160  PHE160     -0.0200
     47  CD1       24.2580   31.1940    8.8400 C.ar  160  PHE160     -0.0042
     48  CD2       23.0540   32.6160   10.3270 C.ar  160  PHE160     -0.0042
     49  CE1       25.3690   31.2620    9.6670 C.ar  160  PHE160     -0.0003
     50  CE2       24.1620   32.6880   11.1610 C.ar  160  PHE160     -0.0003
     51  CZ        25.3180   32.0110   10.8300 C.ar  160  PHE160     -0.0000
     52  N         20.2470   30.0530    5.9580 N.am  161  GLU161     -0.1963
     53  CA        19.0160   29.9390    5.1800 C.3   161  GLU161      0.1733
     54  C         18.3860   28.5560    5.2550 C.2   161  GLU161      0.2616
     55  O         19.0550   27.5740    5.5640 O.2   161  GLU161     -0.2715
     56  CB        19.2940   30.2580    3.7160 C.3   161  GLU161      0.0429
     57  CG        20.1090   29.1860    3.0250 C.3   161  GLU161      0.1163
     58  CD        20.5570   29.6040    1.6450 C.2   161  GLU161      0.3649
     59  OE1       19.6920   30.0000    0.8360 O.co2 161  GLU161     -0.2457
     60  OE2       21.7760   29.5370    1.3720 O.co2 161  GLU161     -0.2457
     61  N         17.0910   28.4940    4.9590 N.am  162  CYS162     -0.1954
     62  CA        16.3790   27.2300    4.8420 C.3   162  CYS162      0.1843
     63  C         16.3750   26.7430    3.4060 C.2   162  CYS162      0.2625
     64  O         15.9560   27.4600    2.5020 O.2   162  CYS162     -0.2714
     65  CB        14.9320   27.3800    5.3020 C.3   162  CYS162      0.0997
     66  SG        14.7280   27.4660    7.0640 S.3   162  CYS162     -0.0797
     67  N         16.8340   25.5170    3.2010 N.am  163  LYS163     -0.1977
     68  CA        16.7890   24.9030    1.8850 C.3   163  LYS163      0.1596
     69  C         16.0600   23.5760    1.9700 C.2   163  LYS163      0.2287
     70  O         16.1140   22.8970    2.9920 O.2   163  LYS163     -0.2864
     71  CB        18.1980   24.6790    1.3440 C.3   163  LYS163      0.0298
     72  CG        18.9740   25.9520    1.0750 C.3   163  LYS163      0.0038
     73  CD        20.0800   25.6740    0.0790 C.3   163  LYS163      0.0206
     74  CE        20.8470   24.4250    0.4810 C.3   163  LYS163      0.1093
     75  NZ        21.6500   23.8640   -0.6400 N.3   163  LYS163     -0.1314
     76  N         26.4440   38.5460   14.4740 N.3   191  PHE191     -0.1241
     77  CA        26.5350   39.8230   13.7890 C.3   191  PHE191      0.1605
     78  C         26.3930   40.9970   14.7360 C.2   191  PHE191      0.2264
     79  O         25.6440   40.9350   15.7100 O.2   191  PHE191     -0.2867
     80  CB        25.4620   39.8990   12.7040 C.3   191  PHE191      0.0534
     81  CG        25.3610   38.6530   11.8860 C.ar  191  PHE191     -0.0203
     82  CD1       24.4590   37.6540   12.2310 C.ar  191  PHE191     -0.0042
     83  CD2       26.1930   38.4570   10.7930 C.ar  191  PHE191     -0.0042
     84  CE1       24.3760   36.4870   11.4840 C.ar  191  PHE191     -0.0003
     85  CE2       26.1140   37.2950   10.0380 C.ar  191  PHE191     -0.0003
     86  CZ        25.2070   36.3060   10.3870 C.ar  191  PHE191     -0.0000
     87  N         18.8720   34.2290   15.8640 N.3   205  THR205     -0.1218
     88  CA        19.1710   33.9670   14.4610 C.3   205  THR205      0.1862
     89  C         18.7080   32.5690   14.0510 C.2   205  THR205      0.2287
     90  O         18.2390   32.3700   12.9340 O.2   205  THR205     -0.2866
     91  CB        20.6810   34.1540   14.1580 C.3   205  THR205      0.1770
     92  OG1       21.1020   35.4380   14.6220 O.3   205  THR205     -0.2211
     93  CG2       20.9530   34.0710   12.6700 C.3   205  THR205      0.0375
     94  N         14.7860   32.5800   13.9140 N.3   208  HIS208     -0.1226
     95  CA        14.4340   33.1560   12.6310 C.3   208  HIS208      0.1752
     96  C         14.3320   32.0400   11.5900 C.2   208  HIS208      0.2595
     97  O         13.3060   31.8940   10.9300 O.2   208  HIS208     -0.2718
     98  CB        15.4800   34.2000   12.2190 C.3   208  HIS208      0.0759
     99  CG        15.1840   34.8720   10.9150 C.ar  208  HIS208      0.0818
    100  ND1       14.5500   36.0940   10.8340 N.ar  208  HIS208     -0.2268
    101  CD2       15.4300   34.4900    9.6400 C.ar  208  HIS208      0.1154
    102  CE1       14.4180   36.4350    9.5650 C.ar  208  HIS208      0.1986
    103  NE2       14.9440   35.4790    8.8210 N.ar  208  HIS208     -0.2212
    104  N         15.3880   31.2390   11.4620 N.am  209  GLU209     -0.1979
    105  CA        15.3940   30.1510   10.4830 C.3   209  GLU209      0.1602
    106  C         14.3590   29.0690   10.7990 C.2   209  GLU209      0.2287
    107  O         13.7250   28.5160    9.8950 O.2   209  GLU209     -0.2864
    108  CB        16.7890   29.5410   10.3430 C.3   209  GLU209      0.0415
    109  CG        17.8220   30.5040    9.7840 C.3   209  GLU209      0.1163
    110  CD        17.3880   31.1250    8.4650 C.2   209  GLU209      0.3649
    111  OE1       16.7140   30.4350    7.6720 O.co2 209  GLU209     -0.2457
    112  OE2       17.7230   32.3050    8.2260 O.co2 209  GLU209     -0.2457
    113  N         11.0600   30.1400    9.4140 N.3   212  HIS212     -0.1241
    114  CA        10.9530   29.8610    7.9910 C.3   212  HIS212      0.1621
    115  C         10.6120   28.3890    7.8310 C.2   212  HIS212      0.2264
    116  O          9.6790   28.0300    7.1110 O.2   212  HIS212     -0.2867
    117  CB        12.2590   30.1670    7.2690 C.3   212  HIS212      0.0745
    118  CG        12.4940   31.6250    7.0350 C.ar  212  HIS212      0.0817
    119  ND1       11.5040   32.4750    6.5900 N.ar  212  HIS212     -0.2268
    120  CD2       13.6100   32.3800    7.1570 C.ar  212  HIS212      0.1154
    121  CE1       11.9980   33.6930    6.4590 C.ar  212  HIS212      0.1986
    122  NE2       13.2740   33.6630    6.7980 N.ar  212  HIS212     -0.2212
    123  N          7.5640   26.3640    5.9020 N.3   216  ARG216     -0.1245
    124  CA         7.8390   25.4350    4.8150 C.3   216  ARG216      0.1563
    125  C          7.3800   24.0200    5.1390 C.2   216  ARG216      0.2260
    126  O          6.9920   23.2660    4.2510 O.2   216  ARG216     -0.2867
    127  CB         9.3310   25.4440    4.4990 C.3   216  ARG216      0.0307
    128  CG         9.8470   26.8120    4.0790 C.3   216  ARG216      0.0489
    129  CD        11.3470   26.7830    3.8180 C.3   216  ARG216      0.2205
    130  NE        11.6920   27.6510    2.7020 N.pl3 216  ARG216     -0.0865
    131  CZ        12.1330   27.2210    1.5270 C.cat 216  ARG216      0.5346
    132  NH1       12.3090   25.9250    1.3150 N.pl3 216  ARG216      0.1354
    133  NH2       12.4110   28.0920    0.5690 N.pl3 216  ARG216      0.1354
    134  N          9.0740   33.6960   -2.8320 N.3   224  PRO224     -0.2116
    135  CA        10.0540   34.7730   -2.6390 C.3   224  PRO224      0.1372
    136  C          9.8950   35.8770   -3.6800 C.2   224  PRO224      0.2244
    137  O         10.4350   36.9720   -3.5050 O.2   224  PRO224     -0.2868
    138  CB        11.4000   34.0680   -2.8410 C.3   224  PRO224      0.0268
    139  CG        11.1190   32.6190   -2.6480 C.3   224  PRO224      0.0207
    140  CD         9.7190   32.4030   -3.1130 C.3   224  PRO224      0.0892
    141  N         12.7450   50.0290   -1.6450 N.3   232  LEU232     -0.1231
    142  CA        13.4260   48.7410   -1.5470 C.3   232  LEU232      0.1693
    143  C         12.4050   47.6110   -1.4950 C.2   232  LEU232      0.2592
    144  O         11.3290   47.7660   -0.9200 O.2   232  LEU232     -0.2718
    145  CB        14.3170   48.7020   -0.3060 C.3   232  LEU232      0.0284
    146  CG        15.6820   48.0330   -0.4650 C.3   232  LEU232      0.0019
    147  CD1       16.4860   48.1540    0.8210 C.3   232  LEU232      0.0001
    148  CD2       15.5320   46.5760   -0.8760 C.3   232  LEU232      0.0001
    149  N         12.7320   46.4750   -2.1000 N.am  233  GLU233     -0.1966
    150  CA        11.7770   45.3710   -2.1520 C.3   233  GLU233      0.1733
    151  C         12.1950   44.1840   -1.2910 C.2   233  GLU233      0.2616
    152  O         13.2860   43.6340   -1.4450 O.2   233  GLU233     -0.2715
    153  CB        11.5090   44.9410   -3.5960 C.3   233  GLU233      0.0429
    154  CG        10.6830   45.9510   -4.3840 C.3   233  GLU233      0.1163
    155  CD        10.3940   45.5050   -5.8070 C.2   233  GLU233      0.3649
    156  OE1        9.3620   45.9350   -6.3640 O.co2 233  GLU233     -0.2457
    157  OE2       11.1930   44.7250   -6.3700 O.co2 233  GLU233     -0.2457
    158  N         11.3100   43.8070   -0.3750 N.am  234  VAL234     -0.1963
    159  CA        11.5600   42.7010    0.5320 C.3   234  VAL234      0.1727
    160  C         10.4440   41.6820    0.3740 C.2   234  VAL234      0.2616
    161  O          9.2940   42.0510    0.1500 O.2   234  VAL234     -0.2715
    162  CB        11.6200   43.1880    1.9910 C.3   234  VAL234      0.0290
    163  CG1       11.8200   42.0190    2.9420 C.3   234  VAL234      0.0023
    164  CG2       12.7370   44.1990    2.1520 C.3   234  VAL234      0.0023
    165  N         10.7800   40.4010    0.4860 N.am  235  SER235     -0.1950
    166  CA         9.7840   39.3520    0.3120 C.3   235  SER235      0.1924
    167  C          8.7720   39.3080    1.4620 C.2   235  SER235      0.2314
    168  O          9.1180   39.4890    2.6320 O.2   235  SER235     -0.2863
    169  CB        10.4540   37.9850    0.1360 C.3   235  SER235      0.2116
    170  OG        10.8850   37.4640    1.3800 O.3   235  SER235     -0.2180
    171  N          9.8360   37.1360    4.4480 N.3   238  GLU238     -0.1245
    172  CA        10.7690   37.6500    5.4560 C.3   238  GLU238      0.1567
    173  C         10.1130   38.6660    6.3920 C.2   238  GLU238      0.2260
    174  O         10.2750   38.6050    7.6110 O.2   238  GLU238     -0.2867
    175  CB        12.0040   38.2740    4.7950 C.3   238  GLU238      0.0388
    176  CG        12.8830   37.2890    4.0400 C.3   238  GLU238      0.1160
    177  CD        13.7120   36.4090    4.9640 C.2   238  GLU238      0.3649
    178  OE1       13.7230   36.6620    6.1940 O.co2 238  GLU238     -0.2457
    179  OE2       14.3510   35.4610    4.4570 O.co2 238  GLU238     -0.2457
    180  N         17.8160   43.9130   16.5910 N.3   338  ARG338     -0.1245
    181  CA        17.3060   44.8940   15.6380 C.3   338  ARG338      0.1563
    182  C         15.7840   44.9820   15.7710 C.2   338  ARG338      0.2260
    183  O         15.1150   43.9660   15.9470 O.2   338  ARG338     -0.2867
    184  CB        17.6860   44.4980   14.2110 C.3   338  ARG338      0.0307
    185  CG        17.1250   43.1480   13.7730 C.3   338  ARG338      0.0489
    186  CD        17.5490   42.8010   12.3560 C.3   338  ARG338      0.2205
    187  NE        16.8950   41.5920   11.8610 N.pl3 338  ARG338     -0.0865
    188  CZ        17.5140   40.4310   11.6760 C.cat 338  ARG338      0.5346
    189  NH1       16.8400   39.3810   11.2150 N.pl3 338  ARG338      0.1354
    190  NH2       18.8100   40.3250   11.9440 N.pl3 338  ARG338      0.1354
    191  N         13.6150   44.2530   10.2820 N.3   341  TYR341     -0.1227
    192  CA        14.3640   43.3370    9.4380 C.3   341  TYR341      0.1736
    193  C         15.3050   44.1120    8.5200 C.2   341  TYR341      0.2595
    194  O         16.3710   43.6220    8.1440 O.2   341  TYR341     -0.2718
    195  CB        13.4060   42.4900    8.6060 C.3   341  TYR341      0.0548
    196  CG        14.0860   41.4810    7.7090 C.ar  341  TYR341     -0.0200
    197  CD1       13.9990   41.5830    6.3230 C.ar  341  TYR341     -0.0009
    198  CD2       14.8190   40.4240    8.2470 C.ar  341  TYR341     -0.0009
    199  CE1       14.6150   40.6560    5.4970 C.ar  341  TYR341      0.0417
    200  CE2       15.4440   39.4930    7.4300 C.ar  341  TYR341      0.0417
    201  CZ        15.3350   39.6130    6.0550 C.ar  341  TYR341      0.1957
    202  OH        15.9480   38.6910    5.2350 O.3   341  TYR341     -0.2866
    203  N         14.8930   45.3230    8.1590 N.am  342  LEU342     -0.1966
    204  CA        15.6580   46.1570    7.2410 C.3   342  LEU342      0.1728
    205  C         16.7470   46.8910    7.9950 C.2   342  LEU342      0.2616
    206  O         16.7790   48.1180    8.0340 O.2   342  LEU342     -0.2715
    207  CB        14.7510   47.1650    6.5390 C.3   342  LEU342      0.0311
    208  CG        13.6460   46.6000    5.6500 C.3   342  LEU342      0.0022
    209  CD1       12.5920   45.8940    6.4830 C.3   342  LEU342      0.0001
    210  CD2       13.0240   47.7260    4.8530 C.3   342  LEU342      0.0001
    211  N         17.6280   46.1150    8.6060 N.am  343  ASN343     -0.1958
    212  CA        18.7290   46.6420    9.3840 C.3   343  ASN343      0.1819
    213  C         19.9930   45.9440    8.9180 C.2   343  ASN343      0.2621
    214  O         20.0950   44.7180    8.9910 O.2   343  ASN343     -0.2715
    215  CB        18.4840   46.3700   10.8700 C.3   343  ASN343      0.1195
    216  CG        19.5910   46.9070   11.7570 C.2   343  ASN343      0.2630
    217  OD1       19.4250   47.9280   12.4260 O.2   343  ASN343     -0.2716
    218  ND2       20.7250   46.2150   11.7750 N.am  343  ASN343     -0.0877
    219  N         20.9470   46.7160    8.4150 N.am  344  PHE344     -0.1960
    220  CA        22.2020   46.1420    7.9510 C.3   344  PHE344      0.1771
    221  C         23.0830   45.7060    9.1060 C.2   344  PHE344      0.2619
    222  O         23.2950   46.4570   10.0550 O.2   344  PHE344     -0.2715
    223  CB        22.9670   47.1380    7.0840 C.3   344  PHE344      0.0574
    224  CG        22.4260   47.2650    5.6980 C.ar  344  PHE344     -0.0200
    225  CD1       22.7290   46.3190    4.7360 C.ar  344  PHE344     -0.0042
    226  CD2       21.6100   48.3280    5.3540 C.ar  344  PHE344     -0.0042
    227  CE1       22.2310   46.4310    3.4550 C.ar  344  PHE344     -0.0003
    228  CE2       21.1090   48.4460    4.0730 C.ar  344  PHE344     -0.0003
    229  CZ        21.4210   47.4960    3.1230 C.ar  344  PHE344     -0.0000
    230  N         23.5880   44.4830    9.0250 N.am  345  ASP345     -0.1971
    231  CA        24.6490   44.0700    9.9200 C.3   345  ASP345      0.1709
    232  C         25.8510   44.9530    9.6140 C.2   345  ASP345      0.2293
    233  O         26.1360   45.2490    8.4530 O.2   345  ASP345     -0.2864
    234  CB        24.9840   42.5940    9.7130 C.3   345  ASP345      0.1436
    235  CG        23.8430   41.6750   10.1210 C.2   345  ASP345      0.3671
    236  OD1       23.1320   41.9940   11.1010 O.co2 345  ASP345     -0.2456
    237  OD2       23.6580   40.6290    9.4660 O.co2 345  ASP345     -0.2456
@<TRIPOS>BOND
     1   157   155   ar
     2   156   155   ar
     3   155   154    1
     4   154   153    1
     5   136   137    2
     6   136   135    1
     7   153   150    1
     8   140   134    1
     9   140   139    1
    10   138   139    1
    11   138   135    1
    12   134   135    1
    13   150   149    1
    14   150   151    1
    15   149   143   am
    16     1     2    1
    17     6     7    1
    18     6     5    1
    19   141   142    1
    20   142   143    1
    21   142   145    1
    22     7     8    1
    23   143   144    2
    24   152   151    2
    25   151   158   am
    26     2     5    1
    27     2     3    1
    28     8     9    1
    29   148   146    1
    30    75    74    1
    31   146   145    1
    32   146   147    1
    33    40    38   am
    34   158   159    1
    35     3     4    2
    36    73    74    1
    37    73    72    1
    38   169   166    1
    39   169   170    1
    40   161   160    2
    41   166   165    1
    42   166   167    1
    43   160   165   am
    44   160   159    1
    45   159   162    1
    46   133   131    1
    47    39    38    2
    48    38    37    1
    49    59    58   ar
    50    72    71    1
    51   132   131    1
    52    71    68    1
    53    60    58   ar
    54   167   168    2
    55   131   130    2
    56    58    57    1
    57    68    69    1
    58    68    67    1
    59    69    70    2
    60   162   164    1
    61   162   163    1
    62    37    36    1
    63    22    21    1
    64    64    63    2
    65   130   129    1
    66    21    23    1
    67    21    18    1
    68    36    33    1
    69    57    56    1
    70   229   227   ar
    71   229   228   ar
    72    67    63   am
    73    63    62    1
    74   227   225   ar
    75    56    53    1
    76   129   128    1
    77   176   175    1
    78   176   177    1
    79   228   226   ar
    80   128   127    1
    81    19    18    1
    82    19    20    2
    83    18    17    1
    84   126   125    2
    85    33    34    1
    86    33    32    1
    87   171   172    1
    88   179   177   ar
    89    35    34    2
    90   127   124    1
    91   225   224   ar
    92   175   172    1
    93   124   125    1
    94   124   123    1
    95    62    61    1
    96    62    65    1
    97   210   208    1
    98    61    54   am
    99   177   178   ar
   100    17    12   am
   101    34    41   am
   102    53    54    1
   103    53    52    1
   104    32    26   am
   105   202   201    1
   106    54    55    2
   107    65    66    1
   108   226   224   ar
   109   172   173    1
   110   199   201   ar
   111   199   197   ar
   112    44    43    2
   113   208   209    1
   114   208   207    1
   115   224   223    1
   116    52    43   am
   117   201   200   ar
   118    43    42    1
   119    41    42    1
   120    26    27    2
   121    26    25    1
   122    10    16    1
   123    10    11    1
   124   197   196   ar
   125    12    13    2
   126    12    11    1
   127   173   174    2
   128   121   119   ar
   129   121   122   ar
   130    16    15    1
   131   207   204    1
   132    24    25    1
   133   119   118   ar
   134    29    31    1
   135    29    28    1
   136   122   120   ar
   137    42    45    1
   138   118   120   ar
   139   118   117    1
   140    11    14    1
   141   223   220    1
   142   116   115    2
   143    25    28    1
   144   204   205    1
   145   204   203    1
   146   117   114    1
   147   200   198   ar
   148   111   110   ar
   149    15    14    1
   150   196   198   ar
   151   196   195    1
   152    28    30    1
   153   115   114    1
   154   220   219    1
   155   220   221    1
   156   114   113    1
   157   205   206    2
   158   205   211   am
   159   194   193    2
   160   203   193   am
   161   112   110   ar
   162    45    46    1
   163   219   213   am
   164   233   232    2
   165   110   109    1
   166   193   192    1
   167   211   212    1
   168   195   192    1
   169   103   102   ar
   170   103   101   ar
   171    47    46   ar
   172    47    49   ar
   173   213   214    2
   174   213   212    1
   175   230   221   am
   176   230   231    1
   177   221   222    2
   178    46    48   ar
   179   212   215    1
   180   192   191    1
   181   237   235   ar
   182   102   100   ar
   183   232   231    1
   184   101    99   ar
   185    49    51   ar
   186   234   231    1
   187   234   235    1
   188   109   108    1
   189   107   106    2
   190    85    86   ar
   191    85    83   ar
   192   235   236   ar
   193    48    50   ar
   194   108   105    1
   195    86    84   ar
   196   105   106    1
   197   105   104    1
   198    83    81   ar
   199    51    50   ar
   200   100    99   ar
   201   215   216    1
   202    99    98    1
   203    97    96    2
   204   189   188    1
   205   104    96   am
   206    84    82   ar
   207    96    95    1
   208   188   187    2
   209   188   190    1
   210   216   218   am
   211   216   217    2
   212   187   186    1
   213    81    82   ar
   214    81    80    1
   215    98    95    1
   216   186   185    1
   217    95    94    1
   218    93    91    1
   219    80    77    1
   220    90    89    2
   221   185   184    1
   222    77    76    1
   223    77    78    1
   224    89    88    1
   225    91    88    1
   226    91    92    1
   227   184   181    1
   228    88    87    1
   229    78    79    2
   230   181   182    1
   231   181   180    1
   232   182   183    2
