@<TRIPOS>MOLECULE
tmp/3nf4A00.pdb
 209 203 0 0 0
SMALL
GASTEIGER

@<TRIPOS>ATOM
      1  N         45.0830   44.8740   75.1940 N.3    92  VAL92      -0.1245
      2  CA        44.6220   44.6290   76.5530 C.3    92  VAL92       0.1561
      3  C         45.0320   43.2320   77.0640 C.2    92  VAL92       0.2260
      4  O         45.4440   43.0800   78.2280 O.2    92  VAL92      -0.2867
      5  CB        43.0880   44.8910   76.6770 C.3    92  VAL92       0.0252
      6  CG1       42.4950   44.2700   77.9610 C.3    92  VAL92       0.0019
      7  CG2       42.8100   46.4130   76.6000 C.3    92  VAL92       0.0019
      8  N         41.5750   43.6570   81.9810 N.3   125  TYR125     -0.1227
      9  CA        42.3370   44.4360   82.9440 C.3   125  TYR125      0.1736
     10  C         41.3470   45.4300   83.5920 C.2   125  TYR125      0.2596
     11  O         40.6550   46.1620   82.8670 O.2   125  TYR125     -0.2718
     12  CB        43.4510   45.1500   82.1760 C.3   125  TYR125      0.0548
     13  CG        44.5200   45.8440   82.9950 C.ar  125  TYR125     -0.0200
     14  CD1       45.6210   45.1450   83.4740 C.ar  125  TYR125     -0.0009
     15  CD2       44.4640   47.2220   83.2300 C.ar  125  TYR125     -0.0009
     16  CE1       46.6240   45.7770   84.2160 C.ar  125  TYR125      0.0417
     17  CE2       45.4710   47.8720   83.9660 C.ar  125  TYR125      0.0417
     18  CZ        46.5450   47.1330   84.4550 C.ar  125  TYR125      0.1957
     19  OH        47.5410   47.7470   85.1770 O.3   125  TYR125     -0.2866
     20  N         41.2840   45.4450   84.9330 N.am  126  SER126     -0.1938
     21  CA        40.2570   46.1850   85.6760 C.3   126  SER126      0.2055
     22  C         40.7660   47.1070   86.7860 C.2   126  SER126      0.2643
     23  O         41.1040   46.6480   87.8960 O.2   126  SER126     -0.2714
     24  CB        39.2350   45.2160   86.2670 C.3   126  SER126      0.2130
     25  OG        38.1780   45.9460   86.8570 O.3   126  SER126     -0.2179
     26  N         40.7670   48.4110   86.5120 N.am  127  LEU127     -0.1963
     27  CA        41.3600   49.3800   87.4290 C.3   127  LEU127      0.1728
     28  C         40.4330   50.5660   87.7070 C.2   127  LEU127      0.2617
     29  O         40.2300   50.9380   88.8650 O.2   127  LEU127     -0.2715
     30  CB        42.7430   49.8330   86.9120 C.3   127  LEU127      0.0311
     31  CG        43.5850   50.8690   87.6690 C.3   127  LEU127      0.0022
     32  CD1       44.4440   50.2170   88.7160 C.3   127  LEU127      0.0001
     33  CD2       44.4910   51.6690   86.7350 C.3   127  LEU127      0.0001
     34  N         39.8680   51.1370   86.6420 N.am  128  SER128     -0.1936
     35  CA        38.9970   52.3050   86.7190 C.3   128  SER128      0.2055
     36  C         37.6570   52.0930   87.4620 C.2   128  SER128      0.2643
     37  O         37.0460   51.0250   87.3800 O.2   128  SER128     -0.2714
     38  CB        38.7110   52.8250   85.3060 C.3   128  SER128      0.2130
     39  OG        39.9040   53.1610   84.6230 O.3   128  SER128     -0.2179
     40  N         37.2170   53.1410   88.1630 N.am  129  GLU129     -0.1963
     41  CA        35.8930   53.2090   88.7990 C.3   129  GLU129      0.1718
     42  C         35.2130   54.5070   88.3320 C.2   129  GLU129      0.2458
     43  O         35.8710   55.3560   87.7360 O.2   129  GLU129     -0.2730
     44  CB        36.0130   53.1460   90.3410 C.3   129  GLU129      0.0428
     45  CG        36.6970   51.8660   90.8370 C.3   129  GLU129      0.1163
     46  CD        36.8570   51.7440   92.3660 C.2   129  GLU129      0.3649
     47  OE1       36.1060   52.3980   93.1430 O.co2 129  GLU129     -0.2457
     48  OE2       37.7300   50.9410   92.7860 O.co2 129  GLU129     -0.2457
     49  N         33.8990   54.6700   88.5980 N.am  130  PRO130     -0.2727
     50  CA        33.2290   55.9190   88.1420 C.3   130  PRO130      0.1402
     51  C         33.8450   57.2070   88.7320 C.2   130  PRO130      0.2269
     52  O         33.9780   58.2090   88.0220 O.2   130  PRO130     -0.2865
     53  CB        31.7760   55.7540   88.6070 C.3   130  PRO130      0.0296
     54  CG        31.6520   54.3000   89.1310 C.3   130  PRO130      0.0237
     55  CD        33.0320   53.8270   89.4520 C.3   130  PRO130      0.0939
     56  N         36.9470   57.6290   89.6050 N.3   132  ALA132     -0.1231
     57  CA        38.4020   57.4860   89.4900 C.3   132  ALA132      0.1694
     58  C         38.8380   56.8020   88.1820 C.2   132  ALA132      0.2593
     59  O         38.9010   55.5650   88.0830 O.2   132  ALA132     -0.2718
     60  CB        38.9650   56.7430   90.7300 C.3   132  ALA132      0.0304
     61  N         39.1170   57.6240   87.1730 N.am  133  GLY133     -0.1942
     62  CA        39.7500   57.1570   85.9380 C.3   133  GLY133      0.2014
     63  C         41.1880   57.6490   85.8920 C.2   133  GLY133      0.2640
     64  O         42.1250   56.8660   86.0910 O.2   133  GLY133     -0.2714
     65  N         41.3500   58.9520   85.6410 N.am  134  SER134     -0.1935
     66  CA        42.6610   59.6200   85.6780 C.3   134  SER134      0.2055
     67  C         43.3660   59.4440   87.0240 C.2   134  SER134      0.2643
     68  O         44.5730   59.1600   87.0630 O.2   134  SER134     -0.2714
     69  CB        42.5470   61.1280   85.3520 C.3   134  SER134      0.2130
     70  OG        42.0870   61.3770   84.0250 O.3   134  SER134     -0.2179
     71  N         42.6130   59.6120   88.1190 N.am  135  ASP135     -0.1971
     72  CA        43.1850   59.5290   89.4720 C.3   135  ASP135      0.1709
     73  C         43.0220   58.1200   90.0230 C.2   135  ASP135      0.2293
     74  O         41.9520   57.7650   90.5050 O.2   135  ASP135     -0.2864
     75  CB        42.5670   60.5780   90.4250 C.3   135  ASP135      0.1436
     76  CG        43.1460   60.5040   91.8640 C.2   135  ASP135      0.3671
     77  OD1       44.1840   59.8210   92.0980 O.co2 135  ASP135     -0.2456
     78  OD2       42.5530   61.1560   92.7580 O.co2 135  ASP135     -0.2456
     79  N         34.5000   49.9450   86.5450 N.3   157  SER157     -0.1202
     80  CA        33.9140   50.4060   85.2770 C.3   157  SER157      0.2020
     81  C         34.8560   50.4040   84.0740 C.2   157  SER157      0.2619
     82  O         36.0690   50.2130   84.2010 O.2   157  SER157     -0.2717
     83  CB        33.2430   51.7670   85.4460 C.3   157  SER157      0.2103
     84  OG        34.1270   52.6860   86.0240 O.3   157  SER157     -0.2182
     85  N         34.2810   50.5940   82.8960 N.am  158  TRP158     -0.1961
     86  CA        35.0380   50.6700   81.6450 C.3   158  TRP158      0.1771
     87  C         35.9120   49.4430   81.4160 C.2   158  TRP158      0.2619
     88  O         37.0670   49.5890   81.1180 O.2   158  TRP158     -0.2715
     89  CB        35.9140   51.9310   81.5810 C.3   158  TRP158      0.0590
     90  CG        35.2130   53.2510   81.9250 C.ar  158  TRP158      0.0006
     91  CD1       35.4670   54.0600   83.0080 C.ar  158  TRP158      0.0946
     92  CD2       34.1690   53.9050   81.1840 C.ar  158  TRP158      0.0152
     93  NE1       34.6370   55.1490   82.9940 N.ar  158  TRP158     -0.2442
     94  CE2       33.8300   55.0840   81.8920 C.ar  158  TRP158      0.0810
     95  CE3       33.4830   53.6050   80.0020 C.ar  158  TRP158      0.0012
     96  CZ2       32.8380   55.9710   81.4510 C.ar  158  TRP158      0.0191
     97  CZ3       32.4850   54.4900   79.5570 C.ar  158  TRP158      0.0001
     98  CH2       32.1760   55.6590   80.2830 C.ar  158  TRP158      0.0015
     99  N         35.3650   48.2390   81.5590 N.am  159  ILE159     -0.1963
    100  CA        36.1570   47.0290   81.3370 C.3   159  ILE159      0.1727
    101  C         36.0060   46.5240   79.8990 C.2   159  ILE159      0.2616
    102  O         34.9710   45.9730   79.5300 O.2   159  ILE159     -0.2715
    103  CB        35.7840   45.9150   82.3650 C.3   159  ILE159      0.0290
    104  CG1       35.9680   46.4360   83.8100 C.3   159  ILE159      0.0022
    105  CG2       36.5580   44.5980   82.0890 C.3   159  ILE159      0.0023
    106  CD1       35.4540   45.5220   84.8810 C.3   159  ILE159      0.0001
    107  N         37.0500   46.7250   79.0960 N.am  160  THR160     -0.1951
    108  CA        37.1770   46.1510   77.7520 C.3   160  THR160      0.1897
    109  C         37.1410   44.6210   77.7660 C.2   160  THR160      0.2313
    110  O         37.9270   43.9820   78.4730 O.2   160  THR160     -0.2863
    111  CB        38.5110   46.5760   77.1290 C.3   160  THR160      0.1794
    112  OG1       38.5130   48.0000   76.9640 O.3   160  THR160     -0.2208
    113  CG2       38.7430   45.8790   75.7840 C.3   160  THR160      0.0378
    114  N         28.3890   53.5850   72.7970 N.3   199  LYS199     -0.1245
    115  CA        29.4790   54.5140   72.4720 C.3   199  LYS199      0.1561
    116  C         29.3200   55.1600   71.1040 C.2   199  LYS199      0.2260
    117  O         28.5040   54.7200   70.3120 O.2   199  LYS199     -0.2867
    118  CB        30.8360   53.8120   72.5900 C.3   199  LYS199      0.0271
    119  CG        31.0280   53.0280   73.9140 C.3   199  LYS199      0.0035
    120  CD        32.4580   52.5830   74.1650 C.3   199  LYS199      0.0206
    121  CE        32.9520   51.5010   73.1630 C.3   199  LYS199      0.1093
    122  NZ        32.2450   50.1760   73.2800 N.3   199  LYS199     -0.1314
    123  N         33.6620   52.0540   67.8750 N.3   202  LEU202     -0.1245
    124  CA        34.4470   50.9390   68.4500 C.3   202  LEU202      0.1561
    125  C         33.5220   49.9250   69.1350 C.2   202  LEU202      0.2260
    126  O         33.7100   49.5690   70.2990 O.2   202  LEU202     -0.2867
    127  CB        35.4800   51.4880   69.4390 C.3   202  LEU202      0.0270
    128  CG        36.8960   50.9300   69.5950 C.3   202  LEU202      0.0019
    129  CD1       37.8440   51.3580   68.4340 C.3   202  LEU202      0.0001
    130  CD2       37.4880   51.3630   70.9900 C.3   202  LEU202      0.0001
    131  N         32.3770   47.0600   76.1780 N.3   207  THR207     -0.1218
    132  CA        32.9480   47.7280   77.3360 C.3   207  THR207      0.1862
    133  C         31.8710   47.7510   78.4430 C.2   207  THR207      0.2287
    134  O         30.7870   48.2980   78.2450 O.2   207  THR207     -0.2866
    135  CB        33.3800   49.1930   76.9430 C.3   207  THR207      0.1770
    136  OG1       34.3070   49.1540   75.8390 O.3   207  THR207     -0.2211
    137  CG2       34.0290   49.9230   78.1180 C.3   207  THR207      0.0375
    138  N         38.2580   58.4320   70.8740 N.3   349  ILE349     -0.1245
    139  CA        38.4410   57.7610   72.2000 C.3   349  ILE349      0.1561
    140  C         39.9350   57.4620   72.4880 C.2   349  ILE349      0.2260
    141  O         40.3720   57.3870   73.6390 O.2   349  ILE349     -0.2867
    142  CB        37.5800   56.4510   72.3110 C.3   349  ILE349      0.0252
    143  CG1       37.6020   55.8260   73.7420 C.3   349  ILE349      0.0019
    144  CG2       38.0720   55.3960   71.3270 C.3   349  ILE349      0.0019
    145  CD1       37.2490   56.7890   74.9260 C.3   349  ILE349      0.0001
    146  N         41.6820   59.7130   74.6560 N.3   352  ILE352     -0.1231
    147  CA        41.0980   59.6700   75.9930 C.3   352  ILE352      0.1692
    148  C         41.5690   58.4880   76.8620 C.2   352  ILE352      0.2592
    149  O         41.9990   58.7050   77.9920 O.2   352  ILE352     -0.2718
    150  CB        39.5340   59.7420   75.9540 C.3   352  ILE352      0.0266
    151  CG1       39.0830   61.1720   75.6320 C.3   352  ILE352      0.0019
    152  CG2       38.9220   59.2780   77.2710 C.3   352  ILE352      0.0020
    153  CD1       37.7370   61.2870   74.9310 C.3   352  ILE352      0.0001
    154  N         41.5010   57.2520   76.3790 N.am  353  PHE353     -0.1962
    155  CA        41.9490   56.1560   77.2440 C.3   353  PHE353      0.1771
    156  C         43.4700   55.9050   77.2940 C.2   353  PHE353      0.2619
    157  O         44.2240   56.5040   76.5340 O.2   353  PHE353     -0.2715
    158  CB        41.1270   54.8680   77.0680 C.3   353  PHE353      0.0574
    159  CG        41.1880   54.2380   75.6890 C.ar  353  PHE353     -0.0200
    160  CD1       40.1220   53.4390   75.2600 C.ar  353  PHE353     -0.0042
    161  CD2       42.2770   54.4020   74.8510 C.ar  353  PHE353     -0.0042
    162  CE1       40.1250   52.8270   73.9950 C.ar  353  PHE353     -0.0003
    163  CE2       42.3040   53.7920   73.5830 C.ar  353  PHE353     -0.0003
    164  CZ        41.2230   53.0010   73.1600 C.ar  353  PHE353     -0.0000
    165  N         43.8970   55.0720   78.2510 N.am  354  GLU354     -0.1963
    166  CA        45.3140   54.7910   78.5050 C.3   354  GLU354      0.1733
    167  C         46.0220   56.0880   78.9630 C.2   354  GLU354      0.2617
    168  O         47.1950   56.3200   78.6660 O.2   354  GLU354     -0.2715
    169  CB        45.9260   54.2150   77.2170 C.3   354  GLU354      0.0429
    170  CG        47.0180   53.1700   77.3470 C.3   354  GLU354      0.1163
    171  CD        46.6510   51.9480   78.2040 C.2   354  GLU354      0.3649
    172  OE1       47.2800   51.8380   79.3020 O.co2 354  GLU354     -0.2457
    173  OE2       45.8010   51.0780   77.7790 O.co2 354  GLU354     -0.2457
    174  N         45.2930   56.9360   79.6810 N.am  355  GLY355     -0.1940
    175  CA        45.8080   58.2170   80.1550 C.3   355  GLY355      0.2014
    176  C         45.5050   59.2550   79.0870 C.2   355  GLY355      0.2639
    177  O         46.0650   59.1720   77.9860 O.2   355  GLY355     -0.2714
    178  N         44.6270   60.2130   79.4210 N.am  356  THR356     -0.1950
    179  CA        44.1920   61.2630   78.4930 C.3   356  THR356      0.1897
    180  C         45.4200   62.0260   78.0350 C.2   356  THR356      0.2313
    181  O         46.4650   62.0250   78.7140 O.2   356  THR356     -0.2863
    182  CB        43.1610   62.2890   79.1310 C.3   356  THR356      0.1794
    183  OG1       43.8140   63.1090   80.1120 O.3   356  THR356     -0.2208
    184  CG2       41.9810   61.5820   79.7980 C.3   356  THR356      0.0378
    185  N         45.8800   65.1380   78.2830 N.3   358  GLN358     -0.1231
    186  CA        46.2640   66.1370   79.3170 C.3   358  GLN358      0.1698
    187  C         47.1660   65.4980   80.4230 C.2   358  GLN358      0.2592
    188  O         48.1600   66.0990   80.8460 O.2   358  GLN358     -0.2718
    189  CB        45.0560   66.8480   79.9250 C.3   358  GLN358      0.0381
    190  CG        44.3370   67.8270   78.9940 C.3   358  GLN358      0.0905
    191  CD        43.5800   67.1400   77.8370 C.2   358  GLN358      0.2608
    192  OE1       42.8730   66.1320   78.0350 O.2   358  GLN358     -0.2717
    193  NE2       43.7540   67.6790   76.6120 N.am  358  GLN358     -0.0878
    194  N         46.8300   64.2900   80.8600 N.am  359  ILE359     -0.1980
    195  CA        47.7170   63.5180   81.7580 C.3   359  ILE359      0.1595
    196  C         49.1130   63.2190   81.1280 C.2   359  ILE359      0.2287
    197  O         50.1510   63.3720   81.8200 O.2   359  ILE359     -0.2864
    198  CB        46.9800   62.2300   82.3250 C.3   359  ILE359      0.0276
    199  CG1       46.2800   62.5680   83.6350 C.3   359  ILE359      0.0022
    200  CG2       47.9150   61.0690   82.6170 C.3   359  ILE359      0.0022
    201  CD1       45.0440   63.4030   83.4940 C.3   359  ILE359      0.0001
    202  N         51.2190   66.1780   81.4620 N.3   362  LEU362     -0.1245
    203  CA        51.5700   66.3830   82.8740 C.3   362  LEU362      0.1561
    204  C         52.7290   65.4300   83.2480 C.2   362  LEU362      0.2260
    205  O         53.6990   65.8380   83.8770 O.2   362  LEU362     -0.2867
    206  CB        50.3290   66.2090   83.7710 C.3   362  LEU362      0.0270
    207  CG        50.4530   66.3360   85.2970 C.3   362  LEU362      0.0019
    208  CD1       51.1850   67.6400   85.7410 C.3   362  LEU362      0.0001
    209  CD2       49.0780   66.2010   86.0250 C.3   362  LEU362      0.0001
@<TRIPOS>BOND
     1   123   124    1
     2   129   128    1
     3   124   125    1
     4   124   127    1
     5   125   126    2
     6   127   128    1
     7   128   130    1
     8   117   116    2
     9   138   139    1
    10   116   115    1
    11   144   142    1
    12   139   142    1
    13   139   140    1
    14   142   143    1
    15   115   118    1
    16   115   114    1
    17   140   141    2
    18   118   119    1
    19   164   163   ar
    20   164   162   ar
    21   121   122    1
    22   121   120    1
    23   163   161   ar
    24   143   145    1
    25   119   120    1
    26   162   160   ar
    27   146   147    1
    28   161   159   ar
    29   153   151    1
    30     1     2    1
    31   160   159   ar
    32   151   150    1
    33   159   158    1
    34   113   111    1
    35   136   135    1
    36   150   147    1
    37   150   152    1
    38   147   148    1
    39   131   132    1
    40   154   148   am
    41   154   155    1
    42   157   156    2
    43     2     5    1
    44     2     3    1
    45     7     5    1
    46   193   191   am
    47     5     6    1
    48   148   149    2
    49   135   132    1
    50   135   137    1
    51   112   111    1
    52     3     4    2
    53   158   155    1
    54   111   108    1
    55   169   170    1
    56   169   166    1
    57   155   156    1
    58   156   165   am
    59   132   133    1
    60   170   171    1
    61   108   109    1
    62   108   107    1
    63   109   110    2
    64   173   171   ar
    65   191   192    2
    66   191   190    1
    67   177   176    2
    68   180   179    1
    69   180   181    2
    70   171   172   ar
    71   134   133    2
    72   165   166    1
    73   185   186    1
    74   179   182    1
    75   179   178    1
    76   166   167    1
    77   168   167    2
    78   167   174   am
    79   190   189    1
    80   176   178   am
    81   176   175    1
    82   107   101   am
    83   182   184    1
    84   182   183    1
    85   186   189    1
    86   186   187    1
    87   102   101    2
    88    97    95   ar
    89    97    98   ar
    90   174   175    1
    91   101   100    1
    92    95    92   ar
    93    98    96   ar
    94   187   188    2
    95   187   194   am
    96   194   195    1
    97    88    87    2
    98   196   195    1
    99   196   197    2
   100    92    94   ar
   101    92    90   ar
   102   100    99    1
   103   100   103    1
   104    87    99   am
   105    87    86    1
   106    96    94   ar
   107   202   203    1
   108    89    86    1
   109    89    90    1
   110    86    85    1
   111   195   198    1
   112    94    93   ar
   113    90    91   ar
   114     8     9    1
   115   105   103    1
   116    12     9    1
   117    12    13    1
   118   198   200    1
   119   198   199    1
   120   103   104    1
   121    11    10    2
   122   203   204    1
   123   203   206    1
   124    85    81   am
   125     9    10    1
   126    93    91   ar
   127    13    15   ar
   128    13    14   ar
   129    15    17   ar
   130   204   205    2
   131    14    16   ar
   132   201   199    1
   133    10    20   am
   134   206   207    1
   135   104   106    1
   136    17    18   ar
   137    70    69    1
   138    81    82    2
   139    81    80    1
   140    16    18   ar
   141    18    19    1
   142    39    38    1
   143    20    21    1
   144    80    83    1
   145    80    79    1
   146   207   208    1
   147   207   209    1
   148    38    35    1
   149    69    66    1
   150    83    84    1
   151    65    66    1
   152    65    63   am
   153    21    24    1
   154    21    22    1
   155    66    67    1
   156    63    62    1
   157    63    64    2
   158    62    61    1
   159    24    25    1
   160    26    22   am
   161    26    27    1
   162    34    35    1
   163    34    28   am
   164    35    36    1
   165    33    31    1
   166    22    23    2
   167    30    27    1
   168    30    31    1
   169    67    68    2
   170    67    71   am
   171    61    58   am
   172    37    36    2
   173    27    28    1
   174    36    40   am
   175    31    32    1
   176    28    29    2
   177    43    42    2
   178    52    51    2
   179    59    58    2
   180    71    72    1
   181    50    49    1
   182    50    53    1
   183    50    51    1
   184    40    41    1
   185    58    57    1
   186    42    49   am
   187    42    41    1
   188    49    55    1
   189    53    54    1
   190    41    44    1
   191    54    55    1
   192    72    73    1
   193    72    75    1
   194    57    56    1
   195    57    60    1
   196    73    74    2
   197    44    45    1
   198    75    76    1
   199    45    46    1
   200    76    77   ar
   201    76    78   ar
   202    46    48   ar
   203    46    47   ar
