@<TRIPOS>MOLECULE
tmp/3nf4B00.pdb
 130 128 0 0 0
SMALL
GASTEIGER

@<TRIPOS>ATOM
      1  N         30.0800   70.9650   82.7490 N.3   253  TYR253     -0.1241
      2  CA        30.6610   69.7360   83.2860 C.3   253  TYR253      0.1605
      3  C         31.9460   70.0030   84.0930 C.2   253  TYR253      0.2264
      4  O         32.1490   69.4020   85.1320 O.2   253  TYR253     -0.2867
      5  CB        30.9170   68.7050   82.1700 C.3   253  TYR253      0.0534
      6  CG        31.3020   67.3130   82.6750 C.ar  253  TYR253     -0.0201
      7  CD1       30.3100   66.4080   83.1580 C.ar  253  TYR253     -0.0009
      8  CD2       32.6410   66.8920   82.6930 C.ar  253  TYR253     -0.0009
      9  CE1       30.6540   65.1110   83.6350 C.ar  253  TYR253      0.0417
     10  CE2       32.9890   65.6050   83.1460 C.ar  253  TYR253      0.0417
     11  CZ        31.9960   64.7260   83.6190 C.ar  253  TYR253      0.1957
     12  OH        32.3510   63.4700   84.0700 O.3   253  TYR253     -0.2866
     13  N         32.5130   68.1030   87.9400 N.3   257  ARG257     -0.1231
     14  CA        33.3790   66.9310   88.0270 C.3   257  ARG257      0.1694
     15  C         34.6790   67.2810   88.7760 C.2   257  ARG257      0.2593
     16  O         35.2420   68.3770   88.5770 O.2   257  ARG257     -0.2718
     17  CB        33.6440   66.3780   86.6140 C.3   257  ARG257      0.0321
     18  CG        34.6480   65.1990   86.4990 C.3   257  ARG257      0.0489
     19  CD        34.1720   63.9350   87.2570 C.3   257  ARG257      0.2205
     20  NE        34.9510   62.7610   86.8800 N.pl3 257  ARG257     -0.0865
     21  CZ        34.5670   61.4950   87.0610 C.cat 257  ARG257      0.5346
     22  NH1       35.3610   60.5020   86.6430 N.pl3 257  ARG257      0.1354
     23  NH2       33.4000   61.2170   87.6550 N.pl3 257  ARG257      0.1354
     24  N         35.1220   66.3830   89.6620 N.am  258  THR258     -0.1939
     25  CA        36.3680   66.5930   90.4110 C.3   258  THR258      0.2028
     26  C         37.4310   65.5000   90.1270 C.2   258  THR258      0.2642
     27  O         37.0950   64.3470   89.8080 O.2   258  THR258     -0.2714
     28  CB        36.1360   66.7690   91.9660 C.3   258  THR258      0.1808
     29  OG1       35.7880   65.5120   92.5690 O.3   258  THR258     -0.2208
     30  CG2       35.0250   67.7900   92.2710 C.3   258  THR258      0.0379
     31  N         38.7030   65.8780   90.2240 N.am  259  ALA259     -0.1963
     32  CA        39.8210   64.9150   90.1920 C.3   259  ALA259      0.1728
     33  C         41.0110   65.4300   90.9930 C.2   259  ALA259      0.2616
     34  O         41.2800   66.6440   91.0410 O.2   259  ALA259     -0.2715
     35  CB        40.2350   64.5800   88.7340 C.3   259  ALA259      0.0334
     36  N         41.7100   64.5030   91.6430 N.am  260  PHE260     -0.1974
     37  CA        42.8530   64.8440   92.4920 C.3   260  PHE260      0.1639
     38  C         42.4660   65.8920   93.5580 C.2   260  PHE260      0.2290
     39  O         43.2380   66.8130   93.8510 O.2   260  PHE260     -0.2864
     40  CB        44.0520   65.2930   91.6250 C.3   260  PHE260      0.0560
     41  CG        44.5430   64.2290   90.6590 C.ar  260  PHE260     -0.0200
     42  CD1       43.9760   64.1010   89.3910 C.ar  260  PHE260     -0.0042
     43  CD2       45.5700   63.3470   91.0310 C.ar  260  PHE260     -0.0042
     44  CE1       44.4260   63.1020   88.4940 C.ar  260  PHE260     -0.0003
     45  CE2       46.0250   62.3450   90.1610 C.ar  260  PHE260     -0.0003
     46  CZ        45.4540   62.2210   88.8800 C.ar  260  PHE260     -0.0000
     47  N         37.6210   70.0680   88.1440 N.3   264  ILE264     -0.1245
     48  CA        38.5670   69.9660   87.0190 C.3   264  ILE264      0.1561
     49  C         38.8760   71.2950   86.2740 C.2   264  ILE264      0.2260
     50  O         39.9680   71.4450   85.7290 O.2   264  ILE264     -0.2867
     51  CB        38.2470   68.8210   86.0280 C.3   264  ILE264      0.0252
     52  CG1       36.8190   68.9210   85.4930 C.3   264  ILE264      0.0019
     53  CG2       38.5650   67.4540   86.6660 C.3   264  ILE264      0.0019
     54  CD1       36.5950   68.0880   84.2880 C.3   264  ILE264      0.0001
     55  N         42.1720   72.7840   87.5590 N.3   267  HIS267     -0.1241
     56  CA        43.4660   72.3550   86.9810 C.3   267  HIS267      0.1621
     57  C         43.8340   73.3380   85.8270 C.2   267  HIS267      0.2264
     58  O         43.1100   73.4090   84.8260 O.2   267  HIS267     -0.2867
     59  CB        43.4270   70.8790   86.4950 C.3   267  HIS267      0.0745
     60  CG        43.1730   69.8750   87.5910 C.ar  267  HIS267      0.0817
     61  ND1       44.1210   69.5460   88.5420 N.ar  267  HIS267     -0.2268
     62  CD2       42.0760   69.1320   87.8870 C.ar  267  HIS267      0.1154
     63  CE1       43.6180   68.6490   89.3750 C.ar  267  HIS267      0.1986
     64  NE2       42.3750   68.3900   89.0080 N.ar  267  HIS267     -0.2212
     65  N         45.9710   73.5820   83.2500 N.3   269  GLY269     -0.1210
     66  CA        45.9740   72.9620   81.8960 C.3   269  GLY269      0.1956
     67  C         44.6100   72.7720   81.2160 C.2   269  GLY269      0.2611
     68  O         44.4360   73.0780   80.0240 O.2   269  GLY269     -0.2717
     69  N         43.6410   72.2580   81.9790 N.am  270  LEU270     -0.1979
     70  CA        42.2630   72.1240   81.5250 C.3   270  LEU270      0.1596
     71  C         41.5670   73.4620   81.3450 C.2   270  LEU270      0.2287
     72  O         40.7630   73.6250   80.4170 O.2   270  LEU270     -0.2864
     73  CB        41.4470   71.2480   82.4880 C.3   270  LEU270      0.0297
     74  CG        40.1740   70.7770   81.7640 C.3   270  LEU270      0.0022
     75  CD1       40.3780   69.5020   80.9460 C.3   270  LEU270      0.0001
     76  CD2       38.9780   70.6820   82.7080 C.3   270  LEU270      0.0001
     77  N         36.7320   65.7760   74.7320 N.3   325  GLN325     -0.1231
     78  CA        37.9320   65.6800   75.5820 C.3   325  GLN325      0.1698
     79  C         37.6930   66.1590   77.0520 C.2   325  GLN325      0.2592
     80  O         38.1230   65.4880   77.9940 O.2   325  GLN325     -0.2718
     81  CB        39.0840   66.4790   74.9390 C.3   325  GLN325      0.0381
     82  CG        40.4830   66.1530   75.4390 C.3   325  GLN325      0.0905
     83  CD        40.9530   64.7270   75.0360 C.2   325  GLN325      0.2608
     84  OE1       40.4700   64.1400   74.0720 O.2   325  GLN325     -0.2717
     85  NE2       41.9050   64.1930   75.7860 N.am  325  GLN325     -0.0878
     86  N         37.0480   67.3190   77.2380 N.am  326  VAL326     -0.1966
     87  CA        36.7330   67.8510   78.5890 C.3   326  VAL326      0.1727
     88  C         35.9060   66.8520   79.4230 C.2   326  VAL326      0.2616
     89  O         36.1960   66.6770   80.6260 O.2   326  VAL326     -0.2715
     90  CB        36.0040   69.2180   78.5300 C.3   326  VAL326      0.0290
     91  CG1       35.4270   69.6240   79.9140 C.3   326  VAL326      0.0023
     92  CG2       36.9330   70.2960   78.0080 C.3   326  VAL326      0.0023
     93  N         34.9490   66.1670   78.7680 N.am  327  PHE327     -0.1960
     94  CA        34.0900   65.1750   79.4200 C.3   327  PHE327      0.1771
     95  C         34.7890   63.8660   79.8400 C.2   327  PHE327      0.2620
     96  O         34.3010   63.1760   80.7360 O.2   327  PHE327     -0.2715
     97  CB        32.8460   64.8360   78.5730 C.3   327  PHE327      0.0574
     98  CG        31.6720   65.7740   78.7720 C.ar  327  PHE327     -0.0200
     99  CD1       31.6410   67.0250   78.1660 C.ar  327  PHE327     -0.0042
    100  CD2       30.5750   65.3860   79.5490 C.ar  327  PHE327     -0.0042
    101  CE1       30.5550   67.9000   78.3520 C.ar  327  PHE327     -0.0003
    102  CE2       29.4700   66.2460   79.7320 C.ar  327  PHE327     -0.0003
    103  CZ        29.4590   67.5060   79.1120 C.ar  327  PHE327     -0.0000
    104  N         35.9040   63.5140   79.2100 N.am  328  GLY328     -0.1940
    105  CA        36.5040   62.1740   79.3860 C.3   328  GLY328      0.2014
    106  C         35.6900   61.0180   78.8170 C.2   328  GLY328      0.2639
    107  O         34.9640   61.1860   77.8320 O.2   328  GLY328     -0.2714
    108  N         35.8080   59.8390   79.4370 N.am  329  GLY329     -0.1939
    109  CA        35.1000   58.6280   79.0080 C.3   329  GLY329      0.2014
    110  C         33.5960   58.7430   78.7740 C.2   329  GLY329      0.2638
    111  O         33.0960   58.2170   77.7660 O.2   329  GLY329     -0.2714
    112  N         32.8660   59.4320   79.6740 N.am  330  VAL330     -0.1977
    113  CA        31.4310   59.6660   79.4880 C.3   330  VAL330      0.1596
    114  C         31.0950   60.4820   78.2260 C.2   330  VAL330      0.2287
    115  O         30.0020   60.3510   77.6680 O.2   330  VAL330     -0.2864
    116  CB        30.7160   60.3530   80.7250 C.3   330  VAL330      0.0276
    117  CG1       30.5190   59.3800   81.8870 C.3   330  VAL330      0.0022
    118  CG2       31.3970   61.6740   81.1710 C.3   330  VAL330      0.0022
    119  N         32.3370   60.1390   75.4080 N.3   332  TYR332     -0.1241
    120  CA        32.3030   59.1990   74.2830 C.3   332  TYR332      0.1605
    121  C         31.0330   58.3270   74.2420 C.2   332  TYR332      0.2264
    122  O         30.9080   57.4890   73.3560 O.2   332  TYR332     -0.2867
    123  CB        33.5770   58.3270   74.2940 C.3   332  TYR332      0.0534
    124  CG        33.8830   57.5920   73.0010 C.ar  332  TYR332     -0.0201
    125  CD1       34.3350   58.2720   71.8670 C.ar  332  TYR332     -0.0009
    126  CD2       33.7520   56.2090   72.9220 C.ar  332  TYR332     -0.0009
    127  CE1       34.6300   57.5850   70.6720 C.ar  332  TYR332      0.0417
    128  CE2       34.0480   55.5020   71.7380 C.ar  332  TYR332      0.0417
    129  CZ        34.4960   56.1980   70.6260 C.ar  332  TYR332      0.1957
    130  OH        34.7840   55.5050   69.4750 O.3   332  TYR332     -0.2866
@<TRIPOS>BOND
     1   130   129    1
     2   129   127   ar
     3   129   128   ar
     4   127   125   ar
     5   128   126   ar
     6   125   124   ar
     7   126   124   ar
     8   124   123    1
     9   122   121    2
    10    84    83    2
    11   121   120    1
    12   120   123    1
    13   120   119    1
    14    77    78    1
    15    81    82    1
    16    81    78    1
    17    83    82    1
    18    83    85   am
    19    78    79    1
    20    79    86   am
    21    79    80    2
    22    86    87    1
    23   115   114    2
    24   111   110    2
    25   107   106    2
    26    92    90    1
    27    99   101   ar
    28    99    98   ar
    29   114   113    1
    30   101   103   ar
    31    90    87    1
    32    90    91    1
    33    97    98    1
    34    97    94    1
    35    87    88    1
    36    93    94    1
    37    93    88   am
    38    98   100   ar
    39   110   109    1
    40   110   112   am
    41   106   105    1
    42   106   108   am
    43   109   108    1
    44   103   102   ar
    45   104   105    1
    46   104    95   am
    47    94    95    1
    48    88    89    2
    49   113   112    1
    50   113   116    1
    51   100   102   ar
    52    95    96    2
    53    68    67    2
    54    72    71    2
    55   116   118    1
    56   116   117    1
    57    75    74    1
    58    67    66    1
    59    67    69   am
    60    71    70    1
    61    70    69    1
    62    70    73    1
    63    74    73    1
    64    74    76    1
    65    66    65    1
    66     5     6    1
    67     5     2    1
    68     6     8   ar
    69     6     7   ar
    70     8    10   ar
    71     1     2    1
    72    10    11   ar
    73     7     9   ar
    74     2     3    1
    75    11     9   ar
    76    11    12    1
    77     3     4    2
    78    54    52    1
    79    58    57    2
    80    52    51    1
    81    50    49    2
    82    57    56    1
    83    51    53    1
    84    51    48    1
    85    49    48    1
    86    59    56    1
    87    59    60    1
    88    18    17    1
    89    18    19    1
    90    17    14    1
    91    22    21    1
    92    20    21    2
    93    20    19    1
    94    56    55    1
    95    48    47    1
    96    21    23    1
    97    60    62   ar
    98    60    61   ar
    99    62    64   ar
   100    13    14    1
   101    14    15    1
   102    44    46   ar
   103    44    42   ar
   104    61    63   ar
   105    16    15    2
   106    35    32    1
   107    15    24   am
   108    46    45   ar
   109    64    63   ar
   110    42    41   ar
   111    24    25    1
   112    27    26    2
   113    26    31   am
   114    26    25    1
   115    45    43   ar
   116    32    31    1
   117    32    33    1
   118    25    28    1
   119    41    43   ar
   120    41    40    1
   121    33    34    2
   122    33    36   am
   123    40    37    1
   124    36    37    1
   125    28    30    1
   126    28    29    1
   127    37    38    1
   128    38    39    2
