@<TRIPOS>MOLECULE
tmp/3nf6B00.pdb
 88 87 0 0 0
SMALL
GASTEIGER

@<TRIPOS>ATOM
      1  N         10.9730  -46.9800   -7.5310 N.3    39  GLN39      -0.1231
      2  CA        11.7730  -46.4580   -6.4300 C.3    39  GLN39       0.1698
      3  C         12.5290  -45.1600   -6.7740 C.2    39  GLN39       0.2592
      4  O         12.5110  -44.1680   -5.9930 O.2    39  GLN39      -0.2718
      5  CB        12.7530  -47.4920   -5.8780 C.3    39  GLN39       0.0381
      6  CG        12.6300  -47.4860   -4.3510 C.3    39  GLN39       0.0905
      7  CD        13.7750  -48.0940   -3.5760 C.2    39  GLN39       0.2608
      8  OE1       13.6010  -48.4370   -2.4060 O.2    39  GLN39      -0.2717
      9  NE2       14.9450  -48.2200   -4.1950 N.am   39  GLN39      -0.0878
     10  N         13.2110  -45.1790   -7.9130 N.am   40  GLU40      -0.1979
     11  CA        13.9590  -43.9810   -8.3670 C.3    40  GLU40       0.1602
     12  C         12.9840  -42.8400   -8.6280 C.2    40  GLU40       0.2287
     13  O         13.2560  -41.6990   -8.2580 O.2    40  GLU40      -0.2864
     14  CB        14.7640  -44.2620   -9.6490 C.3    40  GLU40       0.0415
     15  CG        15.9450  -45.2620   -9.4610 C.3    40  GLU40       0.1163
     16  CD        17.1380  -44.6810   -8.7010 C.2    40  GLU40       0.3649
     17  OE1       17.1070  -43.5350   -8.2720 O.co2  40  GLU40      -0.2457
     18  OE2       18.1500  -45.3880   -8.5400 O.co2  40  GLU40      -0.2457
     19  N          9.9430  -42.3140   -7.3270 N.3    42  ALA42      -0.1231
     20  CA         9.4970  -41.8990   -5.9790 C.3    42  ALA42       0.1694
     21  C         10.4990  -40.9720   -5.3000 C.2    42  ALA42       0.2592
     22  O         10.1140  -39.9270   -4.7940 O.2    42  ALA42      -0.2718
     23  CB         9.2040  -43.1490   -5.0960 C.3    42  ALA42       0.0304
     24  N         11.7720  -41.3880   -5.2690 N.am   43  TYR43      -0.1976
     25  CA        12.8490  -40.6030   -4.6490 C.3    43  TYR43       0.1639
     26  C         12.9870  -39.2240   -5.3190 C.2    43  TYR43       0.2290
     27  O         13.1480  -38.2260   -4.6560 O.2    43  TYR43      -0.2864
     28  CB        14.1780  -41.3760   -4.7000 C.3    43  TYR43       0.0560
     29  CG        15.3190  -40.6580   -3.9890 C.ar   43  TYR43      -0.0198
     30  CD1       15.3100  -40.5070   -2.6090 C.ar   43  TYR43      -0.0009
     31  CD2       16.3940  -40.1090   -4.7130 C.ar   43  TYR43      -0.0009
     32  CE1       16.3390  -39.8490   -1.9390 C.ar   43  TYR43       0.0417
     33  CE2       17.4450  -39.4470   -4.0500 C.ar   43  TYR43       0.0417
     34  CZ        17.4060  -39.3250   -2.6560 C.ar   43  TYR43       0.1957
     35  OH        18.3940  -38.6540   -1.9980 O.3    43  TYR43      -0.2866
     36  N         10.1610  -36.9560   -4.2230 N.3    46  LEU46      -0.1245
     37  CA        10.3760  -36.4770   -2.8420 C.3    46  LEU46       0.1561
     38  C         11.3450  -35.3050   -2.8200 C.2    46  LEU46       0.2260
     39  O         11.0910  -34.3200   -2.1240 O.2    46  LEU46      -0.2867
     40  CB        10.8680  -37.5970   -1.9210 C.3    46  LEU46       0.0270
     41  CG         9.8240  -38.6580   -1.5520 C.3    46  LEU46       0.0019
     42  CD1       10.4890  -39.9420   -1.0240 C.3    46  LEU46       0.0001
     43  CD2        8.8180  -38.0960   -0.5240 C.3    46  LEU46       0.0001
     44  N          4.8960  -47.5950   -5.0540 N.3    69  THR69      -0.1218
     45  CA         5.9560  -46.7650   -4.4350 C.3    69  THR69       0.1862
     46  C          5.8150  -45.2840   -4.8250 C.2    69  THR69       0.2287
     47  O          5.9520  -44.3970   -3.9660 O.2    69  THR69      -0.2866
     48  CB         7.3360  -47.2790   -4.8310 C.3    69  THR69       0.1770
     49  OG1        7.4370  -48.6610   -4.4670 O.3    69  THR69      -0.2211
     50  CG2        8.4040  -46.5080   -4.0910 C.3    69  THR69       0.0375
     51  N          2.6700  -43.9470   -3.1460 N.3    72  ALA72      -0.1231
     52  CA         3.0120  -43.7020   -1.7190 C.3    72  ALA72       0.1694
     53  C          3.8200  -42.3860   -1.5360 C.2    72  ALA72       0.2591
     54  O          3.5660  -41.6410   -0.5910 O.2    72  ALA72      -0.2718
     55  CB         3.7830  -44.8950   -1.1110 C.3    72  ALA72       0.0304
     56  N          4.8180  -42.1300   -2.4040 N.am   73  ALA73      -0.1980
     57  CA         5.6270  -40.8890   -2.3030 C.3    73  ALA73       0.1597
     58  C          4.7690  -39.6750   -2.5670 C.2    73  ALA73       0.2287
     59  O          4.9080  -38.6310   -1.8920 O.2    73  ALA73      -0.2864
     60  CB         6.8400  -40.9050   -3.3060 C.3    73  ALA73       0.0319
     61  N          1.4560  -39.5030   -2.0690 N.3    75  TRP75      -0.1227
     62  CA         0.6400  -39.3350   -0.8600 C.3    75  TRP75       0.1737
     63  C          1.4640  -38.6240    0.2500 C.2    75  TRP75       0.2595
     64  O          1.0050  -37.6470    0.8520 O.2    75  TRP75      -0.2718
     65  CB         0.1160  -40.6960   -0.3550 C.3    75  TRP75       0.0564
     66  CG        -0.3630  -40.5330    1.0660 C.ar   75  TRP75       0.0003
     67  CD1       -1.5830  -40.0290    1.4730 C.ar   75  TRP75       0.0946
     68  CD2        0.3880  -40.8040    2.2570 C.ar   75  TRP75       0.0152
     69  NE1       -1.6280  -39.9820    2.8520 N.ar   75  TRP75      -0.2442
     70  CE2       -0.4370  -40.4450    3.3600 C.ar   75  TRP75       0.0810
     71  CE3        1.6740  -41.3170    2.5040 C.ar   75  TRP75       0.0012
     72  CZ2       -0.0130  -40.5790    4.6830 C.ar   75  TRP75       0.0191
     73  CZ3        2.1020  -41.4560    3.8420 C.ar   75  TRP75       0.0001
     74  CH2        1.2590  -41.0770    4.9050 C.ar   75  TRP75       0.0015
     75  N          2.6800  -39.1220    0.4980 N.am   76  TRP76      -0.1976
     76  CA         3.5370  -38.5730    1.5710 C.3    76  TRP76       0.1640
     77  C          3.7620  -37.0700    1.3630 C.2    76  TRP76       0.2290
     78  O          3.6630  -36.2420    2.3100 O.2    76  TRP76      -0.2864
     79  CB         4.8740  -39.3560    1.6700 C.3    76  TRP76       0.0576
     80  CG         5.6080  -39.0640    2.9700 C.ar   76  TRP76       0.0006
     81  CD1        5.5440  -39.7910    4.1260 C.ar   76  TRP76       0.0946
     82  CD2        6.4470  -37.9240    3.2490 C.ar   76  TRP76       0.0152
     83  NE1        6.2920  -39.1660    5.1150 N.ar   76  TRP76      -0.2442
     84  CE2        6.8650  -38.0320    4.5880 C.ar   76  TRP76       0.0810
     85  CE3        6.9130  -36.8450    2.4740 C.ar   76  TRP76       0.0012
     86  CZ2        7.7180  -37.0780    5.1920 C.ar   76  TRP76       0.0191
     87  CZ3        7.7390  -35.8970    3.0660 C.ar   76  TRP76       0.0001
     88  CH2        8.1300  -36.0250    4.4270 C.ar   76  TRP76       0.0015
@<TRIPOS>BOND
     1    14    15    1
     2    14    11    1
     3    15    16    1
     4    16    18   ar
     5    16    17   ar
     6    12    11    1
     7    12    13    2
     8    11    10    1
     9    10     3   am
    10     1     2    1
    11    19    20    1
    12     3     2    1
    13     3     4    2
    14     2     5    1
    15    20    21    1
    16    20    23    1
    17     5     6    1
    18    26    27    2
    19    26    25    1
    20    21    24   am
    21    21    22    2
    22    24    25    1
    23    44    45    1
    24    48    49    1
    25    48    45    1
    26    48    50    1
    27    46    45    1
    28    46    47    2
    29    31    33   ar
    30    31    29   ar
    31    28    25    1
    32    28    29    1
    33     6     7    1
    34    36    37    1
    35     9     7   am
    36    33    34   ar
    37    29    30   ar
    38     7     8    2
    39    60    57    1
    40    51    52    1
    41    37    38    1
    42    37    40    1
    43    38    39    2
    44    34    35    1
    45    34    32   ar
    46    30    32   ar
    47    58    57    1
    48    58    59    2
    49    56    57    1
    50    56    53   am
    51    61    62    1
    52    40    41    1
    53    52    53    1
    54    52    55    1
    55    41    42    1
    56    41    43    1
    57    53    54    2
    58    62    65    1
    59    62    63    1
    60    65    66    1
    61    63    75   am
    62    63    64    2
    63    75    76    1
    64    66    67   ar
    65    66    68   ar
    66    77    76    1
    67    77    78    2
    68    67    69   ar
    69    76    79    1
    70    79    80    1
    71    68    71   ar
    72    68    70   ar
    73    85    87   ar
    74    85    82   ar
    75    71    73   ar
    76    69    70   ar
    77    80    82   ar
    78    80    81   ar
    79    87    88   ar
    80    82    84   ar
    81    70    72   ar
    82    73    74   ar
    83    81    83   ar
    84    88    86   ar
    85    84    83   ar
    86    84    86   ar
    87    72    74   ar
