@<TRIPOS>MOLECULE
tmp/3nf7B00.pdb
 136 125 0 0 0
SMALL
GASTEIGER

@<TRIPOS>ATOM
      1  N         24.9220  -20.5040   14.4940 N.3     6  GLN6       -0.1245
      2  CA        25.9810  -20.9550   15.4630 C.3     6  GLN6        0.1566
      3  C         26.0590  -22.4530   15.2760 C.2     6  GLN6        0.2260
      4  O         25.0050  -23.1090   15.3780 O.2     6  GLN6       -0.2867
      5  CB        25.5090  -20.6470   16.9010 C.3     6  GLN6        0.0367
      6  CG        26.4600  -21.2610   18.0090 C.3     6  GLN6        0.0905
      7  CD        27.9180  -20.7080   17.9880 C.2     6  GLN6        0.2608
      8  OE1       28.9130  -21.4900   17.8340 O.2     6  GLN6       -0.2717
      9  NE2       28.0560  -19.3660   18.1490 N.am    6  GLN6       -0.0878
     10  N         22.2430  -23.5840   14.9230 N.3    21  VAL21      -0.1301
     11  CA        21.1550  -22.7470   15.4640 C.3    21  VAL21       0.1246
     12  C         21.1290  -21.4340   14.7480 C.3    21  VAL21       0.2009
     13  O         22.1960  -20.7400   14.5200 O.3    21  VAL21      -0.2188
     14  CB        21.3640  -22.4880   16.9890 C.3    21  VAL21       0.0202
     15  CG1       20.1690  -21.6440   17.6260 C.3    21  VAL21       0.0016
     16  CG2       21.6890  -23.7510   17.7260 C.3    21  VAL21       0.0016
     17  N         20.6150  -17.8890   15.2560 N.3    23  VAL23      -0.1231
     18  CA        20.7980  -17.2810   16.5610 C.3    23  VAL23       0.1692
     19  C         19.5700  -16.4170   16.9680 C.2    23  VAL23       0.2592
     20  O         19.1450  -16.4520   18.1480 O.2    23  VAL23      -0.2718
     21  CB        22.0980  -16.4350   16.4920 C.3    23  VAL23       0.0266
     22  CG1       22.2510  -15.7280   17.8450 C.3    23  VAL23       0.0020
     23  CG2       23.3460  -17.4790   16.3680 C.3    23  VAL23       0.0020
     24  N         19.0970  -15.6290   16.0310 N.am   24  ALA24      -0.1966
     25  CA        17.9440  -14.6980   16.3220 C.3    24  ALA24       0.1728
     26  C         16.6260  -15.3600   16.6570 C.2    24  ALA24       0.2617
     27  O         15.7910  -14.7750   17.3970 O.2    24  ALA24      -0.2715
     28  CB        17.7530  -13.7580   15.2280 C.3    24  ALA24       0.0334
     29  N         16.3710  -16.5730   16.1190 N.am   25  SER25      -0.1936
     30  CA        15.1440  -17.3020   16.3750 C.3    25  SER25       0.2055
     31  C         15.1720  -18.5140   17.3070 C.2    25  SER25       0.2643
     32  O         14.1270  -18.9290   17.8450 O.2    25  SER25      -0.2714
     33  CB        14.5220  -17.7820   15.0240 C.3    25  SER25       0.2130
     34  OG        15.4360  -18.7680   14.5020 O.3    25  SER25      -0.2179
     35  N         16.3210  -19.1450   17.4450 N.am   26  GLY26      -0.1954
     36  CA        16.4610  -20.4450   18.1420 C.3    26  GLY26       0.1869
     37  C         16.0110  -21.6720   17.2900 C.2    26  GLY26       0.2309
     38  O         15.9730  -22.7790   17.7990 O.2    26  GLY26      -0.2863
     39  N         16.5020  -24.7300   14.8700 N.3    28  ILE28      -0.1245
     40  CA        17.6880  -25.5860   14.6710 C.3    28  ILE28       0.1561
     41  C         17.5220  -26.5670   13.5010 C.2    28  ILE28       0.2260
     42  O         16.4090  -26.9230   13.0740 O.2    28  ILE28      -0.2867
     43  CB        17.9790  -26.3870   15.9370 C.3    28  ILE28       0.0252
     44  CG1       16.8460  -27.4080   16.2690 C.3    28  ILE28       0.0019
     45  CG2       18.2570  -25.4620   17.1430 C.3    28  ILE28       0.0019
     46  CD1       17.2070  -28.3540   17.4920 C.3    28  ILE28       0.0001
     47  N         26.7390  -16.8290   26.3530 N.3    91  SER91      -0.1217
     48  CA        26.6900  -17.7430   25.2000 C.3    91  SER91       0.1889
     49  C         27.1340  -19.1880   25.4850 C.2    91  SER91       0.2288
     50  O         26.5460  -20.1140   24.9150 O.2    91  SER91      -0.2866
     51  CB        27.4250  -17.1380   23.9980 C.3    91  SER91       0.2089
     52  OG        26.7940  -15.9050   23.6650 O.3    91  SER91      -0.2183
     53  N         24.1100  -20.5540   27.0960 N.3    94  VAL94      -0.1231
     54  CA        22.9360  -20.6840   26.2300 C.3    94  VAL94       0.1692
     55  C         23.0760  -21.9690   25.3800 C.2    94  VAL94       0.2591
     56  O         22.1110  -22.7110   25.2320 O.2    94  VAL94      -0.2718
     57  CB        22.6460  -19.4320   25.4260 C.3    94  VAL94       0.0266
     58  CG1       21.6420  -19.7100   24.3420 C.3    94  VAL94       0.0020
     59  CG2       22.0410  -18.3360   26.3700 C.3    94  VAL94       0.0020
     60  N         24.2680  -22.2260   24.8620 N.am   95  ILE95      -0.1980
     61  CA        24.4950  -23.4600   24.0820 C.3    95  ILE95       0.1595
     62  C         24.3800  -24.6940   25.0210 C.2    95  ILE95       0.2287
     63  O         23.7890  -25.7050   24.6480 O.2    95  ILE95      -0.2864
     64  CB        25.8330  -23.3980   23.3250 C.3    95  ILE95       0.0276
     65  CG1       25.9100  -22.1090   22.5030 C.3    95  ILE95       0.0022
     66  CG2       26.0180  -24.5870   22.3850 C.3    95  ILE95       0.0022
     67  CD1       27.2980  -21.8710   21.8630 C.3    95  ILE95       0.0001
     68  N         22.4690  -24.9630   27.7570 N.3    97  SER97      -0.1202
     69  CA        21.0750  -25.1210   28.0100 C.3    97  SER97       0.2020
     70  C         20.4030  -25.6910   26.7810 C.2    97  SER97       0.2618
     71  O         19.4850  -26.4670   26.9240 O.2    97  SER97      -0.2717
     72  CB        20.4300  -23.7780   28.3830 C.3    97  SER97       0.2103
     73  OG        20.8600  -23.4560   29.7020 O.3    97  SER97      -0.2182
     74  N         20.8050  -25.2730   25.5800 N.am   98  MET98      -0.1979
     75  CA        20.1690  -25.8980   24.3520 C.3    98  MET98       0.1605
     76  C         20.5070  -27.3820   24.2910 C.2    98  MET98       0.2287
     77  O         19.6310  -28.1630   24.0060 O.2    98  MET98      -0.2864
     78  CB        20.6770  -25.2480   23.0660 C.3    98  MET98       0.0413
     79  CG        20.1550  -25.9330   21.8320 C.3    98  MET98       0.0598
     80  SD        20.7970  -25.0300   20.4240 S.3    98  MET98      -0.1393
     81  CE        22.4670  -25.6820   20.4000 C.3    98  MET98       0.0692
     82  N         18.4220  -29.3060   26.8360 N.3   101  GLU101     -0.1231
     83  CA        17.0170  -29.3840   26.4210 C.3   101  GLU101      0.1699
     84  C         16.8690  -30.3580   25.2630 C.2   101  GLU101      0.2592
     85  O         15.9180  -31.1260   25.2110 O.2   101  GLU101     -0.2718
     86  CB        16.5120  -28.0290   26.0440 C.3   101  GLU101      0.0402
     87  CG        15.0340  -27.9930   25.6070 C.3   101  GLU101      0.1161
     88  CD        14.0480  -28.4560   26.6770 C.2   101  GLU101      0.3649
     89  OE1       14.3100  -28.4270   27.9240 O.co2 101  GLU101     -0.2457
     90  OE2       12.9830  -28.8910   26.2520 O.co2 101  GLU101     -0.2457
     91  N         17.7940  -30.3340   24.2930 N.am  102  LEU102     -0.1980
     92  CA        17.6580  -31.3080   23.2020 C.3   102  LEU102      0.1596
     93  C         17.7270  -32.6920   23.7460 C.2   102  LEU102      0.2287
     94  O         16.8910  -33.5510   23.4220 O.2   102  LEU102     -0.2864
     95  CB        18.7760  -31.1620   22.1460 C.3   102  LEU102      0.0297
     96  CG        18.4420  -30.0620   21.1750 C.3   102  LEU102      0.0022
     97  CD1       19.5450  -29.8630   20.1620 C.3   102  LEU102      0.0001
     98  CD2       17.0540  -30.3980   20.4580 C.3   102  LEU102      0.0001
     99  N         14.5060  -33.8130   25.1910 N.3   105  ILE105     -0.1245
    100  CA        13.4850  -34.1260   24.1840 C.3   105  ILE105      0.1561
    101  C         13.8150  -35.4650   23.5840 C.2   105  ILE105      0.2260
    102  O         12.9810  -36.3900   23.4210 O.2   105  ILE105     -0.2867
    103  CB        13.3770  -33.0530   23.0920 C.3   105  ILE105      0.0252
    104  CG1       13.0560  -31.6370   23.6990 C.3   105  ILE105      0.0019
    105  CG2       12.2970  -33.4930   22.1020 C.3   105  ILE105      0.0019
    106  CD1       13.1220  -30.5140   22.6520 C.3   105  ILE105      0.0001
    107  N         11.2930  -29.2740   18.9720 N.3   127  HIS127     -0.1241
    108  CA        11.8940  -27.9670   19.3250 C.3   127  HIS127      0.1621
    109  C         11.4290  -26.8200   18.4470 C.2   127  HIS127      0.2264
    110  O         11.0120  -25.7550   18.9330 O.2   127  HIS127     -0.2867
    111  CB        13.4640  -28.0100   19.2070 C.3   127  HIS127      0.0745
    112  CG        14.0390  -26.6560   19.4150 C.ar  127  HIS127      0.0817
    113  ND1       13.9580  -26.0230   20.6580 N.ar  127  HIS127     -0.2268
    114  CD2       14.4560  -25.7070   18.5320 C.ar  127  HIS127      0.1154
    115  CE1       14.3870  -24.7800   20.5350 C.ar  127  HIS127      0.1986
    116  NE2       14.6880  -24.5590   19.2610 N.ar  127  HIS127     -0.2212
    117  N          5.6240  -22.4230   23.5210 N.3   132  LYS132     -0.1245
    118  CA         5.9790  -22.1040   24.9570 C.3   132  LYS132      0.1561
    119  C          5.8530  -20.6580   25.4870 C.2   132  LYS132      0.2260
    120  O          4.7520  -20.0250   25.4870 O.2   132  LYS132     -0.2867
    121  CB         7.3150  -22.7770   25.4000 C.3   132  LYS132      0.0271
    122  CG         8.6070  -21.9010   25.3280 C.3   132  LYS132      0.0035
    123  CD         9.1960  -21.7260   23.8930 C.3   132  LYS132      0.0206
    124  CE        10.0560  -22.9190   23.4560 C.3   132  LYS132      0.1093
    125  NZ        11.5450  -22.6490   23.4640 N.3   132  LYS132     -0.1314
    126  N          9.3550  -17.7970   14.0360 N.3   139  ARG139     -0.1245
    127  CA        10.2390  -16.6660   14.1490 C.3   139  ARG139      0.1563
    128  C         11.2390  -16.6110   13.0070 C.2   139  ARG139      0.2260
    129  O         11.5150  -15.5330   12.4620 O.2   139  ARG139     -0.2867
    130  CB        10.9780  -16.7390   15.4300 C.3   139  ARG139      0.0307
    131  CG        10.0640  -16.4830   16.6620 C.3   139  ARG139      0.0489
    132  CD        10.9290  -16.2310   17.9160 C.3   139  ARG139      0.2205
    133  NE        11.6010  -17.4680   18.3870 N.pl3 139  ARG139     -0.0865
    134  CZ        11.1010  -18.3420   19.2600 C.cat 139  ARG139      0.5346
    135  NH1        9.8990  -18.1580   19.8340 N.pl3 139  ARG139      0.1354
    136  NH2       11.8130  -19.4170   19.5880 N.pl3 139  ARG139      0.1354
@<TRIPOS>BOND
     1   129   128    2
     2   128   127    1
     3    42    41    2
     4    41    40    1
     5   126   127    1
     6   127   130    1
     7     1     2    1
     8    34    33    1
     9    13    12    1
    10    40    39    1
    11    40    43    1
    12    12    11    1
    13    10    11    1
    14    33    30    1
    15    28    25    1
    16    17    18    1
    17     3     4    2
    18     3     2    1
    19   130   131    1
    20     2     5    1
    21    11    14    1
    22    43    44    1
    23    43    45    1
    24    24    25    1
    25    24    19   am
    26    29    30    1
    27    29    26   am
    28    44    46    1
    29    25    26    1
    30    23    21    1
    31    30    31    1
    32    21    18    1
    33    21    22    1
    34    18    19    1
    35    26    27    2
    36   131   132    1
    37     5     6    1
    38    19    20    2
    39    14    15    1
    40    14    16    1
    41    37    38    2
    42    37    36    1
    43    31    35   am
    44    31    32    2
    45    35    36    1
    46     8     7    2
    47   132   133    1
    48     7     6    1
    49     7     9   am
    50   133   134    2
    51   109   110    2
    52   109   108    1
    53   114   116   ar
    54   114   112   ar
    55   107   108    1
    56   111   108    1
    57   111   112    1
    58   134   136    1
    59   134   135    1
    60   116   115   ar
    61   112   113   ar
    62    97    96    1
    63    81    80    1
    64    80    79    1
    65    98    96    1
    66   115   113   ar
    67    96    95    1
    68    79    78    1
    69    67    65    1
    70   105   103    1
    71    95    92    1
    72    66    64    1
    73    65    64    1
    74   106   104    1
    75    78    75    1
    76   103   104    1
    77   103   100    1
    78    92    93    1
    79    92    91    1
    80    64    61    1
    81   102   101    2
    82    94    93    2
    83   124   125    1
    84   124   123    1
    85   117   118    1
    86   101   100    1
    87    52    51    1
    88   123   122    1
    89    51    48    1
    90    77    76    2
    91    61    60    1
    92    61    62    1
    93   100    99    1
    94    76    75    1
    95    91    84   am
    96    58    57    1
    97    75    74    1
    98    63    62    2
    99    60    55   am
   100    50    49    2
   101   118   121    1
   102   118   119    1
   103    48    49    1
   104    48    47    1
   105    85    84    2
   106    56    55    2
   107    84    83    1
   108   122   121    1
   109    55    54    1
   110    57    54    1
   111    57    59    1
   112   120   119    2
   113    74    70   am
   114    87    86    1
   115    87    88    1
   116    86    83    1
   117    54    53    1
   118    90    88   ar
   119    83    82    1
   120    88    89   ar
   121    70    71    2
   122    70    69    1
   123    68    69    1
   124    69    72    1
   125    72    73    1
