@<TRIPOS>MOLECULE
tmp/3nf8A00.pdb
 85 84 0 0 0
SMALL
GASTEIGER

@<TRIPOS>ATOM
      1  N          0.4550  -22.8570    1.0560 N.3     2  PRO2       -0.2102
      2  CA         1.8250  -22.7630    1.6050 C.3     2  PRO2        0.1504
      3  C          2.3440  -24.0200    2.3140 C.2     2  PRO2        0.2576
      4  O          3.5380  -24.1510    2.4640 O.2     2  PRO2       -0.2718
      5  CB         1.7360  -21.6340    2.6430 C.3     2  PRO2        0.0282
      6  CG         0.3570  -21.6080    3.0490 C.3     2  PRO2        0.0208
      7  CD        -0.4410  -21.9180    1.7670 C.3     2  PRO2        0.0893
      8  N          1.4600  -24.9280    2.7450 N.am    3  GLY3       -0.1957
      9  CA         1.9040  -26.2320    3.3390 C.3     3  GLY3        0.1869
     10  C          1.9970  -27.4040    2.3310 C.2     3  GLY3        0.2309
     11  O          2.1580  -28.5330    2.7720 O.2     3  GLY3       -0.2863
     12  N          9.5480  -32.2500    7.6050 N.3    49  ALA49      -0.1231
     13  CA         8.4550  -31.6670    8.3670 C.3    49  ALA49       0.1694
     14  C          8.9580  -31.0490    9.6920 C.2    49  ALA49       0.2593
     15  O          8.2800  -30.1730   10.2350 O.2    49  ALA49      -0.2718
     16  CB         7.3250  -32.7150    8.6690 C.3    49  ALA49       0.0304
     17  N         10.1840  -31.4080   10.1260 N.am   50  GLY50      -0.1942
     18  CA        10.8000  -30.7490   11.2540 C.3    50  GLY50       0.2014
     19  C         11.3530  -29.3800   10.8720 C.2    50  GLY50       0.2639
     20  O         11.5790  -28.5390   11.7420 O.2    50  GLY50      -0.2714
     21  N         11.5800  -29.1660    9.5740 N.am   51  ARG51      -0.1963
     22  CA        12.2330  -27.9850    9.0940 C.3    51  ARG51       0.1729
     23  C         11.3110  -26.9520    8.4870 C.2    51  ARG51       0.2616
     24  O         11.6270  -25.7290    8.5300 O.2    51  ARG51      -0.2715
     25  CB        13.3210  -28.3900    8.0640 C.3    51  ARG51       0.0348
     26  CG        14.4110  -29.2190    8.8230 C.3    51  ARG51       0.0492
     27  CD        15.4240  -30.0900    7.9120 C.3    51  ARG51       0.2205
     28  NE        16.5230  -30.5840    8.7860 N.pl3  51  ARG51      -0.0865
     29  CZ        16.4360  -31.4890    9.7790 C.cat  51  ARG51       0.5346
     30  NH1       15.2510  -32.0320   10.1570 N.pl3  51  ARG51       0.1354
     31  NH2       17.5490  -31.7810   10.5190 N.pl3  51  ARG51       0.1354
     32  N         10.2360  -27.4170    7.8450 N.am   52  TRP52      -0.1960
     33  CA         9.2620  -26.5060    7.1810 C.3    52  TRP52       0.1756
     34  C          7.8740  -27.0120    7.5830 C.2    52  TRP52       0.2461
     35  O          7.7300  -28.1650    7.8960 O.2    52  TRP52      -0.2730
     36  CB         9.3470  -26.6180    5.6630 C.3    52  TRP52       0.0590
     37  CG        10.6380  -26.0350    5.0980 C.ar   52  TRP52       0.0006
     38  CD1       11.8010  -26.7300    4.7070 C.ar   52  TRP52       0.0946
     39  CD2       10.9080  -24.6650    4.9370 C.ar   52  TRP52       0.0152
     40  NE1       12.7720  -25.8010    4.3330 N.ar   52  TRP52      -0.2442
     41  CE2       12.2290  -24.5440    4.3930 C.ar   52  TRP52       0.0810
     42  CE3       10.1630  -23.4980    5.1610 C.ar   52  TRP52       0.0012
     43  CZ2       12.8040  -23.3100    4.1180 C.ar   52  TRP52       0.0191
     44  CZ3       10.7480  -22.2800    4.8470 C.ar   52  TRP52       0.0001
     45  CH2       12.0280  -22.1910    4.3530 C.ar   52  TRP52       0.0015
     46  N          6.8400  -26.1710    7.4850 N.am   53  PRO53      -0.2727
     47  CA         5.4910  -26.5480    7.9740 C.3    53  PRO53       0.1402
     48  C          4.8600  -27.3920    6.8630 C.2    53  PRO53       0.2269
     49  O          4.2840  -26.7970    5.9180 O.2    53  PRO53      -0.2865
     50  CB         4.7340  -25.1670    8.0790 C.3    53  PRO53       0.0296
     51  CG         5.5330  -24.1970    7.3420 C.3    53  PRO53       0.0237
     52  CD         6.9720  -24.7420    7.1360 C.3    53  PRO53       0.0939
     53  N          2.0780  -29.4700    5.4910 N.3    55  LYS55      -0.1245
     54  CA         0.6750  -29.8790    5.8090 C.3    55  LYS55       0.1561
     55  C          0.1820  -31.0290    4.9800 C.2    55  LYS55       0.2260
     56  O         -0.5420  -31.9020    5.4550 O.2    55  LYS55      -0.2867
     57  CB        -0.2530  -28.6960    5.4800 C.3    55  LYS55       0.0271
     58  CG        -1.7250  -28.9490    5.9180 C.3    55  LYS55       0.0035
     59  CD        -2.6700  -27.9280    5.2440 C.3    55  LYS55       0.0206
     60  CE        -3.7830  -28.6380    4.5380 C.3    55  LYS55       0.1093
     61  NZ        -4.9810  -27.7740    4.5980 N.3    55  LYS55      -0.1314
     62  N          5.2350  -18.4310    3.2360 N.3   144  ILE144     -0.1245
     63  CA         4.8660  -18.9920    4.5070 C.3   144  ILE144      0.1561
     64  C          4.6840  -17.8620    5.5130 C.2   144  ILE144      0.2260
     65  O          3.7910  -17.9560    6.3650 O.2   144  ILE144     -0.2867
     66  CB         5.9140  -20.0030    5.0000 C.3   144  ILE144      0.0252
     67  CG1        5.7860  -21.2720    4.1610 C.3   144  ILE144      0.0019
     68  CG2        5.7120  -20.3670    6.4550 C.3   144  ILE144      0.0019
     69  CD1        7.0420  -22.0770    4.1000 C.3   144  ILE144      0.0001
     70  N          1.3600  -16.1840    5.1950 N.3   147  ASP147     -0.1225
     71  CA         0.3870  -17.0540    5.8030 C.3   147  ASP147      0.1805
     72  C          0.3230  -16.8530    7.3200 C.2   147  ASP147      0.2597
     73  O         -0.7740  -16.7950    7.8700 O.2   147  ASP147     -0.2718
     74  CB         0.6960  -18.5100    5.4530 C.3   147  ASP147      0.1424
     75  CG        -0.4760  -19.4350    5.7160 C.2   147  ASP147      0.3668
     76  OD1       -1.6170  -19.1160    5.2860 O.co2 147  ASP147     -0.2456
     77  OD2       -0.2550  -20.4860    6.3560 O.co2 147  ASP147     -0.2456
     78  N          1.4790  -16.7360    7.9860 N.am  148  ILE148     -0.1980
     79  CA         1.5490  -16.5070    9.4590 C.3   148  ILE148      0.1595
     80  C          0.8840  -15.1850    9.8600 C.2   148  ILE148      0.2287
     81  O          0.1160  -15.1520   10.8340 O.2   148  ILE148     -0.2864
     82  CB         3.0480  -16.5060   10.0980 C.3   148  ILE148      0.0276
     83  CG1        3.3750  -15.2030   10.8720 C.3   148  ILE148      0.0022
     84  CG2        4.1670  -16.8330    9.0790 C.3   148  ILE148      0.0022
     85  CD1        3.1010  -15.2450   12.3490 C.3   148  ILE148      0.0001
@<TRIPOS>BOND
     1     1     2    1
     2     1     7    1
     3     2     3    1
     4     2     5    1
     5     7     6    1
     6     3     4    2
     7     3     8   am
     8    10    11    2
     9    10     9    1
    10     5     6    1
    11     8     9    1
    12    62    63    1
    13    69    67    1
    14    43    45   ar
    15    43    41   ar
    16    67    66    1
    17    40    41   ar
    18    40    38   ar
    19    45    44   ar
    20    41    39   ar
    21    63    66    1
    22    63    64    1
    23    60    61    1
    24    60    59    1
    25    38    37   ar
    26    44    42   ar
    27    39    37   ar
    28    39    42   ar
    29    55    56    2
    30    55    54    1
    31    66    68    1
    32    37    36    1
    33    70    71    1
    34    59    58    1
    35    76    75   ar
    36    74    75    1
    37    74    71    1
    38    57    54    1
    39    57    58    1
    40    53    54    1
    41    64    65    2
    42    36    33    1
    43    75    77   ar
    44    71    72    1
    45    49    48    2
    46    48    47    1
    47    52    51    1
    48    52    46    1
    49    33    34    1
    50    33    32    1
    51    72    73    2
    52    72    78   am
    53    51    50    1
    54    46    34   am
    55    46    47    1
    56    34    35    2
    57    12    13    1
    58    32    23   am
    59    27    28    1
    60    27    26    1
    61    47    50    1
    62    78    79    1
    63    25    26    1
    64    25    22    1
    65    13    16    1
    66    13    14    1
    67    23    24    2
    68    23    22    1
    69    28    29    2
    70    84    82    1
    71    22    21    1
    72    79    80    1
    73    79    82    1
    74    21    19   am
    75    14    17   am
    76    14    15    2
    77    29    30    1
    78    29    31    1
    79    80    81    2
    80    82    83    1
    81    17    18    1
    82    19    18    1
    83    19    20    2
    84    83    85    1
