@<TRIPOS>MOLECULE
tmp/3nf8A03.pdb
 89 86 0 0 0
SMALL
GASTEIGER

@<TRIPOS>ATOM
      1  N         10.9490  -24.3110   -4.3030 N.3    27  TYR27      -0.1241
      2  CA        12.0930  -24.5700   -3.4090 C.3    27  TYR27       0.1605
      3  C         12.1510  -26.1110   -3.2450 C.2    27  TYR27       0.2264
      4  O         11.0930  -26.7690   -3.1540 O.2    27  TYR27      -0.2867
      5  CB        11.7760  -23.9400   -2.0910 C.3    27  TYR27       0.0534
      6  CG        12.7010  -24.3170   -0.9570 C.ar   27  TYR27      -0.0201
      7  CD1       13.7720  -23.4600   -0.6100 C.ar   27  TYR27      -0.0009
      8  CD2       12.4170  -25.4370   -0.1730 C.ar   27  TYR27      -0.0009
      9  CE1       14.5870  -23.7580    0.5170 C.ar   27  TYR27       0.0417
     10  CE2       13.2210  -25.7830    0.9510 C.ar   27  TYR27       0.0417
     11  CZ        14.3050  -24.9070    1.2780 C.ar   27  TYR27       0.1957
     12  OH        15.0600  -25.1600    2.3950 O.3    27  TYR27      -0.2866
     13  N         10.2360  -27.4170    7.8450 N.3    52  TRP52      -0.1241
     14  CA         9.2620  -26.5060    7.1810 C.3    52  TRP52       0.1605
     15  C          7.8740  -27.0120    7.5830 C.2    52  TRP52       0.2264
     16  O          7.7300  -28.1650    7.8960 O.2    52  TRP52      -0.2867
     17  CB         9.3470  -26.6180    5.6630 C.3    52  TRP52       0.0550
     18  CG        10.6380  -26.0350    5.0980 C.ar   52  TRP52       0.0003
     19  CD1       11.8010  -26.7300    4.7070 C.ar   52  TRP52       0.0946
     20  CD2       10.9080  -24.6650    4.9370 C.ar   52  TRP52       0.0152
     21  NE1       12.7720  -25.8010    4.3330 N.ar   52  TRP52      -0.2442
     22  CE2       12.2290  -24.5440    4.3930 C.ar   52  TRP52       0.0810
     23  CE3       10.1630  -23.4980    5.1610 C.ar   52  TRP52       0.0012
     24  CZ2       12.8040  -23.3100    4.1180 C.ar   52  TRP52       0.0191
     25  CZ3       10.7480  -22.2800    4.8470 C.ar   52  TRP52       0.0001
     26  CH2       12.0280  -22.1910    4.3530 C.ar   52  TRP52       0.0015
     27  N         18.0420  -23.4320   -5.2530 N.3   128  ASN128     -0.1225
     28  CA        17.2590  -22.6280   -4.3310 C.3   128  ASN128      0.1785
     29  C         17.6860  -21.1380   -4.3490 C.2   128  ASN128      0.2597
     30  O         16.9310  -20.3140   -3.9140 O.2   128  ASN128     -0.2718
     31  CB        17.3100  -23.1650   -2.8760 C.3   128  ASN128      0.1169
     32  CG        16.4750  -24.4690   -2.7410 C.2   128  ASN128      0.2627
     33  OD1       15.5750  -24.7140   -3.5690 O.2   128  ASN128     -0.2716
     34  ND2       16.7090  -25.2550   -1.6890 N.am  128  ASN128     -0.0877
     35  N         18.9210  -20.8920   -4.7690 N.am  129  HIS129     -0.1975
     36  CA        19.4230  -19.4990   -4.7440 C.3   129  HIS129      0.1656
     37  C         19.2260  -18.8110   -6.1000 C.2   129  HIS129      0.2291
     38  O         19.4370  -17.5860   -6.1990 O.2   129  HIS129     -0.2864
     39  CB        20.9410  -19.4530   -4.4140 C.3   129  HIS129      0.0771
     40  CG        21.2530  -19.6340   -2.9530 C.ar  129  HIS129      0.0820
     41  ND1       21.3700  -20.8760   -2.3730 N.ar  129  HIS129     -0.2267
     42  CD2       21.4830  -18.7230   -1.9570 C.ar  129  HIS129      0.1154
     43  CE1       21.6480  -20.7370   -1.0850 C.ar  129  HIS129      0.1986
     44  NE2       21.7100  -19.4400   -0.8040 N.ar  129  HIS129     -0.2212
     45  N         18.1890  -16.8040   -9.2650 N.3   131  ARG131     -0.1245
     46  CA        17.1530  -15.7860   -9.4300 C.3   131  ARG131      0.1563
     47  C         16.4220  -15.9410  -10.7670 C.2   131  ARG131      0.2260
     48  O         17.0550  -16.1410  -11.7850 O.2   131  ARG131     -0.2867
     49  CB        17.7460  -14.3870   -9.2710 C.3   131  ARG131      0.0307
     50  CG        18.7080  -14.3380   -8.0960 C.3   131  ARG131      0.0489
     51  CD        18.9690  -12.9750   -7.5310 C.3   131  ARG131      0.2205
     52  NE        19.0610  -13.0440   -6.0770 N.pl3 131  ARG131     -0.0865
     53  CZ        18.0300  -12.8200   -5.2710 C.cat 131  ARG131      0.5346
     54  NH1       16.8530  -12.4640   -5.7680 N.pl3 131  ARG131      0.1354
     55  NH2       18.1770  -12.9200   -3.9660 N.pl3 131  ARG131      0.1354
     56  N         14.4110  -15.5260   -5.7440 N.3   135  SER135     -0.1217
     57  CA        14.8250  -16.9820   -5.7420 C.3   135  SER135      0.1889
     58  C         13.7020  -17.8680   -5.1800 C.2   135  SER135      0.2288
     59  O         12.7240  -17.3810   -4.5360 O.2   135  SER135     -0.2866
     60  CB        16.1190  -17.1990   -4.9260 C.3   135  SER135      0.2089
     61  OG        15.8910  -16.7540   -3.6260 O.3   135  SER135     -0.2183
     62  N         14.1210  -19.7470   -2.6460 N.3   137  GLY137     -0.1210
     63  CA        14.2840  -19.5940   -1.1810 C.3   137  GLY137      0.1956
     64  C         13.5750  -18.3410   -0.6920 C.2   137  GLY137      0.2611
     65  O         12.9020  -18.3330    0.2930 O.2   137  GLY137     -0.2717
     66  N         13.7090  -17.2640   -1.4500 N.am  138  GLU138     -0.1979
     67  CA        12.9290  -16.0650   -1.1490 C.3   138  GLU138      0.1602
     68  C         11.4300  -16.2950   -1.2490 C.2   138  GLU138      0.2287
     69  O         10.7190  -15.8610   -0.3190 O.2   138  GLU138     -0.2864
     70  CB        13.3960  -14.9340   -2.0840 C.3   138  GLU138      0.0415
     71  CG        12.8680  -13.5670   -1.8690 C.3   138  GLU138      0.1163
     72  CD        13.4900  -12.6050   -2.8870 C.2   138  GLU138      0.3649
     73  OE1       14.4720  -12.9980   -3.6470 O.co2 138  GLU138     -0.2457
     74  OE2       12.9830  -11.4720   -2.9040 O.co2 138  GLU138     -0.2457
     75  N          9.8830  -18.3970    1.7850 N.3   141  VAL141     -0.1231
     76  CA         9.8080  -17.7290    3.0760 C.3   141  VAL141      0.1692
     77  C          8.6670  -16.6520    3.0130 C.2   141  VAL141      0.2592
     78  O          7.9280  -16.5090    3.9700 O.2   141  VAL141     -0.2718
     79  CB        11.1540  -17.1040    3.4060 C.3   141  VAL141      0.0266
     80  CG1       11.0870  -16.0300    4.5020 C.3   141  VAL141      0.0020
     81  CG2       12.1750  -18.2000    3.8070 C.3   141  VAL141      0.0020
     82  N          8.5630  -15.9640    1.8820 N.am  142  ASP142     -0.1974
     83  CA         7.4560  -14.9120    1.6590 C.3   142  ASP142      0.1709
     84  C          6.0570  -15.5370    1.6990 C.2   142  ASP142      0.2293
     85  O          5.1570  -15.0380    2.3760 O.2   142  ASP142     -0.2864
     86  CB         7.6860  -14.1610    0.3330 C.3   142  ASP142      0.1436
     87  CG         8.9110  -13.1900    0.3570 C.2   142  ASP142      0.3671
     88  OD1        9.5480  -12.9970    1.4050 O.co2 142  ASP142     -0.2456
     89  OD2        9.2530  -12.6250   -0.7090 O.co2 142  ASP142     -0.2456
@<TRIPOS>BOND
     1    48    47    2
     2    47    46    1
     3    46    49    1
     4    46    45    1
     5    49    50    1
     6    50    51    1
     7    51    52    1
     8    38    37    2
     9    37    36    1
    10    52    53    2
    11    54    53    1
    12    56    57    1
    13    57    58    1
    14    57    60    1
    15    53    55    1
    16    27    28    1
    17    58    59    2
    18    60    61    1
    19    35    36    1
    20    35    29   am
    21    36    39    1
    22    39    40    1
    23    29    28    1
    24    29    30    2
    25    28    31    1
    26     1     2    1
    27    73    72   ar
    28    33    32    2
    29     2     3    1
    30     2     5    1
    31     3     4    2
    32    40    41   ar
    33    40    42   ar
    34    74    72   ar
    35    72    71    1
    36    31    32    1
    37    32    34   am
    38    62    63    1
    39    41    43   ar
    40     5     6    1
    41    70    71    1
    42    70    67    1
    43    42    44   ar
    44    66    67    1
    45    66    64   am
    46    68    67    1
    47    68    69    2
    48    63    64    1
    49    43    44   ar
    50     6     7   ar
    51     6     8   ar
    52    89    87   ar
    53    64    65    2
    54     7     9   ar
    55     8    10   ar
    56    86    87    1
    57    86    83    1
    58    87    88   ar
    59     9    11   ar
    60    10    11   ar
    61    11    12    1
    62    83    84    1
    63    83    82    1
    64    84    85    2
    65    75    76    1
    66    82    77   am
    67    77    76    1
    68    77    78    2
    69    76    79    1
    70    79    81    1
    71    79    80    1
    72    24    26   ar
    73    24    22   ar
    74    21    22   ar
    75    21    19   ar
    76    26    25   ar
    77    22    20   ar
    78    19    18   ar
    79    25    23   ar
    80    20    18   ar
    81    20    23   ar
    82    18    17    1
    83    17    14    1
    84    14    15    1
    85    14    13    1
    86    15    16    2
