@<TRIPOS>MOLECULE
tmp/3nfbB00.pdb
 97 89 0 0 0
SMALL
GASTEIGER

@<TRIPOS>ATOM
      1  N         57.9330   14.7800   35.5110 N.3    76  THR76      -0.1203
      2  CA        58.7660   15.9740   35.3450 C.3    76  THR76       0.1994
      3  C         60.2320   15.6610   35.6590 C.2    76  THR76       0.2618
      4  O         60.7400   16.0110   36.7290 O.2    76  THR76      -0.2717
      5  CB        58.2690   17.1570   36.2160 C.3    76  THR76       0.1784
      6  OG1       58.1940   16.7590   37.5920 O.3    76  THR76      -0.2211
      7  CG2       56.8950   17.6050   35.7670 C.3    76  THR76       0.0376
      8  N         60.8940   14.9820   34.7280 N.am   77  GLY77      -0.1956
      9  CA        62.2730   14.5530   34.9180 C.3    77  GLY77       0.1869
     10  C         62.7630   13.7200   33.7460 C.2    77  GLY77       0.2309
     11  O         62.0060   13.4670   32.7980 O.2    77  GLY77      -0.2863
     12  N         70.6820   15.8000   37.9870 N.3   100  THR100     -0.1218
     13  CA        70.1920   16.3170   36.7050 C.3   100  THR100      0.1862
     14  C         71.3010   16.8790   35.8030 C.2   100  THR100      0.2287
     15  O         71.2990   16.6770   34.5820 O.2   100  THR100     -0.2866
     16  CB        69.1380   17.4360   36.9360 C.3   100  THR100      0.1770
     17  OG1       68.3180   17.1050   38.0590 O.3   100  THR100     -0.2211
     18  CG2       68.2470   17.6230   35.6890 C.3   100  THR100      0.0375
     19  N         67.6210   10.9170   36.6560 N.3   133  GLU133     -0.1245
     20  CA        68.0350   12.0370   37.5180 C.3   133  GLU133      0.1567
     21  C         67.0120   12.5040   38.5560 C.2   133  GLU133      0.2260
     22  O         65.7890   12.3220   38.3920 O.2   133  GLU133     -0.2867
     23  CB        68.4350   13.2500   36.6590 C.3   133  GLU133      0.0388
     24  CG        67.3300   13.7750   35.7190 C.3   133  GLU133      0.1160
     25  CD        66.2560   14.6200   36.4190 C.2   133  GLU133      0.3649
     26  OE1       65.0980   14.6380   35.9350 O.co2 133  GLU133     -0.2457
     27  OE2       66.5550   15.2630   37.4500 O.co2 133  GLU133     -0.2457
     28  N         67.1760   16.3290   41.1320 N.3   135  LEU135     -0.1245
     29  CA        67.9480   17.5850   41.1400 C.3   135  LEU135      0.1561
     30  C         68.5610   17.9530   42.4950 C.2   135  LEU135      0.2260
     31  O         67.8360   18.1920   43.4630 O.2   135  LEU135     -0.2867
     32  CB        67.0760   18.7420   40.6350 C.3   135  LEU135      0.0270
     33  CG        67.7100   20.1320   40.5020 C.3   135  LEU135      0.0019
     34  CD1       68.9070   20.1220   39.5570 C.3   135  LEU135      0.0001
     35  CD2       66.6630   21.1500   40.0600 C.3   135  LEU135      0.0001
     36  N         69.9750   20.7270   43.5020 N.3   137  ASN137     -0.1225
     37  CA        70.2410   22.1590   43.2900 C.3   137  ASN137      0.1785
     38  C         70.4980   22.9850   44.5500 C.2   137  ASN137      0.2597
     39  O         71.0580   24.0830   44.4690 O.2   137  ASN137     -0.2718
     40  CB        69.0940   22.8040   42.5240 C.3   137  ASN137      0.1169
     41  CG        67.8000   22.7380   43.2880 C.2   137  ASN137      0.2627
     42  OD1       67.3520   21.6570   43.6730 O.2   137  ASN137     -0.2716
     43  ND2       67.2090   23.8960   43.5540 N.am  137  ASN137     -0.0877
     44  N         70.0770   22.4830   45.7040 N.am  138  ARG138     -0.1979
     45  CA        70.2850   23.2230   46.9570 C.3   138  ARG138      0.1597
     46  C         71.6950   23.0260   47.5100 C.2   138  ARG138      0.2287
     47  O         72.2710   23.9410   48.1100 O.2   138  ARG138     -0.2864
     48  CB        69.2640   22.8130   48.0210 C.3   138  ARG138      0.0334
     49  CG        67.8130   23.0660   47.6490 C.3   138  ARG138      0.0492
     50  CD        67.5250   24.5450   47.4290 C.3   138  ARG138      0.2205
     51  NE        67.8650   25.3690   48.5890 N.pl3 138  ARG138     -0.0865
     52  CZ        67.5030   26.6420   48.7290 C.cat 138  ARG138      0.5346
     53  NH1       66.7790   27.2340   47.7860 N.pl3 138  ARG138      0.1354
     54  NH2       67.8560   27.3210   49.8140 N.pl3 138  ARG138      0.1354
     55  N         64.3860   12.3600   46.6460 N.3   207  ASN207     -0.1240
     56  CA        64.5760   13.8070   46.6300 C.3   207  ASN207      0.1653
     57  C         63.2060   14.4790   46.6490 C.2   207  ASN207      0.2266
     58  O         62.9990   15.5280   46.0350 O.2   207  ASN207     -0.2867
     59  CB        65.3610   14.2090   45.3800 C.3   207  ASN207      0.1155
     60  CG        65.8570   15.6550   45.4250 C.2   207  ASN207      0.2627
     61  OD1       66.5650   16.0580   46.3500 O.2   207  ASN207     -0.2716
     62  ND2       65.5190   16.4220   44.4010 N.am  207  ASN207     -0.0877
     63  N         61.3620   14.8660   43.6170 N.3   243  SER243     -0.1217
     64  CA        61.6610   13.8000   42.6590 C.3   243  SER243      0.1889
     65  C         62.1050   12.5290   43.3700 C.2   243  SER243      0.2288
     66  O         62.6720   12.5810   44.4730 O.2   243  SER243     -0.2866
     67  CB        62.7160   14.2510   41.6450 C.3   243  SER243      0.2089
     68  OG        62.2700   15.4170   40.9510 O.3   243  SER243     -0.2183
     69  N         56.5660   19.5610   40.2560 N.3   280  LEU280     -0.1231
     70  CA        57.8550   19.4490   39.5720 C.3   280  LEU280      0.1693
     71  C         58.6910   18.2800   40.0970 C.2   280  LEU280      0.2593
     72  O         59.8820   18.1700   39.7970 O.2   280  LEU280     -0.2718
     73  CB        58.6270   20.7790   39.6450 C.3   280  LEU280      0.0284
     74  CG        58.0670   21.8960   38.7560 C.3   280  LEU280      0.0019
     75  CD1       58.8450   23.1900   38.9510 C.3   280  LEU280      0.0001
     76  CD2       58.0790   21.4810   37.2760 C.3   280  LEU280      0.0001
     77  N         58.0520   17.3960   40.8590 N.am  281  SER281     -0.1938
     78  CA        58.7210   16.2240   41.4230 C.3   281  SER281      0.2055
     79  C         58.6590   15.0830   40.4130 C.2   281  SER281      0.2643
     80  O         57.6040   14.4910   40.2170 O.2   281  SER281     -0.2714
     81  CB        58.0250   15.8040   42.7300 C.3   281  SER281      0.2130
     82  OG        58.6440   14.6860   43.3640 O.3   281  SER281     -0.2179
     83  N         59.7860   14.7820   39.7680 N.am  282  GLY282     -0.1954
     84  CA        59.8590   13.6670   38.8300 C.3   282  GLY282      0.1869
     85  C         59.9270   12.3330   39.5580 C.2   282  GLY282      0.2309
     86  O         60.9860   11.9310   40.0500 O.2   282  GLY282     -0.2863
     87  N         59.3250    8.2810   39.3130 N.3   284  PHE284     -0.1241
     88  CA        59.2860    7.2150   38.3030 C.3   284  PHE284      0.1605
     89  C         59.6630    5.8760   38.9460 C.2   284  PHE284      0.2264
     90  O         60.4460    5.8400   39.9080 O.2   284  PHE284     -0.2867
     91  CB        60.3620    7.4400   37.2310 C.3   284  PHE284      0.0534
     92  CG        60.2830    8.7550   36.4720 C.ar  284  PHE284     -0.0203
     93  CD1       60.9020    9.8990   36.9580 C.ar  284  PHE284     -0.0042
     94  CD2       59.7000    8.8020   35.2120 C.ar  284  PHE284     -0.0042
     95  CE1       60.8890   11.0880   36.2300 C.ar  284  PHE284     -0.0003
     96  CE2       59.6740    9.9740   34.4780 C.ar  284  PHE284     -0.0003
     97  CZ        60.2730   11.1240   34.9800 C.ar  284  PHE284     -0.0000
@<TRIPOS>BOND
     1    11    10    2
     2    10     9    1
     3    96    97   ar
     4    96    94   ar
     5    15    14    2
     6     8     9    1
     7     8     3   am
     8    97    95   ar
     9    94    92   ar
    10     2     1    1
    11     2     3    1
    12     2     5    1
    13     3     4    2
    14    18    16    1
    15    24    25    1
    16    24    23    1
    17     7     5    1
    18    14    13    1
    19    26    25   ar
    20     5     6    1
    21    95    93   ar
    22    25    27   ar
    23    92    93   ar
    24    92    91    1
    25    19    20    1
    26    23    20    1
    27    13    16    1
    28    13    12    1
    29    16    17    1
    30    91    88    1
    31    76    74    1
    32    20    21    1
    33    88    89    1
    34    88    87    1
    35    22    21    2
    36    74    75    1
    37    74    73    1
    38    84    85    1
    39    84    83    1
    40    89    90    2
    41    34    33    1
    42    85    86    2
    43    70    73    1
    44    70    71    1
    45    70    69    1
    46    83    79   am
    47    72    71    2
    48    35    33    1
    49    71    77   am
    50    80    79    2
    51    79    78    1
    52    33    32    1
    53    32    29    1
    54    77    78    1
    55    68    67    1
    56    28    29    1
    57    29    30    1
    58    78    81    1
    59    67    64    1
    60    30    31    2
    61    40    41    1
    62    40    37    1
    63    64    65    1
    64    64    63    1
    65    81    82    1
    66    41    43   am
    67    41    42    2
    68    37    36    1
    69    37    38    1
    70    65    66    2
    71    62    60   am
    72    39    38    2
    73    38    44   am
    74    59    60    1
    75    59    56    1
    76    60    61    2
    77    44    45    1
    78    58    57    2
    79    56    55    1
    80    56    57    1
    81    45    46    1
    82    45    48    1
    83    50    49    1
    84    50    51    1
    85    46    47    2
    86    49    48    1
    87    53    52    1
    88    51    52    2
    89    52    54    1
