@<TRIPOS>MOLECULE
tmp/3nfkB00.pdb
 133 130 0 0 0
SMALL
GASTEIGER

@<TRIPOS>ATOM
      1  N         37.1720  -12.9070   -1.0770 N.3    15  GLY15      -0.1210
      2  CA        35.8090  -12.4180   -0.8680 C.3    15  GLY15       0.1956
      3  C         35.6350  -10.9160   -1.0350 C.2    15  GLY15       0.2612
      4  O         34.6790  -10.3180   -0.5250 O.2    15  GLY15      -0.2717
      5  N         36.5520  -10.2840   -1.7890 N.am   16  ARG16      -0.1965
      6  CA        36.5200   -8.8360   -2.0100 C.3    16  ARG16       0.1729
      7  C         36.0190   -8.5290   -3.4080 C.2    16  ARG16       0.2616
      8  O         36.2410   -9.3000   -4.3430 O.2    16  ARG16      -0.2715
      9  CB        37.9290   -8.2460   -1.8880 C.3    16  ARG16       0.0348
     10  CG        38.5830   -8.4230   -0.5190 C.3    16  ARG16       0.0492
     11  CD        40.0910   -8.2370   -0.5710 C.3    16  ARG16       0.2205
     12  NE        40.4990   -6.8340   -0.6940 N.pl3  16  ARG16      -0.0865
     13  CZ        41.7070   -6.4320   -1.0830 C.cat  16  ARG16       0.5346
     14  NH1       42.6290   -7.3200   -1.4360 N.pl3  16  ARG16       0.1354
     15  NH2       41.9870   -5.1380   -1.1640 N.pl3  16  ARG16       0.1354
     16  N         35.4040   -7.3540   -3.5500 N.am   17  PHE17      -0.1960
     17  CA        34.9000   -6.8970   -4.8400 C.3    17  PHE17       0.1771
     18  C         35.7260   -5.7620   -5.4400 C.2    17  PHE17       0.2620
     19  O         35.7470   -5.6370   -6.6640 O.2    17  PHE17      -0.2715
     20  CB        33.4540   -6.4620   -4.6880 C.3    17  PHE17       0.0574
     21  CG        32.5210   -7.5900   -4.3880 C.ar   17  PHE17      -0.0200
     22  CD1       32.2150   -8.5370   -5.3620 C.ar   17  PHE17      -0.0042
     23  CD2       31.9850   -7.7500   -3.1100 C.ar   17  PHE17      -0.0042
     24  CE1       31.3380   -9.5970   -5.0730 C.ar   17  PHE17      -0.0003
     25  CE2       31.1260   -8.8140   -2.8190 C.ar   17  PHE17      -0.0003
     26  CZ        30.8080   -9.7270   -3.7960 C.ar   17  PHE17      -0.0000
     27  N         36.3850   -4.9620   -4.6080 N.am   18  GLY18      -0.1940
     28  CA        37.2510   -3.9050   -5.0930 C.3    18  GLY18       0.2014
     29  C         36.6670   -2.5230   -5.2240 C.2    18  GLY18       0.2639
     30  O         37.2680   -1.6820   -5.8820 O.2    18  GLY18      -0.2714
     31  N         35.5320   -2.2410   -4.5880 N.am   19  PHE19      -0.1959
     32  CA        34.9980   -0.8980   -4.6740 C.3    19  PHE19       0.1771
     33  C         34.6530   -0.4200   -3.2910 C.2    19  PHE19       0.2620
     34  O         34.5190   -1.2240   -2.3670 O.2    19  PHE19      -0.2715
     35  CB        33.7370   -0.8460   -5.5600 C.3    19  PHE19       0.0574
     36  CG        32.5330   -1.6170   -5.0420 C.ar   19  PHE19      -0.0200
     37  CD1       31.4960   -0.9610   -4.3700 C.ar   19  PHE19      -0.0042
     38  CD2       32.3920   -2.9770   -5.3050 C.ar   19  PHE19      -0.0042
     39  CE1       30.3600   -1.6590   -3.9560 C.ar   19  PHE19      -0.0003
     40  CE2       31.2430   -3.6630   -4.9090 C.ar   19  PHE19      -0.0003
     41  CZ        30.2420   -3.0090   -4.2220 C.ar   19  PHE19      -0.0000
     42  N         34.4900    0.8870   -3.1590 N.am   20  ASN20      -0.1958
     43  CA        34.0870    1.5080   -1.9040 C.3    20  ASN20       0.1819
     44  C         32.7270    2.1570   -2.0910 C.2    20  ASN20       0.2621
     45  O         32.3890    2.6110   -3.2030 O.2    20  ASN20      -0.2715
     46  CB        35.0630    2.6120   -1.4600 C.3    20  ASN20       0.1195
     47  CG        36.5070    2.2150   -1.2900 C.2    20  ASN20       0.2630
     48  OD1       36.9020    1.0680   -1.4940 O.2    20  ASN20      -0.2716
     49  ND2       37.3100    3.1750   -0.8530 N.am   20  ASN20      -0.0877
     50  N         31.9470    2.2300   -1.0030 N.am   21  VAL21      -0.1963
     51  CA        30.6830    2.9610   -1.0340 C.3    21  VAL21       0.1727
     52  C         30.6440    4.0050    0.0410 C.2    21  VAL21       0.2616
     53  O         31.2000    3.8060    1.1290 O.2    21  VAL21      -0.2715
     54  CB        29.4100    2.1020   -0.9560 C.3    21  VAL21       0.0290
     55  CG1       29.2100    1.2860   -2.2240 C.3    21  VAL21       0.0023
     56  CG2       29.3750    1.2350    0.2950 C.3    21  VAL21       0.0023
     57  N         29.9500    5.1110   -0.2470 N.am   22  LYS22      -0.1977
     58  CA        29.6370    6.1600    0.7140 C.3    22  LYS22       0.1596
     59  C         28.1040    6.3120    0.6860 C.2    22  LYS22       0.2287
     60  O         27.4380    5.9170   -0.2860 O.2    22  LYS22      -0.2864
     61  CB        30.2810    7.5010    0.3380 C.3    22  LYS22       0.0298
     62  CG        31.7400    7.6180    0.7140 C.3    22  LYS22       0.0038
     63  CD        32.2990    8.9910    0.3530 C.3    22  LYS22       0.0206
     64  CE        33.7810    9.0620    0.6400 C.3    22  LYS22       0.1093
     65  NZ        34.4570   10.1090   -0.1720 N.3    22  LYS22      -0.1314
     66  N         23.1560    8.7170    6.7330 N.3    27  GLN27      -0.1196
     67  CA        24.0370    9.8020    6.2860 C.3    27  GLN27       0.1782
     68  C         23.2480   10.8540    5.4940 C.2    27  GLN27       0.2306
     69  O         23.8440   11.8450    5.0620 O.2    27  GLN27      -0.2863
     70  CB        25.1750    9.2530    5.3900 C.2    27  GLN27       0.0051
     71  CG        26.1610    8.3070    6.0950 C.2    27  GLN27       0.0584
     72  CD        27.3670    7.9150    5.2750 C.2    27  GLN27       0.2840
     73  OE1       27.7290    8.5340    4.2560 O.2    27  GLN27      -0.2667
     74  NE2       28.0510    6.8820    5.7290 N.am   27  GLN27      -0.0837
     75  N         32.2710    5.2560   -4.3120 N.3    34  SER34      -0.1202
     76  CA        33.2660    6.3120   -4.1020 C.3    34  SER34       0.2020
     77  C         34.6580    5.9600   -4.6430 C.2    34  SER34       0.2618
     78  O         35.5360    6.8380   -4.6900 O.2    34  SER34      -0.2717
     79  CB        33.3540    6.6480   -2.6210 C.3    34  SER34       0.2103
     80  OG        33.6160    5.4640   -1.8780 O.3    34  SER34      -0.2182
     81  N         34.8690    4.6920   -5.0470 N.am   35  ARG35      -0.1979
     82  CA        36.1580    4.2510   -5.5720 C.3    35  ARG35       0.1597
     83  C         35.9920    2.8840   -6.1830 C.2    35  ARG35       0.2287
     84  O         35.2240    2.0620   -5.6680 O.2    35  ARG35      -0.2864
     85  CB        37.2010    4.1250   -4.4330 C.3    35  ARG35       0.0334
     86  CG        38.6500    4.0810   -4.9390 C.3    35  ARG35       0.0492
     87  CD        39.6480    3.8270   -3.8340 C.3    35  ARG35       0.2205
     88  NE        40.9770    3.5200   -4.3700 N.pl3  35  ARG35      -0.0865
     89  CZ        41.5900    2.3470   -4.2440 C.cat  35  ARG35       0.5346
     90  NH1       41.0080    1.3520   -3.5840 N.pl3  35  ARG35       0.1354
     91  NH2       42.7930    2.1610   -4.7700 N.pl3  35  ARG35       0.1354
     92  N         23.8970    2.9290    5.9080 N.3    68  HIS68      -0.1226
     93  CA        25.2030    2.6080    5.3220 C.3    68  HIS68       0.1752
     94  C         25.6330    1.1970    5.7260 C.2    68  HIS68       0.2596
     95  O         26.0240    0.3970    4.8650 O.2    68  HIS68      -0.2718
     96  CB        26.2690    3.6200    5.7740 C.3    68  HIS68       0.0759
     97  CG        27.6270    3.3400    5.2070 C.ar   68  HIS68       0.0818
     98  ND1       28.0130    3.8430    3.9740 N.ar   68  HIS68      -0.2268
     99  CD2       28.6480    2.6120    5.7200 C.ar   68  HIS68       0.1154
    100  CE1       29.2410    3.3820    3.7600 C.ar   68  HIS68       0.1986
    101  NE2       29.6630    2.6350    4.7830 N.ar   68  HIS68      -0.2212
    102  N         25.5690    0.8840    7.0400 N.am   69  ASP69      -0.1974
    103  CA        26.0080   -0.4400    7.4730 C.3    69  ASP69       0.1709
    104  C         25.0880   -1.5720    7.0070 C.2    69  ASP69       0.2293
    105  O         25.5870   -2.6730    6.7660 O.2    69  ASP69      -0.2864
    106  CB        26.2330   -0.4470    8.9940 C.3    69  ASP69       0.1436
    107  CG        27.4650    0.3210    9.4630 C.2    69  ASP69       0.3671
    108  OD1       28.2680    0.7590    8.6020 O.co2  69  ASP69      -0.2456
    109  OD2       27.6770    0.4110   10.6970 O.co2  69  ASP69      -0.2456
    110  N         26.3120   -2.2130    3.5040 N.3    72  VAL72      -0.1245
    111  CA        27.5770   -2.9590    3.5570 C.3    72  VAL72       0.1561
    112  C         27.2640   -4.4400    3.8140 C.2    72  VAL72       0.2260
    113  O         27.7860   -5.3030    3.0970 O.2    72  VAL72      -0.2867
    114  CB        28.5120   -2.3790    4.6380 C.3    72  VAL72       0.0252
    115  CG1       29.6400   -3.3470    5.0010 C.3    72  VAL72       0.0019
    116  CG2       29.0680   -1.0390    4.1860 C.3    72  VAL72       0.0019
    117  N         25.9160   -6.2590    0.7620 N.3    75  ILE75      -0.1231
    118  CA        26.9890   -6.6120   -0.1500 C.3    75  ILE75       0.1692
    119  C         27.7400   -7.8360    0.3530 C.2    75  ILE75       0.2591
    120  O         28.0080   -8.7660   -0.4270 O.2    75  ILE75      -0.2718
    121  CB        27.8910   -5.4060   -0.4600 C.3    75  ILE75       0.0266
    122  CG1       27.0680   -4.3210   -1.2170 C.3    75  ILE75       0.0019
    123  CG2       29.1140   -5.8300   -1.3070 C.3    75  ILE75       0.0020
    124  CD1       27.6880   -2.9440   -1.1420 C.3    75  ILE75       0.0001
    125  N         28.0520   -7.8590    1.6610 N.am   76  LYS76      -0.1980
    126  CA        28.7720   -9.0070    2.2450 C.3    76  LYS76       0.1596
    127  C         27.9670  -10.3150    2.2610 C.2    76  LYS76       0.2287
    128  O         28.5790  -11.4050    2.3140 O.2    76  LYS76      -0.2864
    129  CB        29.3520   -8.6260    3.6380 C.3    76  LYS76       0.0298
    130  CG        30.6770   -7.9050    3.3910 C.3    76  LYS76       0.0038
    131  CD        31.3040   -7.1860    4.5510 C.3    76  LYS76       0.0206
    132  CE        32.4150   -6.2840    4.0570 C.3    76  LYS76       0.1093
    133  NZ        33.5490   -7.0250    3.4200 N.3    76  LYS76      -0.1314
@<TRIPOS>BOND
     1    19    18    2
     2    83    84    2
     3    83    82    1
     4    30    29    2
     5    82    81    1
     6    82    85    1
     7    35    36    1
     8    35    32    1
     9    18    17    1
    10    18    27   am
    11    22    24   ar
    12    22    21   ar
    13    38    36   ar
    14    38    40   ar
    15    29    28    1
    16    29    31   am
    17    28    27    1
    18    24    26   ar
    19    81    77   am
    20    36    37   ar
    21    86    85    1
    22    86    87    1
    23    40    41   ar
    24    17    20    1
    25    17    16    1
    26    91    89    1
    27    78    77    2
    28    20    21    1
    29    32    31    1
    30    32    33    1
    31    77    76    1
    32    21    23   ar
    33    88    89    2
    34    88    87    1
    35    37    39   ar
    36     8     7    2
    37    75    76    1
    38    89    90    1
    39    41    39   ar
    40    76    79    1
    41    26    25   ar
    42    16     7   am
    43     7     6    1
    44    33    42   am
    45    33    34    2
    46    45    44    2
    47    42    43    1
    48    23    25   ar
    49    79    80    1
    50    55    54    1
    51    44    43    1
    52    44    50   am
    53     6     9    1
    54     6     5    1
    55    43    46    1
    56     9    10    1
    57     5     3   am
    58    48    47    2
    59    46    47    1
    60    14    13    1
    61   123   121    1
    62    47    49   am
    63   122   124    1
    64   122   121    1
    65    15    13    1
    66    13    12    2
    67     1     2    1
    68     3     2    1
    69     3     4    2
    70    51    50    1
    71    51    54    1
    72    51    52    1
    73    54    56    1
    74    12    11    1
    75    11    10    1
    76   121   118    1
    77   120   119    2
    78    60    59    2
    79    57    52   am
    80    57    58    1
    81    65    64    1
    82   118   119    1
    83   118   117    1
    84    52    53    2
    85    61    58    1
    86    61    62    1
    87    63    64    1
    88    63    62    1
    89   119   125   am
    90    59    58    1
    91   125   126    1
    92   126   127    1
    93   126   129    1
    94   127   128    2
    95   113   112    2
    96   130   129    1
    97   130   131    1
    98   133   132    1
    99   110   111    1
   100   111   112    1
   101   111   114    1
   102   100    98   ar
   103   100   101   ar
   104    98    97   ar
   105   132   131    1
   106   116   114    1
   107    73    72    2
   108   114   115    1
   109   101    99   ar
   110    95    94    2
   111    69    68    2
   112    97    99   ar
   113    97    96    1
   114    72    74   am
   115    72    71    1
   116    93    94    1
   117    93    96    1
   118    93    92    1
   119    70    71    2
   120    70    67    1
   121    68    67    1
   122    94   102   am
   123    67    66    1
   124   105   104    2
   125   104   103    1
   126   102   103    1
   127   103   106    1
   128   108   107   ar
   129   106   107    1
   130   107   109   ar
