@<TRIPOS>MOLECULE
tmp/3nfkA00.pdb
 141 138 0 0 0
SMALL
GASTEIGER

@<TRIPOS>ATOM
      1  N         20.5840  -18.0790    7.1620 N.3    14  GLY14      -0.1210
      2  CA        21.8950  -17.4730    7.3430 C.3    14  GLY14       0.1956
      3  C         22.4650  -17.5310    8.7490 C.2    14  GLY14       0.2612
      4  O         23.4740  -16.8740    9.0460 O.2    14  GLY14      -0.2717
      5  N         21.8170  -18.2870    9.6380 N.am   15  ARG15      -0.1965
      6  CA        22.2140  -18.3480   11.0430 C.3    15  ARG15       0.1729
      7  C         22.9530  -19.6240   11.3770 C.2    15  ARG15       0.2616
      8  O         22.6600  -20.6960   10.8280 O.2    15  ARG15      -0.2715
      9  CB        21.0160  -18.1970   11.9560 C.3    15  ARG15       0.0348
     10  CG        20.3130  -16.8520   11.6840 C.3    15  ARG15       0.0492
     11  CD        19.2510  -16.5280   12.7270 C.3    15  ARG15       0.2205
     12  NE        18.5080  -15.3110   12.3810 N.pl3  15  ARG15      -0.0865
     13  CZ        17.3430  -15.2900   11.7340 C.cat  15  ARG15       0.5346
     14  NH1       16.7520  -16.4250   11.3730 N.pl3  15  ARG15       0.1354
     15  NH2       16.7500  -14.1350   11.4620 N.pl3  15  ARG15       0.1354
     16  N         23.9040  -19.5030   12.2810 N.am   16  PHE16      -0.1960
     17  CA        24.7530  -20.6340   12.6760 C.3    16  PHE16       0.1771
     18  C         24.3630  -21.2200   14.0310 C.2    16  PHE16       0.2620
     19  O         24.6560  -22.3950   14.2470 O.2    16  PHE16      -0.2715
     20  CB        26.2000  -20.1890   12.7270 C.3    16  PHE16       0.0574
     21  CG        26.7440  -19.8150   11.3750 C.ar   16  PHE16      -0.0200
     22  CD1       27.1130  -20.7960   10.4550 C.ar   16  PHE16      -0.0042
     23  CD2       26.8780  -18.4870   11.0150 C.ar   16  PHE16      -0.0042
     24  CE1       27.6420  -20.4550    9.2170 C.ar   16  PHE16      -0.0003
     25  CE2       27.3730  -18.1380    9.7520 C.ar   16  PHE16      -0.0003
     26  CZ        27.7490  -19.1230    8.8590 C.ar   16  PHE16      -0.0000
     27  N         23.7770  -20.4350   14.9330 N.am   17  GLY17      -0.1940
     28  CA        23.3200  -20.9880   16.2060 C.3    17  GLY17       0.2014
     29  C         24.2670  -20.8490   17.3660 C.2    17  GLY17       0.2639
     30  O         24.0190  -21.4530   18.4100 O.2    17  GLY17      -0.2714
     31  N         25.3450  -20.0820   17.2230 N.am   18  PHE18      -0.1959
     32  CA        26.2600  -19.8450   18.3140 C.3    18  PHE18       0.1771
     33  C         26.3160  -18.3740   18.6270 C.2    18  PHE18       0.2620
     34  O         26.0330  -17.5190   17.7780 O.2    18  PHE18      -0.2715
     35  CB        27.6470  -20.4440   18.0530 C.3    18  PHE18       0.0574
     36  CG        28.4580  -19.7560   16.9860 C.ar   18  PHE18      -0.0200
     37  CD1       29.4240  -18.8080   17.3260 C.ar   18  PHE18      -0.0042
     38  CD2       28.2760  -20.0710   15.6420 C.ar   18  PHE18      -0.0042
     39  CE1       30.1810  -18.1830   16.3430 C.ar   18  PHE18      -0.0003
     40  CE2       29.0500  -19.4550   14.6580 C.ar   18  PHE18      -0.0003
     41  CZ        29.9880  -18.4970   15.0150 C.ar   18  PHE18      -0.0000
     42  N         26.6740  -18.1080   19.8850 N.am   19  ASN19      -0.1958
     43  CA        26.8860  -16.7300   20.3230 C.3    19  ASN19       0.1819
     44  C         28.3370  -16.5800   20.6630 C.2    19  ASN19       0.2621
     45  O         29.0150  -17.5370   21.0220 O.2    19  ASN19      -0.2715
     46  CB        26.1020  -16.4400   21.6190 C.3    19  ASN19       0.1195
     47  CG        24.6240  -16.5220   21.5040 C.2    19  ASN19       0.2630
     48  OD1       24.0580  -16.9130   20.4910 O.2    19  ASN19      -0.2716
     49  ND2       23.9490  -16.2640   22.6200 N.am   19  ASN19      -0.0877
     50  N         28.8220  -15.3310   20.5720 N.am   20  VAL20      -0.1963
     51  CA        30.1900  -15.0370   20.9960 C.3    20  VAL20       0.1727
     52  C         30.2190  -13.8550   21.9620 C.2    20  VAL20       0.2616
     53  O         29.3500  -12.9830   21.8940 O.2    20  VAL20      -0.2715
     54  CB        31.1450  -14.7160   19.8220 C.3    20  VAL20       0.0290
     55  CG1       31.3750  -15.9490   18.9410 C.3    20  VAL20       0.0023
     56  CG2       30.6610  -13.5210   18.9850 C.3    20  VAL20       0.0023
     57  N         31.2150  -13.8550   22.8650 N.am   21  LYS21      -0.1977
     58  CA        31.5660  -12.7270   23.7190 C.3    21  LYS21       0.1596
     59  C         33.0400  -12.4290   23.4090 C.2    21  LYS21       0.2287
     60  O         33.7240  -13.2620   22.7750 O.2    21  LYS21      -0.2864
     61  CB        31.4330  -13.0550   25.2250 C.3    21  LYS21       0.0298
     62  CG        29.9920  -13.2080   25.7010 C.3    21  LYS21       0.0038
     63  CD        29.9070  -13.6230   27.1490 C.3    21  LYS21       0.0206
     64  CE        28.4850  -13.8140   27.5920 C.3    21  LYS21       0.1093
     65  NZ        28.4280  -14.0600   29.0780 N.3    21  LYS21      -0.1314
     66  N         38.0360   -4.8540   21.8910 N.3    25  ASP25      -0.1225
     67  CA        37.3720   -3.7920   22.6480 C.3    25  ASP25       0.1805
     68  C         36.8650   -4.2550   24.0060 C.2    25  ASP25       0.2597
     69  O         36.6180   -3.4070   24.8720 O.2    25  ASP25      -0.2718
     70  CB        36.2090   -3.2600   21.8180 C.3    25  ASP25       0.1424
     71  CG        35.2190   -4.2930   21.3530 C.2    25  ASP25       0.3668
     72  OD1       35.6410   -5.4290   21.0300 O.co2  25  ASP25      -0.2456
     73  OD2       34.0170   -3.9520   21.2360 O.co2  25  ASP25      -0.2456
     74  N         36.7180   -5.5560   24.2070 N.am   26  GLN26      -0.1979
     75  CA        36.2860   -6.1230   25.4790 C.3    26  GLN26       0.1601
     76  C         37.5010   -6.5880   26.3070 C.2    26  GLN26       0.2287
     77  O         37.3140   -7.0590   27.4280 O.2    26  GLN26      -0.2864
     78  CB        35.3040   -7.2650   25.2640 C.3    26  GLN26       0.0394
     79  CG        33.9920   -6.7680   24.6450 C.3    26  GLN26       0.0908
     80  CD        32.9530   -7.8530   24.6110 C.2    26  GLN26       0.2608
     81  OE1       33.0690   -8.9050   25.2850 O.2    26  GLN26      -0.2717
     82  NE2       31.9370   -7.6370   23.8060 N.am   26  GLN26      -0.0878
     83  N         29.9650  -18.3980   23.6120 N.3    33  SER33      -0.1202
     84  CA        29.2480  -18.3110   24.8640 C.3    33  SER33       0.2020
     85  C         27.9660  -19.1300   24.9250 C.2    33  SER33       0.2618
     86  O         27.4090  -19.3270   26.0170 O.2    33  SER33      -0.2717
     87  CB        28.9590  -16.8460   25.1660 C.3    33  SER33       0.2103
     88  OG        28.2980  -16.2540   24.0570 O.3    33  SER33      -0.2182
     89  N         27.4520  -19.5810   23.7620 N.am   34  ARG34      -0.1979
     90  CA        26.2420  -20.3860   23.7160 C.3    34  ARG34       0.1597
     91  C         26.2370  -21.1120   22.3880 C.2    34  ARG34       0.2287
     92  O         26.7120  -20.5770   21.3700 O.2    34  ARG34      -0.2864
     93  CB        24.9790  -19.4870   23.7850 C.3    34  ARG34       0.0334
     94  CG        23.7130  -20.3130   24.0120 C.3    34  ARG34       0.0492
     95  CD        22.4580  -19.4970   24.2590 C.3    34  ARG34       0.2205
     96  NE        21.3050  -20.4010   24.2710 N.pl3  34  ARG34      -0.0865
     97  CZ        20.5280  -20.6410   23.2190 C.cat  34  ARG34       0.5346
     98  NH1       20.7170  -19.9830   22.0800 N.pl3  34  ARG34       0.1354
     99  NH2       19.5320  -21.5140   23.3090 N.pl3  34  ARG34       0.1354
    100  N         34.8790   -6.8770   18.7600 N.3    67  HIS67      -0.1226
    101  CA        33.7640   -7.7980   18.7340 C.3    67  HIS67       0.1752
    102  C         32.9400   -7.6330   17.4510 C.2    67  HIS67       0.2596
    103  O         32.6200   -8.6380   16.8030 O.2    67  HIS67      -0.2718
    104  CB        32.8560   -7.5020   19.9510 C.3    67  HIS67       0.0759
    105  CG        31.6870   -8.4240   20.1190 C.ar   67  HIS67       0.0818
    106  ND1       31.7510   -9.5410   20.9340 N.ar   67  HIS67      -0.2268
    107  CD2       30.4520   -8.3640   19.5660 C.ar   67  HIS67       0.1154
    108  CE1       30.5470  -10.1140   20.8650 C.ar   67  HIS67       0.1986
    109  NE2       29.7300   -9.4320   20.0690 N.ar   67  HIS67      -0.2212
    110  N         32.4980   -6.3970   17.1400 N.am   68  ASP68      -0.1974
    111  CA        31.6390   -6.2180   15.9760 C.3    68  ASP68       0.1709
    112  C         32.3920   -6.4670   14.6680 C.2    68  ASP68       0.2293
    113  O         31.7540   -6.8860   13.6930 O.2    68  ASP68      -0.2864
    114  CB        30.9600   -4.8590   16.0150 C.3    68  ASP68       0.1436
    115  CG        29.8450   -4.7310   17.0490 C.2    68  ASP68       0.3671
    116  OD1       29.4710   -5.7710   17.6840 O.co2  68  ASP68      -0.2456
    117  OD2       29.3440   -3.6010   17.2270 O.co2  68  ASP68      -0.2456
    118  N         31.9990  -10.1300   14.3370 N.3    71  VAL71      -0.1245
    119  CA        30.6620  -10.4600   13.8890 C.3    71  VAL71       0.1561
    120  C         30.5420  -10.2710   12.3690 C.2    71  VAL71       0.2260
    121  O         30.0170  -11.1860   11.6930 O.2    71  VAL71      -0.2867
    122  CB        29.6080   -9.6310   14.6690 C.3    71  VAL71       0.0252
    123  CG1       28.2080   -9.7180   14.0460 C.3    71  VAL71       0.0019
    124  CG2       29.5890  -10.0520   16.1230 C.3    71  VAL71       0.0019
    125  N         32.1520  -13.0980   10.5360 N.3    74  ILE74      -0.1231
    126  CA        31.3150  -14.2990   10.5030 C.3    74  ILE74       0.1692
    127  C         30.2070  -14.1840    9.4570 C.2    74  ILE74       0.2591
    128  O         29.8490  -15.1790    8.8310 O.2    74  ILE74      -0.2718
    129  CB        30.7490  -14.5590   11.9270 C.3    74  ILE74       0.0266
    130  CG1       31.9290  -14.9830   12.8660 C.3    74  ILE74       0.0019
    131  CG2       29.6590  -15.6750   11.9270 C.3    74  ILE74       0.0020
    132  CD1       31.6300  -14.9010   14.3820 C.3    74  ILE74       0.0001
    133  N         29.6550  -12.9900    9.3030 N.am   75  LYS75      -0.1980
    134  CA        28.5560  -12.7600    8.3570 C.3    75  LYS75       0.1596
    135  C         29.0600  -12.5010    6.9380 C.2    75  LYS75       0.2287
    136  O         28.2310  -12.3580    6.0230 O.2    75  LYS75      -0.2864
    137  CB        27.6690  -11.6210    8.8800 C.3    75  LYS75       0.0298
    138  CG        27.0580  -12.0150   10.2250 C.3    75  LYS75       0.0038
    139  CD        25.9790  -11.0560   10.7250 C.3    75  LYS75       0.0206
    140  CE        24.6580  -11.2410    9.9930 C.3    75  LYS75       0.1093
    141  NZ        23.5490  -10.5660   10.7420 N.3    75  LYS75      -0.1314
@<TRIPOS>BOND
     1   136   135    2
     2   135   134    1
     3     1     2    1
     4     2     3    1
     5   134   137    1
     6   134   133    1
     7     3     4    2
     8     3     5   am
     9   128   127    2
    10    26    24   ar
    11    26    25   ar
    12   137   138    1
    13    24    22   ar
    14   133   127   am
    15   127   126    1
    16     5     6    1
    17    25    23   ar
    18   140   139    1
    19   140   141    1
    20   138   139    1
    21    22    21   ar
    22   126   125    1
    23   126   129    1
    24     8     7    2
    25    23    21   ar
    26     6     7    1
    27     6     9    1
    28    14    13    1
    29    21    20    1
    30     7    16   am
    31    15    13    1
    32    10     9    1
    33    10    11    1
    34   121   120    2
    35    13    12    2
    36   131   129    1
    37   129   130    1
    38    16    17    1
    39   120   119    1
    40    12    11    1
    41    17    20    1
    42    17    18    1
    43   130   132    1
    44   113   112    2
    45   119   118    1
    46   119   122    1
    47    18    19    2
    48    18    27   am
    49   123   122    1
    50    40    41   ar
    51    40    38   ar
    52   112   111    1
    53   122   124    1
    54    27    28    1
    55    41    39   ar
    56    38    36   ar
    57   111   114    1
    58   111   110    1
    59   114   115    1
    60    28    29    1
    61    39    37   ar
    62   103   102    2
    63    36    37   ar
    64    36    35    1
    65   115   117   ar
    66   115   116   ar
    67   110   102   am
    68    31    29   am
    69    31    32    1
    70    29    30    2
    71   102   101    1
    72    34    33    2
    73    35    32    1
    74    32    33    1
    75    33    42   am
    76   101   100    1
    77   101   104    1
    78    55    54    1
    79    56    54    1
    80   107   109   ar
    81   107   105   ar
    82    54    51    1
    83    42    43    1
    84   104   105    1
    85   109   108   ar
    86   105   106   ar
    87    43    44    1
    88    43    46    1
    89    48    47    2
    90    50    44   am
    91    50    51    1
    92    44    45    2
    93   108   106   ar
    94    51    52    1
    95    72    71   ar
    96    73    71   ar
    97    71    70    1
    98    92    91    2
    99    47    46    1
   100    47    49   am
   101    70    67    1
   102    66    67    1
   103    53    52    2
   104    52    57   am
   105    98    97    1
   106    91    90    1
   107    67    68    1
   108    60    59    2
   109    57    58    1
   110    97    99    1
   111    97    96    2
   112    59    58    1
   113    83    84    1
   114    90    89    1
   115    90    93    1
   116    58    61    1
   117    89    85   am
   118    93    94    1
   119    82    80   am
   120    68    74   am
   121    68    69    2
   122    94    95    1
   123    88    87    1
   124    74    75    1
   125    95    96    1
   126    80    79    1
   127    80    81    2
   128    79    78    1
   129    84    85    1
   130    84    87    1
   131    85    86    2
   132    61    62    1
   133    78    75    1
   134    75    76    1
   135    62    63    1
   136    76    77    2
   137    63    64    1
   138    64    65    1
