@<TRIPOS>MOLECULE
tmp/3nfmA00.pdb
 126 122 0 0 0
SMALL
GASTEIGER

@<TRIPOS>ATOM
      1  N         -6.6700   25.9620   -0.5250 N.3    70  TYR70      -0.1227
      2  CA        -7.0450   24.6120   -0.1220 C.3    70  TYR70       0.1736
      3  C         -7.3020   23.8500   -1.4110 C.2    70  TYR70       0.2595
      4  O         -7.8830   24.3840   -2.3520 O.2    70  TYR70      -0.2718
      5  CB        -8.3400   24.5880    0.7130 C.3    70  TYR70       0.0548
      6  CG        -8.2600   25.1510    2.1190 C.ar   70  TYR70      -0.0200
      7  CD1       -9.4250   25.4140    2.8400 C.ar   70  TYR70      -0.0009
      8  CD2       -7.0380   25.4530    2.7160 C.ar   70  TYR70      -0.0009
      9  CE1       -9.3760   25.9730    4.1190 C.ar   70  TYR70       0.0417
     10  CE2       -6.9770   26.0110    3.9860 C.ar   70  TYR70       0.0417
     11  CZ        -8.1460   26.2740    4.6840 C.ar   70  TYR70       0.1957
     12  OH        -8.0740   26.8570    5.9330 O.3    70  TYR70      -0.2866
     13  N         -6.8610   22.6010   -1.4440 N.am   71  ILE71      -0.1980
     14  CA        -7.0580   21.7420   -2.5980 C.3    71  ILE71       0.1595
     15  C         -8.4710   21.2030   -2.4410 C.2    71  ILE71       0.2287
     16  O         -8.8260   20.7120   -1.3740 O.2    71  ILE71      -0.2864
     17  CB        -6.0540   20.5800   -2.5810 C.3    71  ILE71       0.0276
     18  CG1       -4.6430   21.0850   -2.9200 C.3    71  ILE71       0.0022
     19  CG2       -6.5490   19.4680   -3.4830 C.3    71  ILE71       0.0022
     20  CD1       -4.5070   21.6360   -4.3150 C.3    71  ILE71       0.0001
     21  N        -16.3020   17.1880    2.0120 N.3    85  GLU85      -0.1245
     22  CA       -16.4950   18.4510    2.7400 C.3    85  GLU85       0.1567
     23  C        -17.3520   19.3820    1.8720 C.2    85  GLU85       0.2260
     24  O        -17.2500   19.3780    0.6420 O.2    85  GLU85      -0.2867
     25  CB       -15.1670   19.1080    3.1270 C.3    85  GLU85       0.0388
     26  CG       -14.2570   19.5720    2.0000 C.3    85  GLU85       0.1160
     27  CD       -12.9940   20.2030    2.5510 C.2    85  GLU85       0.3649
     28  OE1      -11.9950   20.2720    1.8120 O.co2  85  GLU85      -0.2457
     29  OE2      -13.0060   20.6390    3.7250 O.co2  85  GLU85      -0.2457
     30  N        -10.6200   17.2690    3.5080 N.3   109  GLY109     -0.1210
     31  CA        -9.2130   17.6150    3.3720 C.3   109  GLY109      0.1956
     32  C         -8.3750   18.0270    4.5860 C.2   109  GLY109      0.2612
     33  O         -7.2280   18.4540    4.4050 O.2   109  GLY109     -0.2717
     34  N         -8.8910   17.8980    5.8080 N.am  110  ASN110     -0.1960
     35  CA        -8.1070   18.2690    6.9850 C.3   110  ASN110      0.1819
     36  C         -6.9320   17.3190    7.2280 C.2   110  ASN110      0.2621
     37  O         -7.0450   16.1120    7.0020 O.2   110  ASN110     -0.2715
     38  CB        -9.0090   18.2990    8.2190 C.3   110  ASN110      0.1195
     39  CG        -8.2280   18.4370    9.5080 C.2   110  ASN110      0.2630
     40  OD1       -7.2450   19.1910    9.5890 O.2   110  ASN110     -0.2716
     41  ND2       -8.6620   17.7170   10.5320 N.am  110  ASN110     -0.0877
     42  N         -5.8060   17.8670    7.6830 N.am  111  TYR111     -0.1960
     43  CA        -4.6230   17.0560    7.9620 C.3   111  TYR111      0.1771
     44  C         -4.9440   15.9320    8.9410 C.2   111  TYR111      0.2619
     45  O         -4.3910   14.8330    8.8390 O.2   111  TYR111     -0.2715
     46  CB        -3.4950   17.9040    8.5560 C.3   111  TYR111      0.0574
     47  CG        -2.6490   18.6580    7.5550 C.ar  111  TYR111     -0.0198
     48  CD1       -2.2160   18.0530    6.3700 C.ar  111  TYR111     -0.0009
     49  CD2       -2.2490   19.9700    7.8090 C.ar  111  TYR111     -0.0009
     50  CE1       -1.4050   18.7390    5.4690 C.ar  111  TYR111      0.0417
     51  CE2       -1.4350   20.6600    6.9150 C.ar  111  TYR111      0.0417
     52  CZ        -1.0200   20.0430    5.7500 C.ar  111  TYR111      0.1957
     53  OH        -0.2400   20.7450    4.8630 O.3   111  TYR111     -0.2866
     54  N         -5.8270   16.2130    9.8960 N.am  112  GLU112     -0.1977
     55  CA        -6.2050   15.2070   10.8850 C.3   112  GLU112      0.1602
     56  C         -6.9410   14.0280   10.2650 C.2   112  GLU112      0.2287
     57  O         -6.5500   12.8800   10.4560 O.2   112  GLU112     -0.2864
     58  CB        -7.0740   15.8190   11.9920 C.3   112  GLU112      0.0415
     59  CG        -6.3160   16.7110   12.9650 C.3   112  GLU112      0.1163
     60  CD        -7.2100   17.2950   14.0480 C.2   112  GLU112      0.3649
     61  OE1       -8.4480   17.1080   13.9700 O.co2 112  GLU112     -0.2457
     62  OE2       -6.6730   17.9460   14.9730 O.co2 112  GLU112     -0.2457
     63  N         -0.4020   18.2450   -0.9190 N.3   155  ILE155     -0.1245
     64  CA        -0.7370   19.5010   -0.2490 C.3   155  ILE155      0.1561
     65  C          0.5590   20.1840    0.1830 C.2   155  ILE155      0.2260
     66  O          0.8080   21.3430   -0.1480 O.2   155  ILE155     -0.2867
     67  CB        -1.6570   19.2080    0.9790 C.3   155  ILE155      0.0252
     68  CG1       -3.0700   18.8250    0.4990 C.3   155  ILE155      0.0019
     69  CG2       -1.6890   20.4020    1.9240 C.3   155  ILE155      0.0019
     70  CD1       -3.8490   19.9870   -0.1150 C.3   155  ILE155      0.0001
     71  N          0.7150   23.5390   -1.8320 N.3   159  ALA159     -0.1231
     72  CA         0.1130   24.5990   -1.0290 C.3   159  ALA159      0.1694
     73  C          1.0380   25.1980    0.0390 C.2   159  ALA159      0.2591
     74  O          1.3050   26.4020    0.0170 O.2   159  ALA159     -0.2718
     75  CB        -1.1570   24.0930   -0.3700 C.3   159  ALA159      0.0304
     76  N          1.5130   24.3790    0.9800 N.am  160  GLU160     -0.1979
     77  CA         2.3840   24.8820    2.0440 C.3   160  GLU160      0.1602
     78  C          3.6170   25.5930    1.4970 C.2   160  GLU160      0.2287
     79  O          4.0480   26.6090    2.0450 O.2   160  GLU160     -0.2864
     80  CB         2.8340   23.7450    2.9590 C.3   160  GLU160      0.0415
     81  CG         1.7050   22.9140    3.5430 C.3   160  GLU160      0.1163
     82  CD         0.7380   23.7180    4.4100 C.2   160  GLU160      0.3649
     83  OE1        0.9010   24.9470    4.5280 O.co2 160  GLU160     -0.2457
     84  OE2       -0.2010   23.1240    4.9770 O.co2 160  GLU160     -0.2457
     85  N          2.6670   28.9350    0.2640 N.3   163  ARG163     -0.1245
     86  CA         2.4770   29.7630    1.4480 C.3   163  ARG163      0.1563
     87  C          3.7770   30.1160    2.1790 C.2   163  ARG163      0.2260
     88  O          3.8990   31.2190    2.6940 O.2   163  ARG163     -0.2867
     89  CB         1.5250   29.0820    2.4300 C.3   163  ARG163      0.0307
     90  CG         0.1200   28.8800    1.9120 C.3   163  ARG163      0.0489
     91  CD        -0.6100   27.9670    2.8610 C.3   163  ARG163      0.2205
     92  NE        -1.9890   27.7080    2.4770 N.pl3 163  ARG163     -0.0865
     93  CZ        -2.6350   26.5990    2.8140 C.cat 163  ARG163      0.5346
     94  NH1       -2.0070   25.6720    3.5270 N.pl3 163  ARG163      0.1354
     95  NH2       -3.8980   26.4170    2.4580 N.pl3 163  ARG163      0.1354
     96  N          3.0020   25.0010    8.8650 N.3   189  GLU189     -0.1231
     97  CA         1.7530   24.5310    8.2830 C.3   189  GLU189      0.1699
     98  C          0.6440   24.7120    9.2980 C.2   189  GLU189      0.2592
     99  O         -0.4280   25.2160    8.9830 O.2   189  GLU189     -0.2718
    100  CB         1.8650   23.0530    7.9190 C.3   189  GLU189      0.0402
    101  CG         2.7990   22.7770    6.7610 C.3   189  GLU189      0.1161
    102  CD         3.1520   21.3090    6.6250 C.2   189  GLU189      0.3649
    103  OE1        2.5840   20.4790    7.3650 O.co2 189  GLU189     -0.2457
    104  OE2        4.0000   20.9950    5.7640 O.co2 189  GLU189     -0.2457
    105  N          0.9220   24.3100   10.5310 N.am  190  ASN190     -0.1974
    106  CA        -0.0600   24.4200   11.5960 C.3   190  ASN190      0.1688
    107  C         -0.3640   25.8430   12.0270 C.2   190  ASN190      0.2292
    108  O         -1.4720   26.1320   12.4740 O.2   190  ASN190     -0.2864
    109  CB         0.3900   23.6120   12.8120 C.3   190  ASN190      0.1181
    110  CG         0.2730   22.1300   12.5830 C.2   190  ASN190      0.2629
    111  OD1       -0.6510   21.6770   11.9080 O.2   190  ASN190     -0.2716
    112  ND2        1.1940   21.3600   13.1470 N.am  190  ASN190     -0.0877
    113  N         -0.1620   28.6940    9.9700 N.3   192  TRP192     -0.1241
    114  CA        -0.5390   29.5950    8.8670 C.3   192  TRP192      0.1605
    115  C         -1.7510   30.4720    9.1330 C.2   192  TRP192      0.2264
    116  O         -1.7120   31.6750    8.9240 O.2   192  TRP192     -0.2867
    117  CB        -0.8190   28.8220    7.5820 C.3   192  TRP192      0.0550
    118  CG        -0.9600   29.7510    6.4000 C.ar  192  TRP192      0.0003
    119  CD1       -0.0340   30.6660    5.9800 C.ar  192  TRP192      0.0946
    120  CD2       -2.0420   29.8290    5.4560 C.ar  192  TRP192      0.0152
    121  NE1       -0.4680   31.3130    4.8460 N.ar  192  TRP192     -0.2442
    122  CE2       -1.7140   30.8280    4.5070 C.ar  192  TRP192      0.0810
    123  CE3       -3.2850   29.1750    5.3380 C.ar  192  TRP192      0.0012
    124  CZ2       -2.5400   31.1600    3.4220 C.ar  192  TRP192      0.0191
    125  CZ3       -4.1180   29.5090    4.2530 C.ar  192  TRP192      0.0001
    126  CH2       -3.7450   30.5040    3.3240 C.ar  192  TRP192      0.0015
@<TRIPOS>BOND
     1    20    18    1
     2    19    17    1
     3    18    17    1
     4    14    17    1
     5    14    15    1
     6    14    13    1
     7    15    16    2
     8     4     3    2
     9    71    72    1
    10    13     3   am
    11     3     2    1
    12    72    75    1
    13    72    73    1
    14    63    64    1
    15     1     2    1
    16    64    65    1
    17    64    67    1
    18    66    65    2
    19     2     5    1
    20    70    68    1
    21    74    73    2
    22    73    76   am
    23    85    86    1
    24    68    67    1
    25    24    23    2
    26     5     6    1
    27    67    69    1
    28    76    77    1
    29    86    87    1
    30    86    89    1
    31    78    77    1
    32    78    79    2
    33    28    27   ar
    34    23    22    1
    35    90    89    1
    36    90    91    1
    37    26    27    1
    38    26    25    1
    39    21    22    1
    40    77    80    1
    41     6     8   ar
    42     6     7   ar
    43    87    88    2
    44    95    93    1
    45    92    93    2
    46    92    91    1
    47    27    29   ar
    48     8    10   ar
    49    22    25    1
    50    93    94    1
    51     7     9   ar
    52    80    81    1
    53   126   124   ar
    54   126   125   ar
    55    31    30    1
    56    31    32    1
    57   124   122   ar
    58    81    82    1
    59    10    11   ar
    60     9    11   ar
    61   125   123   ar
    62    33    32    2
    63    82    83   ar
    64    82    84   ar
    65   122   121   ar
    66   122   120   ar
    67    32    34   am
    68    11    12    1
    69   121   119   ar
    70    53    52    1
    71   123   120   ar
    72   120   118   ar
    73    50    52   ar
    74    50    48   ar
    75    52    51   ar
    76   104   102   ar
    77    34    35    1
    78   119   118   ar
    79    48    47   ar
    80   118   117    1
    81   102   101    1
    82   102   103   ar
    83   101   100    1
    84    51    49   ar
    85    35    36    1
    86    35    38    1
    87    37    36    2
    88    36    42   am
    89    47    49   ar
    90    47    46    1
    91   117   114    1
    92    42    43    1
    93   100    97    1
    94    43    46    1
    95    43    44    1
    96    38    39    1
    97    97    96    1
    98    97    98    1
    99    45    44    2
   100   114   115    1
   101   114   113    1
   102   116   115    2
   103    44    54   am
   104    99    98    2
   105    98   105   am
   106    39    40    2
   107    39    41   am
   108    54    55    1
   109    56    57    2
   110    56    55    1
   111   105   106    1
   112    55    58    1
   113   106   107    1
   114   106   109    1
   115   111   110    2
   116    58    59    1
   117   107   108    2
   118   110   109    1
   119   110   112   am
   120    59    60    1
   121    61    60   ar
   122    60    62   ar
