@<TRIPOS>MOLECULE
tmp/3nfrA00.pdb
 89 89 0 0 0
SMALL
GASTEIGER

@<TRIPOS>ATOM
      1  N          3.3880   -6.1740  -12.0870 N.3   104  TYR104     -0.1227
      2  CA         3.3740   -5.4780  -13.4300 C.3   104  TYR104      0.1736
      3  C          3.8210   -6.5390  -14.4230 C.2   104  TYR104      0.2595
      4  O          4.9180   -7.0150  -14.3860 O.2   104  TYR104     -0.2718
      5  CB         4.3410   -4.2730  -13.5460 C.3   104  TYR104      0.0548
      6  CG         3.9250   -2.9940  -12.9020 C.ar  104  TYR104     -0.0200
      7  CD1        2.8390   -2.9140  -12.0760 C.ar  104  TYR104     -0.0009
      8  CD2        4.6710   -1.8080  -13.1840 C.ar  104  TYR104     -0.0009
      9  CE1        2.4930   -1.6640  -11.4380 C.ar  104  TYR104      0.0417
     10  CE2        4.3330   -0.5670  -12.6240 C.ar  104  TYR104      0.0417
     11  CZ         3.2700   -0.5320  -11.7230 C.ar  104  TYR104      0.1957
     12  OH         2.8700    0.6560  -11.1760 O.3   104  TYR104     -0.2866
     13  N          2.8640   -6.8630  -15.3370 N.am  105  TRP105     -0.1962
     14  CA         3.1710   -7.8890  -16.3660 C.3   105  TRP105      0.1771
     15  C          3.7520   -9.1840  -15.8310 C.2   105  TRP105      0.2616
     16  O          4.7670   -9.6360  -16.2810 O.2   105  TRP105     -0.2715
     17  CB         4.1100   -7.2470  -17.4490 C.3   105  TRP105      0.0590
     18  CG         3.4190   -6.1480  -18.2520 C.ar  105  TRP105      0.0006
     19  CD1        3.8700   -4.8120  -18.4970 C.ar  105  TRP105      0.0946
     20  CD2        2.1690   -6.2460  -18.9500 C.ar  105  TRP105      0.0152
     21  NE1        2.9350   -4.1470  -19.2570 N.ar  105  TRP105     -0.2442
     22  CE2        1.9230   -5.0250  -19.5900 C.ar  105  TRP105      0.0810
     23  CE3        1.2790   -7.3110  -19.1420 C.ar  105  TRP105      0.0012
     24  CZ2        0.7740   -4.7750  -20.3880 C.ar  105  TRP105      0.0191
     25  CZ3        0.0890   -7.1000  -19.9150 C.ar  105  TRP105      0.0001
     26  CH2       -0.1470   -5.8060  -20.5340 C.ar  105  TRP105      0.0015
     27  N          3.0180   -9.6930  -14.8470 N.am  106  PHE106     -0.2027
     28  CA         3.3740  -11.0110  -14.2170 C.3   106  PHE106      0.1325
     29  C          4.7400  -11.0210  -13.5610 C.3   106  PHE106      0.2039
     30  O          5.4640  -12.0860  -13.5180 O.3   106  PHE106     -0.2185
     31  CB         3.3240  -12.1420  -15.3170 C.3   106  PHE106      0.0507
     32  CG         1.9510  -12.7400  -15.6010 C.ar  106  PHE106     -0.0204
     33  CD1        0.8220  -11.9840  -15.5760 C.ar  106  PHE106     -0.0042
     34  CD2        1.9010  -14.1110  -15.9640 C.ar  106  PHE106     -0.0042
     35  CE1       -0.4630  -12.6750  -15.9120 C.ar  106  PHE106     -0.0003
     36  CE2        0.6930  -14.7730  -16.2900 C.ar  106  PHE106     -0.0003
     37  CZ        -0.4550  -14.0490  -16.2710 C.ar  106  PHE106     -0.0000
     38  N         -3.8870   -7.1770   -9.9250 N.3   149  GLY149     -0.1210
     39  CA        -5.1520   -6.6290  -10.4300 C.3   149  GLY149      0.1956
     40  C         -6.1400   -7.7930  -10.6640 C.2   149  GLY149      0.2612
     41  O         -7.3090   -7.5980  -10.4740 O.2   149  GLY149     -0.2717
     42  N         -5.6170   -8.9430  -11.1010 N.am  150  GLY150     -0.1956
     43  CA        -6.3780  -10.2340  -11.3570 C.3   150  GLY150      0.1869
     44  C         -6.7860  -10.9500  -10.0640 C.2   150  GLY150      0.2309
     45  O         -6.1260  -10.8670   -9.0270 O.2   150  GLY150     -0.2863
     46  N         -8.6780  -16.1780  -11.3910 N.3   154  MET154     -0.1230
     47  CA        -7.9220  -15.9820  -12.6560 C.3   154  MET154      0.1702
     48  C         -6.5690  -16.6350  -12.5890 C.2   154  MET154      0.2592
     49  O         -6.0180  -17.1270  -13.6200 O.2   154  MET154     -0.2718
     50  CB        -7.8100  -14.4980  -12.9130 C.3   154  MET154      0.0401
     51  CG        -9.1780  -13.9340  -13.1200 C.3   154  MET154      0.0596
     52  SD        -9.2270  -12.2240  -13.5560 S.3   154  MET154     -0.1393
     53  CE       -10.9410  -11.7580  -13.3810 C.3   154  MET154      0.0692
     54  N         -6.0350  -16.6970  -11.3390 N.am  155  TYR155     -0.1976
     55  CA        -4.7110  -17.2520  -11.0880 C.3   155  TYR155      0.1639
     56  C         -4.7610  -18.7000  -10.5880 C.2   155  TYR155      0.2290
     57  O         -4.0680  -19.0850   -9.6420 O.2   155  TYR155     -0.2864
     58  CB        -3.7970  -16.3770  -10.1670 C.3   155  TYR155      0.0560
     59  CG        -3.3060  -15.0900  -10.8410 C.ar  155  TYR155     -0.0198
     60  CD1       -2.2510  -15.1380  -11.7400 C.ar  155  TYR155     -0.0009
     61  CD2       -3.9440  -13.8570  -10.6010 C.ar  155  TYR155     -0.0009
     62  CE1       -1.8070  -13.9560  -12.3460 C.ar  155  TYR155      0.0417
     63  CE2       -3.5100  -12.6910  -11.2060 C.ar  155  TYR155      0.0417
     64  CZ        -2.4550  -12.7550  -12.0620 C.ar  155  TYR155      0.1957
     65  OH        -1.9830  -11.5960  -12.7000 O.3   155  TYR155     -0.2866
     66  N         -7.5280  -18.0260  -16.5850 N.3   160  VAL160     -0.1231
     67  CA        -6.9640  -17.3000  -17.7700 C.3   160  VAL160      0.1692
     68  C         -5.5310  -16.9280  -17.6060 C.2   160  VAL160      0.2592
     69  O         -4.7550  -16.8760  -18.5730 O.2   160  VAL160     -0.2718
     70  CB        -7.7460  -15.9980  -18.2140 C.3   160  VAL160      0.0266
     71  CG1       -9.0010  -16.3820  -18.9740 C.3   160  VAL160      0.0020
     72  CG2       -7.9980  -14.9240  -17.0460 C.3   160  VAL160      0.0020
     73  N         -5.1630  -16.6570  -16.3640 N.am  161  ASN161     -0.1974
     74  CA        -3.7710  -16.3230  -16.0650 C.3   161  ASN161      0.1688
     75  C         -2.8010  -17.4550  -15.6990 C.2   161  ASN161      0.2292
     76  O         -1.6020  -17.2020  -15.5840 O.2   161  ASN161     -0.2864
     77  CB        -3.6580  -15.2080  -14.9570 C.3   161  ASN161      0.1181
     78  CG        -4.3310  -13.8870  -15.3120 C.2   161  ASN161      0.2629
     79  OD1       -4.4190  -13.4780  -16.4940 O.2   161  ASN161     -0.2716
     80  ND2       -4.8520  -13.2120  -14.3180 N.am  161  ASN161     -0.0877
     81  N         -8.0970   -3.6480   -5.3360 N.3   193  GLU193     -0.1245
     82  CA        -8.8310   -2.4620   -5.8360 C.3   193  GLU193      0.1567
     83  C        -10.3210   -2.7650   -6.0350 C.2   193  GLU193      0.2260
     84  O        -11.1510   -1.8480   -6.0010 O.2   193  GLU193     -0.2867
     85  CB        -8.2710   -1.9810   -7.1750 C.3   193  GLU193      0.0388
     86  CG        -6.8230   -1.4390   -7.1670 C.3   193  GLU193      0.1160
     87  CD        -6.2610   -1.2670   -8.6010 C.2   193  GLU193      0.3649
     88  OE1       -5.8640   -2.3030   -9.2360 O.co2 193  GLU193     -0.2457
     89  OE2       -6.2340   -0.0930   -9.0950 O.co2 193  GLU193     -0.2457
@<TRIPOS>BOND
     1    26    24   ar
     2    26    25   ar
     3    24    22   ar
     4    25    23   ar
     5    22    21   ar
     6    22    20   ar
     7    21    19   ar
     8    23    20   ar
     9    71    70    1
    10    20    18   ar
    11    69    68    2
    12    19    18   ar
    13    18    17    1
    14    70    67    1
    15    70    72    1
    16    67    68    1
    17    67    66    1
    18    68    73   am
    19    17    14    1
    20    79    78    2
    21    14    15    1
    22    14    13    1
    23    73    74    1
    24    36    37   ar
    25    36    34   ar
    26    16    15    2
    27    37    35   ar
    28    74    75    1
    29    74    77    1
    30    34    32   ar
    31    35    33   ar
    32    15    27   am
    33    75    76    2
    34    32    33   ar
    35    32    31    1
    36    13     3   am
    37    31    28    1
    38    78    77    1
    39    78    80   am
    40    27    28    1
    41     3     4    2
    42     3     2    1
    43    28    29    1
    44    49    48    2
    45    29    30    1
    46    52    53    1
    47    52    51    1
    48     5     2    1
    49     5     6    1
    50     2     1    1
    51     8     6   ar
    52     8    10   ar
    53    51    50    1
    54    50    47    1
    55     6     7   ar
    56    65    64    1
    57    47    48    1
    58    47    46    1
    59    10    11   ar
    60    48    54   am
    61    62    64   ar
    62    62    60   ar
    63     7     9   ar
    64    64    63   ar
    65    60    59   ar
    66    11     9   ar
    67    11    12    1
    68    43    42    1
    69    43    44    1
    70    54    55    1
    71    63    61   ar
    72    42    40   am
    73    55    56    1
    74    55    58    1
    75    59    61   ar
    76    59    58    1
    77    40    41    2
    78    40    39    1
    79    56    57    2
    80    39    38    1
    81    44    45    2
    82    88    87   ar
    83    89    87   ar
    84    87    86    1
    85    85    86    1
    86    85    82    1
    87    83    84    2
    88    83    82    1
    89    82    81    1
