@<TRIPOS>MOLECULE
tmp/3nfzA00.pdb
 172 163 0 0 0
SMALL
GASTEIGER

@<TRIPOS>ATOM
      1  N         16.4580  -30.3310   14.1920 N.3    15  HIS15      -0.1241
      2  CA        17.0880  -31.6260   14.4120 C.3    15  HIS15       0.1621
      3  C         18.6010  -31.4220   14.2930 C.2    15  HIS15       0.2264
      4  O         19.0950  -30.9290   13.2760 O.2    15  HIS15      -0.2867
      5  CB        16.5500  -32.6490   13.4010 C.3    15  HIS15       0.0745
      6  CG        15.0650  -32.8280   13.4910 C.ar   15  HIS15       0.0817
      7  ND1       14.2240  -32.6650   12.4130 N.ar   15  HIS15      -0.2268
      8  CD2       14.2660  -33.0870   14.5550 C.ar   15  HIS15       0.1154
      9  CE1       12.9760  -32.8660   12.7960 C.ar   15  HIS15       0.1986
     10  NE2       12.9740  -33.1270   14.0910 N.ar   15  HIS15      -0.2212
     11  N         20.9550  -32.4340   11.1400 N.3    18  GLU18      -0.1245
     12  CA        20.5910  -32.0220    9.7820 C.3    18  GLU18       0.1567
     13  C         21.4070  -30.7930    9.4110 C.2    18  GLU18       0.2260
     14  O         21.0910  -29.6640    9.8030 O.2    18  GLU18      -0.2867
     15  CB        19.0780  -31.8280    9.6620 C.3    18  GLU18       0.0388
     16  CG        18.3580  -33.1900    9.6330 C.3    18  GLU18       0.1160
     17  CD        16.8460  -33.0970    9.6630 C.2    18  GLU18       0.3649
     18  OE1       16.2920  -31.9990    9.4330 O.co2  18  GLU18      -0.2457
     19  OE2       16.2120  -34.1430    9.9230 O.co2  18  GLU18      -0.2457
     20  N         19.7610  -36.1280   16.1850 N.3    57  ARG57      -0.1245
     21  CA        18.4230  -35.6090   15.9060 C.3    57  ARG57       0.1563
     22  C         17.7960  -34.9190   17.1310 C.2    57  ARG57       0.2260
     23  O         17.2850  -33.7990   17.0360 O.2    57  ARG57      -0.2867
     24  CB        17.5030  -36.7130   15.3840 C.3    57  ARG57       0.0307
     25  CG        16.1040  -36.2030   14.9880 C.3    57  ARG57       0.0489
     26  CD        15.2450  -37.3390   14.4160 C.3    57  ARG57       0.2205
     27  NE        13.8640  -36.9390   14.1110 N.pl3  57  ARG57      -0.0865
     28  CZ        13.5020  -36.3000   12.9960 C.cat  57  ARG57       0.5346
     29  NH1       14.4160  -35.9520   12.0870 N.pl3  57  ARG57       0.1354
     30  NH2       12.2260  -35.9980   12.7910 N.pl3  57  ARG57       0.1354
     31  N         10.5800  -31.4030   16.9090 N.3    64  ASN64      -0.1225
     32  CA         9.5410  -31.1150   15.9370 C.3    64  ASN64       0.1785
     33  C          8.2420  -31.8920   16.1890 C.2    64  ASN64       0.2597
     34  O          7.3440  -31.8970   15.3400 O.2    64  ASN64      -0.2718
     35  CB        10.0260  -31.3340   14.5010 C.3    64  ASN64       0.1169
     36  CG         9.4080  -30.3290   13.5280 C.2    64  ASN64       0.2627
     37  OD1        9.1410  -29.1840   13.8990 O.2    64  ASN64      -0.2716
     38  ND2        9.1640  -30.7560   12.2930 N.am   64  ASN64      -0.0877
     39  N          8.1620  -32.5560   17.3430 N.am   65  ARG65      -0.1979
     40  CA         6.9050  -33.1390   17.8140 C.3    65  ARG65       0.1597
     41  C          6.5860  -32.6460   19.2250 C.2    65  ARG65       0.2287
     42  O          5.7060  -33.1930   19.8970 O.2    65  ARG65      -0.2864
     43  CB         6.9600  -34.6740   17.8260 C.3    65  ARG65       0.0334
     44  CG         7.2900  -35.3350   16.4860 C.3    65  ARG65       0.0492
     45  CD         6.1900  -35.1200   15.4550 C.3    65  ARG65       0.2205
     46  NE         6.4780  -35.8450   14.2180 N.pl3  65  ARG65      -0.0865
     47  CZ         7.3460  -35.4400   13.2900 C.cat  65  ARG65       0.5346
     48  NH1        8.0160  -34.3000   13.4480 N.pl3  65  ARG65       0.1354
     49  NH2        7.5510  -36.1800   12.2000 N.pl3  65  ARG65       0.1354
     50  N         15.1720  -28.1330    7.0320 N.3   110  HIS110     -0.1226
     51  CA        15.3420  -29.5590    7.2770 C.3   110  HIS110      0.1752
     52  C         16.1590  -30.2180    6.1790 C.2   110  HIS110      0.2596
     53  O         16.2010  -29.7390    5.0490 O.2   110  HIS110     -0.2718
     54  CB        13.9650  -30.2490    7.4010 C.3   110  HIS110      0.0759
     55  CG        13.2130  -29.8320    8.6220 C.ar  110  HIS110      0.0818
     56  ND1       13.1520  -30.6070    9.7570 N.ar  110  HIS110     -0.2268
     57  CD2       12.5500  -28.6890    8.9120 C.ar  110  HIS110      0.1154
     58  CE1       12.4600  -29.9720   10.6870 C.ar  110  HIS110      0.1986
     59  NE2       12.0820  -28.8060   10.1990 N.ar  110  HIS110     -0.2212
     60  N         16.8090  -31.3190    6.5320 N.am  111  ASN111     -0.1960
     61  CA        17.3480  -32.2460    5.5430 C.3   111  ASN111      0.1819
     62  C         16.7070  -33.6030    5.7140 C.2   111  ASN111      0.2621
     63  O         16.1950  -33.9230    6.7870 O.2   111  ASN111     -0.2715
     64  CB        18.8630  -32.3830    5.6800 C.3   111  ASN111      0.1195
     65  CG        19.5880  -31.1140    5.2930 C.2   111  ASN111      0.2630
     66  OD1       20.1800  -30.4620    6.1400 O.2   111  ASN111     -0.2716
     67  ND2       19.5380  -30.7500    3.9950 N.am  111  ASN111     -0.0877
     68  N         16.7300  -34.3930    4.6500 N.am  112  THR112     -0.1951
     69  CA        16.2470  -35.7580    4.7030 C.3   112  THR112      0.1897
     70  C         17.2650  -36.6470    3.9880 C.2   112  THR112      0.2313
     71  O         17.9880  -36.1780    3.0930 O.2   112  THR112     -0.2863
     72  CB        14.8350  -35.8780    4.0480 C.3   112  THR112      0.1794
     73  OG1       14.4480  -37.2610    3.9580 O.3   112  THR112     -0.2208
     74  CG2       14.8490  -35.2840    2.6450 C.3   112  THR112      0.0378
     75  N          7.2470  -28.0320    3.0450 N.3   121  ILE121     -0.1245
     76  CA         6.2200  -28.7410    3.7950 C.3   121  ILE121      0.1561
     77  C          5.3570  -27.7220    4.5240 C.2   121  ILE121      0.2260
     78  O          5.8650  -26.9290    5.3100 O.2   121  ILE121     -0.2867
     79  CB         6.8230  -29.7240    4.7990 C.3   121  ILE121      0.0252
     80  CG1        7.7320  -30.7220    4.0770 C.3   121  ILE121      0.0019
     81  CG2        5.7300  -30.4470    5.5270 C.3   121  ILE121      0.0019
     82  CD1        8.6570  -31.4820    4.9870 C.3   121  ILE121      0.0001
     83  N          1.6620  -27.0370    6.7050 N.3   123  GLU123     -0.1245
     84  CA         0.7030  -27.7450    7.5420 C.3   123  GLU123      0.1567
     85  C         -0.7310  -27.2730    7.3070 C.2   123  GLU123      0.2260
     86  O         -1.6730  -27.7640    7.9340 O.2   123  GLU123     -0.2867
     87  CB         1.1080  -27.6500    9.0160 C.3   123  GLU123      0.0388
     88  CG         2.3540  -28.4800    9.3190 C.3   123  GLU123      0.1160
     89  CD         2.8270  -28.3500   10.7500 C.2   123  GLU123      0.3649
     90  OE1        1.9840  -28.2600   11.6660 O.co2 123  GLU123     -0.2457
     91  OE2        4.0550  -28.3390   10.9570 O.co2 123  GLU123     -0.2457
     92  N          0.8840  -31.2900    4.5430 N.3   150  TYR150     -0.1241
     93  CA         0.9070  -32.2460    5.6390 C.3   150  TYR150      0.1605
     94  C          0.0700  -31.6890    6.7770 C.2   150  TYR150      0.2264
     95  O          0.5880  -31.0220    7.6800 O.2   150  TYR150     -0.2867
     96  CB         2.3500  -32.4590    6.1110 C.3   150  TYR150      0.0534
     97  CG         2.5610  -33.6310    7.0530 C.ar  150  TYR150     -0.0201
     98  CD1        1.6990  -33.8670    8.1180 C.ar  150  TYR150     -0.0009
     99  CD2        3.6430  -34.4870    6.8900 C.ar  150  TYR150     -0.0009
    100  CE1        1.8990  -34.9360    8.9800 C.ar  150  TYR150      0.0417
    101  CE2        3.8520  -35.5510    7.7460 C.ar  150  TYR150      0.0417
    102  CZ         2.9780  -35.7740    8.7880 C.ar  150  TYR150      0.1957
    103  OH         3.1900  -36.8370    9.6390 O.3   150  TYR150     -0.2866
    104  N          2.1610  -29.6060   16.1810 N.3   158  PHE158     -0.1227
    105  CA         3.2340  -30.0300   17.0740 C.3   158  PHE158      0.1736
    106  C          4.6160  -29.5220   16.6740 C.2   158  PHE158      0.2596
    107  O          5.5950  -29.7850   17.3670 O.2   158  PHE158     -0.2718
    108  CB         3.2660  -31.5570   17.1330 C.3   158  PHE158      0.0547
    109  CG         3.2530  -32.2140   15.7730 C.ar  158  PHE158     -0.0202
    110  CD1        4.3710  -32.1640   14.9500 C.ar  158  PHE158     -0.0042
    111  CD2        2.1170  -32.8680   15.3120 C.ar  158  PHE158     -0.0042
    112  CE1        4.3640  -32.7610   13.6940 C.ar  158  PHE158     -0.0003
    113  CE2        2.1010  -33.4710   14.0540 C.ar  158  PHE158     -0.0003
    114  CZ         3.2280  -33.4180   13.2450 C.ar  158  PHE158     -0.0000
    115  N          4.6920  -28.8010   15.5620 N.am  159  SER159     -0.1952
    116  CA         5.9780  -28.4930   14.9490 C.3   159  SER159      0.1924
    117  C          6.5350  -27.1490   15.4100 C.2   159  SER159      0.2314
    118  O          5.7880  -26.2840   15.8770 O.2   159  SER159     -0.2863
    119  CB         5.8060  -28.4440   13.4420 C.3   159  SER159      0.2116
    120  OG         5.0030  -27.3270   13.1160 O.3   159  SER159     -0.2180
    121  N          7.5800  -24.6960   13.5940 N.3   161  GLU161     -0.1245
    122  CA         7.0420  -23.5630   12.8430 C.3   161  GLU161      0.1567
    123  C          5.6000  -23.2280   13.2290 C.2   161  GLU161      0.2260
    124  O          5.1850  -22.0800   13.0940 O.2   161  GLU161     -0.2867
    125  CB         7.1850  -23.7710   11.3320 C.3   161  GLU161      0.0388
    126  CG         6.3610  -24.9190   10.7750 C.3   161  GLU161      0.1160
    127  CD         4.9220  -24.5280   10.5180 C.2   161  GLU161      0.3649
    128  OE1        4.6410  -23.3160   10.3910 O.co2 161  GLU161     -0.2457
    129  OE2        4.0660  -25.4360   10.4470 O.co2 161  GLU161     -0.2457
    130  N          8.1890  -25.2720    6.2700 N.3   169  CYS169     -0.1235
    131  CA         9.4600  -25.9590    6.3730 C.3   169  CYS169      0.1677
    132  C         10.0860  -26.1200    4.9940 C.2   169  CYS169      0.2270
    133  O          9.4310  -26.5550    4.0490 O.2   169  CYS169     -0.2867
    134  CB         9.2680  -27.3300    7.0200 C.3   169  CYS169      0.0956
    135  SG        10.6280  -28.4570    6.7070 S.3   169  CYS169     -0.0801
    136  N         12.6150  -28.3410    3.1760 N.3   171  ALA171     -0.1245
    137  CA        13.2990  -29.6220    3.3270 C.3   171  ALA171      0.1562
    138  C         14.0690  -29.9930    2.0560 C.2   171  ALA171      0.2260
    139  O         13.5370  -29.8980    0.9490 O.2   171  ALA171     -0.2867
    140  CB        12.2950  -30.7120    3.6710 C.3   171  ALA171      0.0290
    141  N          9.3960  -39.0820    1.1880 N.3   275  PHE275     -0.1241
    142  CA        10.2620  -39.4510    2.3140 C.3   275  PHE275      0.1605
    143  C         10.4970  -40.9570    2.3650 C.2   275  PHE275      0.2264
    144  O         10.3110  -41.6020    3.4000 O.2   275  PHE275     -0.2867
    145  CB         9.7080  -38.9320    3.6440 C.3   275  PHE275      0.0534
    146  CG         9.7220  -37.4340    3.7500 C.ar  275  PHE275     -0.0203
    147  CD1       10.9060  -36.7570    4.0220 C.ar  275  PHE275     -0.0042
    148  CD2        8.5630  -36.6960    3.5520 C.ar  275  PHE275     -0.0042
    149  CE1       10.9300  -35.3700    4.1080 C.ar  275  PHE275     -0.0003
    150  CE2        8.5800  -35.3070    3.6390 C.ar  275  PHE275     -0.0003
    151  CZ         9.7640  -34.6450    3.9180 C.ar  275  PHE275     -0.0000
    152  N         13.7930  -42.6070    5.0570 N.3   278  GLU278     -0.1245
    153  CA        14.3640  -41.5820    5.9280 C.3   278  GLU278      0.1567
    154  C         14.8860  -42.2190    7.2270 C.2   278  GLU278      0.2260
    155  O         14.1290  -42.8850    7.9330 O.2   278  GLU278     -0.2867
    156  CB        13.2910  -40.5300    6.2540 C.3   278  GLU278      0.0388
    157  CG        13.6370  -39.6120    7.4520 C.3   278  GLU278      0.1160
    158  CD        14.9790  -38.8930    7.2930 C.2   278  GLU278      0.3649
    159  OE1       15.2520  -38.3450    6.1950 O.co2 278  GLU278     -0.2457
    160  OE2       15.7600  -38.8710    8.2730 O.co2 278  GLU278     -0.2457
    161  N         12.9570  -41.9070   10.4090 N.3   281  TYR281     -0.1241
    162  CA        11.5920  -42.4360   10.4060 C.3   281  TYR281      0.1605
    163  C         11.4910  -43.9310   10.7300 C.2   281  TYR281      0.2264
    164  O         10.3880  -44.4460   10.9180 O.2   281  TYR281     -0.2867
    165  CB        10.8840  -42.1340    9.0870 C.3   281  TYR281      0.0534
    166  CG        10.4570  -40.6770    8.9070 C.ar  281  TYR281     -0.0201
    167  CD1       10.7110  -39.7150    9.8840 C.ar  281  TYR281     -0.0009
    168  CD2        9.8010  -40.2790    7.7470 C.ar  281  TYR281     -0.0009
    169  CE1       10.3090  -38.3810    9.6990 C.ar  281  TYR281      0.0417
    170  CE2        9.3970  -38.9820    7.5530 C.ar  281  TYR281      0.0417
    171  CZ         9.6510  -38.0310    8.5210 C.ar  281  TYR281      0.1957
    172  OH         9.2320  -36.7480    8.2700 O.3   281  TYR281     -0.2866
@<TRIPOS>BOND
     1   139   138    2
     2   141   142    1
     3   138   137    1
     4   142   143    1
     5   142   145    1
     6   143   144    2
     7    74    72    1
     8    75    76    1
     9    71    70    2
    10   136   137    1
    11   137   140    1
    12   148   150   ar
    13   148   146   ar
    14   150   151   ar
    15   145   146    1
    16   146   147   ar
    17    76    77    1
    18    76    79    1
    19   151   149   ar
    20    73    72    1
    21    70    69    1
    22    67    65   am
    23   147   149   ar
    24    72    69    1
    25   133   132    2
    26    80    79    1
    27    80    82    1
    28    77    78    2
    29    92    93    1
    30    68    69    1
    31    68    62   am
    32    79    81    1
    33   132   131    1
    34    53    52    2
    35   152   153    1
    36    65    64    1
    37    65    66    2
    38    61    64    1
    39    61    62    1
    40    61    60    1
    41    93    96    1
    42    93    94    1
    43    62    63    2
    44   153   156    1
    45   153   154    1
    46    96    97    1
    47    52    60   am
    48    52    51    1
    49   159   158   ar
    50   156   157    1
    51   130   131    1
    52   131   134    1
    53    83    84    1
    54   135   134    1
    55    94    95    2
    56    99    97   ar
    57    99   101   ar
    58    50    51    1
    59    97    98   ar
    60   154   155    2
    61    51    54    1
    62   158   157    1
    63   158   160   ar
    64    85    84    1
    65    85    86    2
    66    54    55    1
    67    84    87    1
    68   170   168   ar
    69   170   171   ar
    70   101   102   ar
    71   168   166   ar
    72    98   100   ar
    73   172   171    1
    74   171   169   ar
    75    55    57   ar
    76    55    56   ar
    77   102   100   ar
    78   102   103    1
    79   166   165    1
    80   166   167   ar
    81    57    59   ar
    82    87    88    1
    83   165   162    1
    84    88    89    1
    85    13    12    1
    86    13    14    2
    87    18    17   ar
    88    16    15    1
    89    16    17    1
    90    15    12    1
    91    17    19   ar
    92   169   167   ar
    93    56    58   ar
    94    12    11    1
    95    59    58   ar
    96   128   127   ar
    97   162   161    1
    98   162   163    1
    99   129   127   ar
   100   127   126    1
   101   163   164    2
   102    89    91   ar
   103    89    90   ar
   104   126   125    1
   105   125   122    1
   106    29    28    1
   107    49    47    1
   108    38    36   am
   109     7     9   ar
   110     7     6   ar
   111    30    28    1
   112     9    10   ar
   113   122   123    1
   114   122   121    1
   115    28    27    2
   116   124   123    2
   117   120   119    1
   118   114   112   ar
   119   114   113   ar
   120     4     3    2
   121    47    48    1
   122    47    46    2
   123     5     6    1
   124     5     2    1
   125   119   116    1
   126     6     8   ar
   127    36    37    2
   128    36    35    1
   129   112   110   ar
   130   113   111   ar
   131    10     8   ar
   132    27    26    1
   133     1     2    1
   134    46    45    1
   135     3     2    1
   136    26    25    1
   137    35    32    1
   138   116   117    1
   139   116   115    1
   140   110   109   ar
   141    25    24    1
   142   111   109   ar
   143    34    33    2
   144    24    21    1
   145   117   118    2
   146    45    44    1
   147   115   106   am
   148   109   108    1
   149    21    20    1
   150    21    22    1
   151    32    33    1
   152    32    31    1
   153   104   105    1
   154    33    39   am
   155    44    43    1
   156   106   105    1
   157   106   107    2
   158    23    22    2
   159   105   108    1
   160    39    40    1
   161    40    43    1
   162    40    41    1
   163    41    42    2
