@<TRIPOS>MOLECULE
tmp/3ng0A00.pdb
 241 233 0 0 0
SMALL
GASTEIGER

@<TRIPOS>ATOM
      1  N         -4.1000  -53.0190   66.4710 N.3   126  TYR126     -0.1241
      2  CA        -4.4920  -51.6220   66.4540 C.3   126  TYR126      0.1605
      3  C         -4.7740  -51.1530   67.8650 C.2   126  TYR126      0.2264
      4  O         -5.5580  -51.7840   68.5820 O.2   126  TYR126     -0.2867
      5  CB        -5.7040  -51.4000   65.5350 C.3   126  TYR126      0.0534
      6  CG        -5.3830  -51.5370   64.0650 C.ar  126  TYR126     -0.0201
      7  CD1       -4.3370  -50.8220   63.4890 C.ar  126  TYR126     -0.0009
      8  CD2       -6.1580  -52.3410   63.2340 C.ar  126  TYR126     -0.0009
      9  CE1       -4.0400  -50.9400   62.1340 C.ar  126  TYR126      0.0417
     10  CE2       -5.8650  -52.4740   61.8760 C.ar  126  TYR126      0.0417
     11  CZ        -4.8040  -51.7700   61.3310 C.ar  126  TYR126      0.1957
     12  OH        -4.5010  -51.8790   59.9950 O.3   126  TYR126     -0.2866
     13  N         -5.9380  -47.7960   70.1920 N.3   128  GLY128     -0.1210
     14  CA        -6.6260  -46.5140   70.1760 C.3   128  GLY128      0.1940
     15  C         -6.6300  -45.9300   71.5710 C.2   128  GLY128      0.2454
     16  O         -7.5320  -46.2510   72.3470 O.2   128  GLY128     -0.2732
     17  N         -5.6120  -45.1100   71.9490 N.am  129  PRO129     -0.2717
     18  CA        -5.5970  -44.5400   73.3140 C.3   129  PRO129      0.1535
     19  C         -6.5330  -43.3410   73.4780 C.2   129  PRO129      0.2598
     20  O         -6.7930  -42.6240   72.5040 O.2   129  PRO129     -0.2715
     21  CB        -4.1340  -44.1460   73.5140 C.3   129  PRO129      0.0310
     22  CG        -3.6520  -43.8190   72.1370 C.3   129  PRO129      0.0237
     23  CD        -4.4480  -44.6500   71.1590 C.3   129  PRO129      0.0939
     24  N         -7.0500  -43.1240   74.7070 N.am  130  GLU130     -0.1978
     25  CA        -7.9620  -42.0080   74.9900 C.3   130  GLU130      0.1602
     26  C         -7.4990  -41.2440   76.2230 C.2   130  GLU130      0.2287
     27  O         -8.0580  -41.4140   77.3110 O.2   130  GLU130     -0.2864
     28  CB        -9.4000  -42.5070   75.1800 C.3   130  GLU130      0.0415
     29  CG        -9.9810  -43.2560   73.9980 C.3   130  GLU130      0.1163
     30  CD       -11.4880  -43.3050   74.0240 C.2   130  GLU130      0.3649
     31  OE1      -12.1150  -42.9600   72.9960 O.co2 130  GLU130     -0.2457
     32  OE2      -12.0420  -43.6290   75.0960 O.co2 130  GLU130     -0.2457
     33  N        -19.0480  -32.5400   81.4240 N.3   180  TYR180     -0.1241
     34  CA       -19.3260  -33.3190   80.2140 C.3   180  TYR180      0.1605
     35  C        -20.8210  -33.1610   79.8380 C.2   180  TYR180      0.2264
     36  O        -21.6880  -33.8120   80.4380 O.2   180  TYR180     -0.2867
     37  CB       -18.9150  -34.7970   80.4060 C.3   180  TYR180      0.0534
     38  CG       -19.0560  -35.7110   79.2010 C.ar  180  TYR180     -0.0201
     39  CD1      -20.3030  -36.2000   78.8120 C.ar  180  TYR180     -0.0009
     40  CD2      -17.9340  -36.1990   78.5370 C.ar  180  TYR180     -0.0009
     41  CE1      -20.4330  -37.0970   77.7500 C.ar  180  TYR180      0.0417
     42  CE2      -18.0520  -37.0970   77.4740 C.ar  180  TYR180      0.0417
     43  CZ       -19.3040  -37.5490   77.0860 C.ar  180  TYR180      0.1957
     44  OH       -19.4340  -38.4220   76.0270 O.3   180  TYR180     -0.2866
     45  N         -9.7030  -37.3670   65.2490 N.3   208  GLU208     -0.1231
     46  CA       -11.1420  -37.6590   65.1970 C.3   208  GLU208      0.1699
     47  C        -12.0500  -36.5890   65.8240 C.2   208  GLU208      0.2592
     48  O        -12.9080  -36.0310   65.1310 O.2   208  GLU208     -0.2718
     49  CB       -11.4560  -39.0220   65.8280 C.3   208  GLU208      0.0402
     50  CG       -11.0000  -40.2340   65.0290 C.3   208  GLU208      0.1161
     51  CD       -11.4880  -41.5670   65.5640 C.2   208  GLU208      0.3649
     52  OE1      -12.0900  -41.6010   66.6650 O.co2 208  GLU208     -0.2457
     53  OE2      -11.2810  -42.5840   64.8650 O.co2 208  GLU208     -0.2457
     54  N        -11.9070  -36.3400   67.1350 N.am  209  LYS209     -0.1980
     55  CA       -12.8050  -35.4210   67.8290 C.3   209  LYS209      0.1596
     56  C        -12.1760  -34.7370   69.0260 C.2   209  LYS209      0.2287
     57  O        -10.9810  -34.8900   69.2590 O.2   209  LYS209     -0.2864
     58  CB       -14.0530  -36.2070   68.2820 C.3   209  LYS209      0.0298
     59  CG       -13.7570  -37.3540   69.2480 C.3   209  LYS209      0.0038
     60  CD       -14.9910  -38.1600   69.4960 C.3   209  LYS209      0.0206
     61  CE       -14.6600  -39.5160   70.0550 C.3   209  LYS209      0.1093
     62  NZ       -14.1930  -40.4600   68.9990 N.3   209  LYS209     -0.1314
     63  N        -13.7020  -33.0000   73.2010 N.3   211  HIS211     -0.1241
     64  CA       -14.7770  -32.5860   74.0980 C.3   211  HIS211      0.1621
     65  C        -14.2640  -32.2140   75.4660 C.2   211  HIS211      0.2264
     66  O        -13.1760  -32.6370   75.8690 O.2   211  HIS211     -0.2867
     67  CB       -15.8710  -33.6680   74.2330 C.3   211  HIS211      0.0745
     68  CG       -15.3810  -34.9560   74.8170 C.ar  211  HIS211      0.0817
     69  ND1      -14.8640  -35.9590   74.0190 N.ar  211  HIS211     -0.2268
     70  CD2      -15.3360  -35.3590   76.1060 C.ar  211  HIS211      0.1154
     71  CE1      -14.5500  -36.9420   74.8420 C.ar  211  HIS211      0.1986
     72  NE2      -14.8030  -36.6180   76.1080 N.ar  211  HIS211     -0.2212
     73  N        -14.3450  -32.6350   79.3850 N.3   213  GLU213     -0.1245
     74  CA       -14.5360  -33.8050   80.2070 C.3   213  GLU213      0.1567
     75  C        -15.3400  -33.5510   81.4800 C.2   213  GLU213      0.2260
     76  O        -15.6480  -32.4070   81.7820 O.2   213  GLU213     -0.2867
     77  CB       -13.1960  -34.5140   80.4340 C.3   213  GLU213      0.0388
     78  CG       -12.9960  -35.7090   79.5150 C.3   213  GLU213      0.1160
     79  CD       -14.0170  -36.8130   79.7120 C.2   213  GLU213      0.3649
     80  OE1      -14.4230  -37.0570   80.8720 O.co2 213  GLU213     -0.2457
     81  OE2      -14.4310  -37.4180   78.7000 O.co2 213  GLU213     -0.2457
     82  N        -10.4810  -33.6220   76.6770 N.3   221  GLU221     -0.1245
     83  CA       -10.0970  -34.8190   75.9570 C.3   221  GLU221      0.1567
     84  C        -10.1270  -34.5580   74.4770 C.2   221  GLU221      0.2260
     85  O        -11.0430  -33.8960   73.9730 O.2   221  GLU221     -0.2867
     86  CB       -10.9950  -36.0230   76.2970 C.3   221  GLU221      0.0388
     87  CG       -10.2500  -37.3430   76.2170 C.3   221  GLU221      0.1160
     88  CD       -10.9960  -38.4570   75.5180 C.2   221  GLU221      0.3649
     89  OE1      -11.7990  -39.1400   76.1920 O.co2 221  GLU221     -0.2457
     90  OE2      -10.7640  -38.6610   74.3040 O.co2 221  GLU221     -0.2457
     91  N         -8.3660  -39.2670   69.0070 N.3   224  ILE224     -0.1245
     92  CA        -7.5230  -39.6520   67.8660 C.3   224  ILE224      0.1561
     93  C         -7.8180  -41.0880   67.4190 C.2   224  ILE224      0.2260
     94  O         -8.1790  -41.9170   68.2460 O.2   224  ILE224     -0.2867
     95  CB        -6.0030  -39.3800   68.1050 C.3   224  ILE224      0.0252
     96  CG1       -5.3940  -40.3090   69.2000 C.3   224  ILE224      0.0019
     97  CG2       -5.7290  -37.8840   68.3630 C.3   224  ILE224      0.0019
     98  CD1       -3.9260  -40.4390   69.1640 C.3   224  ILE224      0.0001
     99  N         -7.2000  -44.9910   65.8770 N.3   226  PHE226     -0.1241
    100  CA        -6.2560  -46.0630   66.1810 C.3   226  PHE226      0.1605
    101  C         -5.1320  -46.1030   65.1340 C.2   226  PHE226      0.2264
    102  O         -5.2520  -45.5090   64.0590 O.2   226  PHE226     -0.2867
    103  CB        -6.9770  -47.4300   66.2280 C.3   226  PHE226      0.0534
    104  CG        -7.6730  -47.8400   64.9450 C.ar  226  PHE226     -0.0203
    105  CD1       -9.0390  -47.6430   64.7820 C.ar  226  PHE226     -0.0042
    106  CD2       -6.9620  -48.4110   63.8970 C.ar  226  PHE226     -0.0042
    107  CE1       -9.6820  -48.0230   63.6030 C.ar  226  PHE226     -0.0003
    108  CE2       -7.6040  -48.7800   62.7130 C.ar  226  PHE226     -0.0003
    109  CZ        -8.9590  -48.5840   62.5740 C.ar  226  PHE226     -0.0000
    110  N         -8.1720  -44.8240   78.5600 N.3   270  HIS270     -0.1241
    111  CA        -8.8730  -46.0120   78.0630 C.3   270  HIS270      0.1621
    112  C         -8.1960  -46.4020   76.7560 C.2   270  HIS270      0.2264
    113  O         -7.9470  -45.5350   75.9080 O.2   270  HIS270     -0.2867
    114  CB       -10.3610  -45.7050   77.8030 C.3   270  HIS270      0.0745
    115  CG       -11.0360  -44.9950   78.9320 C.ar  270  HIS270      0.0817
    116  ND1      -11.5160  -45.6830   80.0310 N.ar  270  HIS270     -0.2268
    117  CD2      -11.2570  -43.6720   79.1110 C.ar  270  HIS270      0.1154
    118  CE1      -12.0320  -44.7670   80.8350 C.ar  270  HIS270      0.1986
    119  NE2      -11.8980  -43.5400   80.3260 N.ar  270  HIS270     -0.2212
    120  N         -8.3880  -48.9520   73.5270 N.3   272  HIS272     -0.1226
    121  CA        -9.0960  -49.8330   72.6100 C.3   272  HIS272      0.1752
    122  C         -8.0840  -50.6070   71.7960 C.2   272  HIS272      0.2596
    123  O         -7.1090  -50.0310   71.3120 O.2   272  HIS272     -0.2718
    124  CB       -10.0020  -49.0210   71.6840 C.3   272  HIS272      0.0759
    125  CG       -11.0880  -48.2670   72.3900 C.ar  272  HIS272      0.0818
    126  ND1      -12.4170  -48.6040   72.2290 N.ar  272  HIS272     -0.2268
    127  CD2      -11.0070  -47.2020   73.2210 C.ar  272  HIS272      0.1154
    128  CE1      -13.0980  -47.7440   72.9660 C.ar  272  HIS272      0.1986
    129  NE2      -12.2930  -46.8870   73.5880 N.ar  272  HIS272     -0.2212
    130  N         -8.3010  -51.9150   71.6550 N.am  273  GLN273     -0.1965
    131  CA        -7.3830  -52.7830   70.9320 C.3   273  GLN273      0.1733
    132  C         -8.0690  -53.9170   70.1930 C.2   273  GLN273      0.2617
    133  O         -9.0930  -54.4200   70.6600 O.2   273  GLN273     -0.2715
    134  CB        -6.2600  -53.2980   71.8550 C.3   273  GLN273      0.0408
    135  CG        -6.7330  -53.8650   73.1820 C.3   273  GLN273      0.0908
    136  CD        -5.6530  -53.7690   74.2130 C.2   273  GLN273      0.2608
    137  OE1       -4.7210  -54.5750   74.2400 O.2   273  GLN273     -0.2717
    138  NE2       -5.7550  -52.7780   75.0870 N.am  273  GLN273     -0.0878
    139  N         -7.4950  -54.3140   69.0310 N.am  274  SER274     -0.1950
    140  CA        -7.9980  -55.3970   68.1770 C.3   274  SER274      0.1924
    141  C         -6.9120  -55.9640   67.2820 C.2   274  SER274      0.2314
    142  O         -6.1290  -55.1960   66.7200 O.2   274  SER274     -0.2863
    143  CB        -9.1500  -54.9110   67.3090 C.3   274  SER274      0.2116
    144  OG        -8.6920  -53.9540   66.3700 O.3   274  SER274     -0.2180
    145  N         -5.7310  -58.0970   63.8350 N.3   276  TRP276     -0.1241
    146  CA        -6.1400  -58.1950   62.4320 C.3   276  TRP276      0.1605
    147  C         -5.1300  -59.0280   61.6110 C.2   276  TRP276      0.2264
    148  O         -3.9240  -58.9830   61.8870 O.2   276  TRP276     -0.2867
    149  CB        -6.2290  -56.7830   61.8300 C.3   276  TRP276      0.0550
    150  CG        -7.3240  -55.9050   62.3670 C.ar  276  TRP276      0.0003
    151  CD1       -7.4840  -55.4820   63.6530 C.ar  276  TRP276      0.0946
    152  CD2       -8.3000  -55.1960   61.5910 C.ar  276  TRP276      0.0152
    153  NE1       -8.5680  -54.6410   63.7450 N.ar  276  TRP276     -0.2442
    154  CE2       -9.0690  -54.4230   62.4890 C.ar  276  TRP276      0.0810
    155  CE3       -8.6250  -55.1630   60.2240 C.ar  276  TRP276      0.0012
    156  CZ2      -10.1430  -53.6290   62.0660 C.ar  276  TRP276      0.0191
    157  CZ3       -9.6770  -54.3610   59.8060 C.ar  276  TRP276      0.0001
    158  CH2      -10.4330  -53.6190   60.7220 C.ar  276  TRP276      0.0015
    159  N        -19.6630  -49.0130   81.5330 N.3   340  ARG340     -0.1245
    160  CA       -18.5270  -48.1290   81.7790 C.3   340  ARG340      0.1563
    161  C        -18.0490  -48.1890   83.2380 C.2   340  ARG340      0.2260
    162  O        -17.3560  -47.2740   83.6900 O.2   340  ARG340     -0.2867
    163  CB       -18.8590  -46.6890   81.3550 C.3   340  ARG340      0.0307
    164  CG       -18.7300  -46.4090   79.8700 C.3   340  ARG340      0.0489
    165  CD       -19.0610  -44.9480   79.5840 C.3   340  ARG340      0.2205
    166  NE       -18.5330  -44.4940   78.2950 N.pl3 340  ARG340     -0.0865
    167  CZ       -19.1470  -44.6700   77.1280 C.cat 340  ARG340      0.5346
    168  NH1      -20.3180  -45.2930   77.0720 N.pl3 340  ARG340      0.1354
    169  NH2      -18.5890  -44.2360   76.0080 N.pl3 340  ARG340      0.1354
    170  N        -14.3470  -53.0770   78.5460 N.3   345  ARG345     -0.1245
    171  CA       -15.6410  -52.7470   77.9670 C.3   345  ARG345      0.1563
    172  C        -15.6070  -53.1050   76.4950 C.2   345  ARG345      0.2260
    173  O        -14.5950  -52.8920   75.8360 O.2   345  ARG345     -0.2867
    174  CB       -15.9700  -51.2550   78.1580 C.3   345  ARG345      0.0307
    175  CG       -17.2740  -50.7990   77.4950 C.3   345  ARG345      0.0489
    176  CD       -17.5390  -49.3280   77.6940 C.3   345  ARG345      0.2205
    177  NE       -18.2360  -48.7570   76.5450 N.pl3 345  ARG345     -0.0865
    178  CZ       -17.6300  -48.1770   75.5140 C.cat 345  ARG345      0.5346
    179  NH1      -16.3090  -48.0750   75.4840 N.pl3 345  ARG345      0.1354
    180  NH2      -18.3420  -47.6830   74.5120 N.pl3 345  ARG345      0.1354
    181  N        -17.2560  -51.8670   73.3910 N.3   347  PRO347     -0.2116
    182  CA       -18.1470  -50.8040   72.8950 C.3   347  PRO347      0.1372
    183  C        -19.1710  -51.3410   71.8860 C.2   347  PRO347      0.2244
    184  O        -18.9370  -52.3770   71.2510 O.2   347  PRO347     -0.2868
    185  CB       -17.1820  -49.7980   72.2520 C.3   347  PRO347      0.0268
    186  CG       -15.8260  -50.1520   72.7810 C.3   347  PRO347      0.0207
    187  CD       -15.8600  -51.6260   72.9810 C.3   347  PRO347      0.0892
    188  N        -15.3340  -54.3330   61.4390 N.3   354  LYS354     -0.1231
    189  CA       -14.1570  -53.4580   61.4790 C.3   354  LYS354      0.1693
    190  C        -14.0670  -52.6260   62.7790 C.2   354  LYS354      0.2592
    191  O        -12.9720  -52.2300   63.1710 O.2   354  LYS354     -0.2718
    192  CB       -14.1110  -52.5450   60.2290 C.3   354  LYS354      0.0285
    193  CG       -14.0140  -53.3130   58.9020 C.3   354  LYS354      0.0035
    194  CD       -13.4560  -52.4920   57.7230 C.3   354  LYS354      0.0206
    195  CE       -14.4640  -51.6190   56.9900 C.3   354  LYS354      0.1093
    196  NZ       -15.5040  -52.4020   56.2620 N.3   354  LYS354     -0.1314
    197  N        -15.2050  -52.3830   63.4450 N.am  355  ALA355     -0.1966
    198  CA       -15.2830  -51.6040   64.6810 C.3   355  ALA355      0.1728
    199  C        -15.3570  -52.4560   65.9630 C.2   355  ALA355      0.2616
    200  O        -15.5880  -51.9040   67.0370 O.2   355  ALA355     -0.2715
    201  CB       -16.4660  -50.6500   64.6080 C.3   355  ALA355      0.0334
    202  N        -15.1510  -53.7880   65.8550 N.am  356  LYS356     -0.1963
    203  CA       -15.1930  -54.7190   66.9900 C.3   356  LYS356      0.1728
    204  C        -13.8850  -54.7400   67.7560 C.2   356  LYS356      0.2616
    205  O        -12.8600  -55.1810   67.2100 O.2   356  LYS356     -0.2715
    206  CB       -15.5850  -56.1410   66.5430 C.3   356  LYS356      0.0311
    207  CG       -17.0930  -56.3500   66.4210 C.3   356  LYS356      0.0038
    208  CD       -17.7780  -56.6240   67.7670 C.3   356  LYS356      0.0206
    209  CE       -19.2600  -56.3330   67.7460 C.3   356  LYS356      0.1093
    210  NZ       -20.0090  -57.1600   66.7580 N.3   356  LYS356     -0.1314
    211  N        -13.9170  -54.2540   69.0270 N.am  357  ARG357     -0.1977
    212  CA       -12.7360  -54.1750   69.8940 C.3   357  ARG357      0.1597
    213  C        -13.0530  -54.1670   71.4020 C.2   357  ARG357      0.2287
    214  O        -14.2100  -54.0320   71.7910 O.2   357  ARG357     -0.2864
    215  CB       -11.8420  -52.9670   69.4860 C.3   357  ARG357      0.0334
    216  CG       -12.2480  -51.5960   70.0270 C.3   357  ARG357      0.0492
    217  CD       -13.3150  -50.9150   69.2090 C.3   357  ARG357      0.2205
    218  NE       -13.6740  -49.6120   69.7650 N.pl3 357  ARG357     -0.0865
    219  CZ       -14.6700  -48.8540   69.3200 C.cat 357  ARG357      0.5346
    220  NH1      -15.4300  -49.2680   68.3140 N.pl3 357  ARG357      0.1354
    221  NH2      -14.9220  -47.6820   69.8850 N.pl3 357  ARG357      0.1354
    222  N        -12.1050  -52.3950   75.2430 N.3   359  GLU359     -0.1245
    223  CA       -11.5990  -51.1700   75.8280 C.3   359  GLU359      0.1567
    224  C        -11.0890  -51.4680   77.2240 C.2   359  GLU359      0.2260
    225  O        -11.8990  -51.6550   78.1390 O.2   359  GLU359     -0.2867
    226  CB       -12.6860  -50.0770   75.8390 C.3   359  GLU359      0.0388
    227  CG       -12.2560  -48.7700   76.4780 C.3   359  GLU359      0.1160
    228  CD       -13.4050  -47.8250   76.7530 C.2   359  GLU359      0.3649
    229  OE1      -14.3690  -48.2430   77.4370 O.co2 359  GLU359     -0.2457
    230  OE2      -13.3510  -46.6700   76.2710 O.co2 359  GLU359     -0.2457
    231  N         -9.9970  -50.1680   80.3890 N.3   361  ARG361     -0.1245
    232  CA       -10.2400  -48.8760   81.0180 C.3   361  ARG361      0.1563
    233  C         -9.2760  -48.5000   82.1240 C.2   361  ARG361      0.2260
    234  O         -9.1190  -47.3130   82.3850 O.2   361  ARG361     -0.2867
    235  CB       -11.7060  -48.7330   81.4460 C.3   361  ARG361      0.0307
    236  CG       -12.6930  -48.8160   80.2840 C.3   361  ARG361      0.0489
    237  CD       -14.1400  -48.8410   80.7430 C.3   361  ARG361      0.2205
    238  NE       -14.5440  -47.6030   81.4160 N.pl3 361  ARG361     -0.0865
    239  CZ       -14.9720  -46.5080   80.7950 C.cat 361  ARG361      0.5346
    240  NH1      -15.0430  -46.4710   79.4700 N.pl3 361  ARG361      0.1354
    241  NH2      -15.3160  -45.4360   81.4920 N.pl3 361  ARG361      0.1354
@<TRIPOS>BOND
     1   196   195    1
     2   195   194    1
     3   194   193    1
     4   193   192    1
     5   157   155   ar
     6   157   158   ar
     7    12    11    1
     8   155   152   ar
     9   192   189    1
    10   158   156   ar
    11    11    10   ar
    12    11     9   ar
    13   188   189    1
    14   189   190    1
    15   152   150   ar
    16   152   154   ar
    17   147   148    2
    18   147   146    1
    19   149   150    1
    20   149   146    1
    21    10     8   ar
    22   156   154   ar
    23     9     7   ar
    24   150   151   ar
    25   146   145    1
    26   154   153   ar
    27   109   108   ar
    28   109   107   ar
    29   108   106   ar
    30   190   191    2
    31   190   197   am
    32     8     6   ar
    33   197   198    1
    34     7     6   ar
    35   107   105   ar
    36   151   153   ar
    37   106   104   ar
    38   102   101    2
    39     6     5    1
    40   201   198    1
    41   198   199    1
    42   105   104   ar
    43    53    51   ar
    44   104   103    1
    45    50    51    1
    46    50    49    1
    47    48    47    2
    48   101   100    1
    49    46    45    1
    50    46    47    1
    51    46    49    1
    52     5     2    1
    53    51    52   ar
    54    47    54   am
    55   202   199   am
    56   202   203    1
    57    99   100    1
    58   199   200    2
    59   100   103    1
    60   144   143    1
    61   207   206    1
    62   207   208    1
    63     2     1    1
    64     2     3    1
    65   206   203    1
    66   142   141    2
    67   210   209    1
    68   203   204    1
    69    54    55    1
    70   205   204    2
    71   141   140    1
    72   143   140    1
    73    93    92    1
    74    93    94    2
    75   209   208    1
    76   204   211   am
    77    55    58    1
    78    55    56    1
    79     3     4    2
    80    92    95    1
    81    92    91    1
    82    95    97    1
    83    95    96    1
    84   140   139    1
    85    58    59    1
    86   220   219    1
    87    62    61    1
    88    56    57    2
    89   211   212    1
    90   139   132   am
    91    98    96    1
    92   217   218    1
    93   217   216    1
    94    59    60    1
    95   219   218    2
    96   219   221    1
    97   215   212    1
    98   215   216    1
    99    60    61    1
   100   212   213    1
   101    14    13    1
   102    14    15    1
   103   132   133    2
   104   132   131    1
   105   131   130    1
   106   131   134    1
   107    23    17    1
   108    23    22    1
   109   184   183    2
   110   123   122    2
   111   213   214    2
   112    15    17   am
   113    15    16    2
   114   130   122   am
   115   124   125    1
   116   124   121    1
   117   122   121    1
   118   134   135    1
   119   183   182    1
   120    17    18    1
   121    22    21    1
   122   126   125   ar
   123   126   128   ar
   124   185   186    1
   125   185   182    1
   126   125   127   ar
   127    20    19    2
   128   121   120    1
   129   186   187    1
   130   182   181    1
   131   128   129   ar
   132   187   181    1
   133    31    30   ar
   134   135   136    1
   135    63    64    1
   136   127   129   ar
   137    18    19    1
   138    18    21    1
   139    19    24   am
   140    85    84    2
   141    29    30    1
   142    29    28    1
   143    69    68   ar
   144    69    71   ar
   145    30    32   ar
   146    64    67    1
   147    64    65    1
   148   136   137    2
   149   136   138   am
   150    67    68    1
   151    90    88   ar
   152    84    83    1
   153   180   178    1
   154    24    25    1
   155    68    70   ar
   156    71    72   ar
   157    25    28    1
   158    25    26    1
   159   222   223    1
   160    65    66    2
   161   179   178    1
   162   178   177    2
   163    88    89   ar
   164    88    87    1
   165   223   226    1
   166   223   224    1
   167   173   172    2
   168   226   227    1
   169   113   112    2
   170    83    86    1
   171    83    82    1
   172   169   167    1
   173    44    43    1
   174    70    72   ar
   175    87    86    1
   176    26    27    2
   177   230   228   ar
   178   227   228    1
   179   172   171    1
   180   177   176    1
   181   228   229   ar
   182   112   111    1
   183   168   167    1
   184    43    42   ar
   185    43    41   ar
   186   167   166    2
   187   224   225    2
   188    42    40   ar
   189   175   176    1
   190   175   174    1
   191    41    39   ar
   192   114   111    1
   193   114   115    1
   194   171   174    1
   195   171   170    1
   196   111   110    1
   197   166   165    1
   198    40    38   ar
   199    81    79   ar
   200    39    38   ar
   201   115   117   ar
   202   115   116   ar
   203   117   119   ar
   204    38    37    1
   205    73    74    1
   206   240   239    1
   207    78    79    1
   208    78    77    1
   209   165   164    1
   210    79    80   ar
   211    35    34    1
   212    35    36    2
   213   164   163    1
   214   116   118   ar
   215    74    77    1
   216    74    75    1
   217    34    37    1
   218    34    33    1
   219   236   237    1
   220   236   235    1
   221   119   118   ar
   222   231   232    1
   223   237   238    1
   224   239   238    2
   225   239   241    1
   226   232   235    1
   227   232   233    1
   228   163   160    1
   229    75    76    2
   230   159   160    1
   231   160   161    1
   232   233   234    2
   233   161   162    2
