@<TRIPOS>MOLECULE
tmp/3ng5A01.pdb
 114 116 0 0 0
SMALL
GASTEIGER

@<TRIPOS>ATOM
      1  N        -18.6080    3.8990   -5.6190 N.3    23  HIS23      -0.1226
      2  CA       -19.8460    3.1840   -5.3350 C.3    23  HIS23       0.1752
      3  C        -19.6500    1.7130   -5.6070 C.2    23  HIS23       0.2596
      4  O        -19.1090    1.3450   -6.6450 O.2    23  HIS23      -0.2718
      5  CB       -20.9800    3.7240   -6.2030 C.3    23  HIS23       0.0759
      6  CG       -21.0950    5.2120   -6.1480 C.ar   23  HIS23       0.0818
      7  ND1      -21.7290    5.8640   -5.1140 N.ar   23  HIS23      -0.2268
      8  CD2      -20.6100    6.1740   -6.9670 C.ar   23  HIS23       0.1154
      9  CE1      -21.6480    7.1690   -5.3100 C.ar   23  HIS23       0.1986
     10  NE2      -20.9770    7.3810   -6.4270 N.ar   23  HIS23      -0.2212
     11  N        -20.0810    0.8790   -4.6770 N.am   24  VAL24      -0.1966
     12  CA       -20.0370   -0.5730   -4.9000 C.3    24  VAL24       0.1727
     13  C        -21.4440   -1.1170   -5.1420 C.2    24  VAL24       0.2616
     14  O        -22.3990   -0.7180   -4.4530 O.2    24  VAL24      -0.2715
     15  CB       -19.4190   -1.3020   -3.6870 C.3    24  VAL24       0.0290
     16  CG1      -19.2410   -2.7650   -3.9970 C.3    24  VAL24       0.0023
     17  CG2      -18.0930   -0.6610   -3.2960 C.3    24  VAL24       0.0023
     18  N        -21.5720   -2.0280   -6.1010 N.am   25  PHE25      -0.1974
     19  CA       -22.8320   -2.7130   -6.3580 C.3    25  PHE25       0.1639
     20  C        -22.6350   -4.2030   -6.2400 C.2    25  PHE25       0.2290
     21  O        -21.5250   -4.6930   -6.3670 O.2    25  PHE25      -0.2864
     22  CB       -23.3110   -2.3950   -7.7720 C.3    25  PHE25       0.0560
     23  CG       -23.4460   -0.9260   -8.0270 C.ar   25  PHE25      -0.0200
     24  CD1      -22.3210   -0.1450   -8.2470 C.ar   25  PHE25      -0.0042
     25  CD2      -24.6930   -0.3270   -8.0190 C.ar   25  PHE25      -0.0042
     26  CE1      -22.4400    1.2230   -8.4690 C.ar   25  PHE25      -0.0003
     27  CE2      -24.8160    1.0360   -8.2380 C.ar   25  PHE25      -0.0003
     28  CZ       -23.6910    1.8020   -8.4610 C.ar   25  PHE25      -0.0000
     29  N        -29.7750   -7.4380  -11.9530 N.3    32  THR32      -0.1203
     30  CA       -29.5440   -6.0010  -11.8570 C.3    32  THR32       0.1994
     31  C        -28.5100   -5.6870  -10.7830 C.2    32  THR32       0.2618
     32  O        -28.2760   -6.4950   -9.8750 O.2    32  THR32      -0.2717
     33  CB       -30.8400   -5.2140  -11.5500 C.3    32  THR32       0.1784
     34  OG1      -31.2270   -5.4200  -10.1830 O.3    32  THR32      -0.2211
     35  CG2      -31.9620   -5.6480  -12.4780 C.3    32  THR32       0.0376
     36  N        -27.9080   -4.5060  -10.8950 N.am   33  TRP33      -0.1961
     37  CA       -26.9210   -4.0280   -9.9380 C.3    33  TRP33       0.1771
     38  C        -27.5720   -3.3210   -8.7740 C.2    33  TRP33       0.2619
     39  O        -28.0670   -2.2060   -8.9250 O.2    33  TRP33      -0.2715
     40  CB       -25.9710   -3.0410  -10.6110 C.3    33  TRP33       0.0590
     41  CG       -25.0360   -3.6700  -11.5650 C.ar   33  TRP33       0.0006
     42  CD1      -24.9880   -3.4890  -12.9150 C.ar   33  TRP33       0.0946
     43  CD2      -23.9960   -4.5920  -11.2430 C.ar   33  TRP33       0.0152
     44  NE1      -23.9760   -4.2420  -13.4550 N.ar   33  TRP33      -0.2442
     45  CE2      -23.3530   -4.9300  -12.4480 C.ar   33  TRP33       0.0810
     46  CE3      -23.5470   -5.1630  -10.0500 C.ar   33  TRP33       0.0012
     47  CZ2      -22.2830   -5.8100  -12.4960 C.ar   33  TRP33       0.0191
     48  CZ3      -22.4800   -6.0370  -10.0990 C.ar   33  TRP33       0.0001
     49  CH2      -21.8590   -6.3520  -11.3130 C.ar   33  TRP33       0.0015
     50  N        -27.5450   -3.9460   -7.6050 N.am   34  GLU34      -0.1964
     51  CA       -28.1120   -3.3170   -6.4170 C.3    34  GLU34       0.1718
     52  C        -27.0400   -2.5540   -5.6330 C.2    34  GLU34       0.2458
     53  O        -25.9560   -3.0710   -5.3800 O.2    34  GLU34      -0.2730
     54  CB       -28.7840   -4.3650   -5.5220 C.3    34  GLU34       0.0428
     55  CG       -27.8660   -5.0040   -4.4920 C.3    34  GLU34       0.1163
     56  CD       -28.6290   -5.7010   -3.3780 C.2    34  GLU34       0.3649
     57  OE1      -28.0190   -5.9890   -2.3240 O.co2  34  GLU34      -0.2457
     58  OE2      -29.8400   -5.9530   -3.5580 O.co2  34  GLU34      -0.2457
     59  N        -27.3310   -1.3050   -5.2520 N.am   35  PRO35      -0.2716
     60  CA       -26.3320   -0.5680   -4.4750 C.3    35  PRO35       0.1536
     61  C        -25.9090   -1.3520   -3.2330 C.2    35  PRO35       0.2599
     62  O        -26.7500   -1.9280   -2.5530 O.2    35  PRO35      -0.2715
     63  CB       -27.0880    0.7120   -4.0700 C.3    35  PRO35       0.0310
     64  CG       -28.1430    0.8750   -5.1010 C.3    35  PRO35       0.0237
     65  CD       -28.5640   -0.5270   -5.4570 C.3    35  PRO35       0.0939
     66  N        -24.6200   -1.3590   -2.9320 N.am   36  PHE36      -0.1960
     67  CA       -24.1050   -2.1620   -1.8330 C.3    36  PHE36       0.1771
     68  C        -23.3330   -1.3500   -0.7760 C.2    36  PHE36       0.2619
     69  O        -23.4550   -1.6150    0.4210 O.2    36  PHE36      -0.2715
     70  CB       -23.2700   -3.3130   -2.4140 C.3    36  PHE36       0.0574
     71  CG       -22.7030   -4.2500   -1.3830 C.ar   36  PHE36      -0.0200
     72  CD1      -23.4850   -5.2480   -0.8260 C.ar   36  PHE36      -0.0042
     73  CD2      -21.3760   -4.1480   -0.9950 C.ar   36  PHE36      -0.0042
     74  CE1      -22.9560   -6.1040    0.1120 C.ar   36  PHE36      -0.0003
     75  CE2      -20.8480   -5.0000   -0.0520 C.ar   36  PHE36      -0.0003
     76  CZ       -21.6380   -5.9800    0.4910 C.ar   36  PHE36      -0.0000
     77  N        -22.5500   -0.3650   -1.2150 N.am   37  ALA37      -0.1963
     78  CA       -21.7800    0.4890   -0.3030 C.3    37  ALA37       0.1728
     79  C        -21.2400    1.6850   -1.0680 C.2    37  ALA37       0.2616
     80  O        -21.2110    1.6620   -2.3030 O.2    37  ALA37      -0.2715
     81  CB       -20.6330   -0.2950    0.3200 C.3    37  ALA37       0.0334
     82  N        -20.8230    2.7280   -0.3530 N.am   38  SER38      -0.1950
     83  CA       -20.1070    3.8350   -0.9830 C.3    38  SER38       0.1924
     84  C        -19.2360    4.5700    0.0170 C.2    38  SER38       0.2314
     85  O        -19.2810    4.3100    1.2280 O.2    38  SER38      -0.2863
     86  CB       -21.0580    4.8070   -1.6880 C.3    38  SER38       0.2116
     87  OG       -22.0680    5.2850   -0.8260 O.3    38  SER38      -0.2180
     88  N        -17.1540    1.1000   -8.5880 N.3    64  GLU64      -0.1245
     89  CA       -17.1580    2.1370   -9.6020 C.3    64  GLU64       0.1567
     90  C        -16.4760    3.3480   -9.0040 C.2    64  GLU64       0.2260
     91  O        -16.9590    3.8980   -8.0290 O.2    64  GLU64      -0.2867
     92  CB       -18.5970    2.4590   -9.9930 C.3    64  GLU64       0.0388
     93  CG       -18.7450    3.6450  -10.9080 C.3    64  GLU64       0.1160
     94  CD       -20.2000    3.9820  -11.1640 C.2    64  GLU64       0.3649
     95  OE1      -20.6270    5.0840  -10.7590 O.co2  64  GLU64      -0.2457
     96  OE2      -20.9120    3.1410  -11.7570 O.co2  64  GLU64      -0.2457
     97  N        -15.2390    7.1470   -9.2590 N.3    66  ASP66      -0.1239
     98  CA       -15.6220    8.3550   -9.9670 C.3    66  ASP66       0.1674
     99  C        -14.3960    9.1830  -10.3750 C.2    66  ASP66       0.2266
    100  O        -14.1430   10.2610   -9.8250 O.2    66  ASP66      -0.2867
    101  CB       -16.5980    9.1440   -9.0970 C.3    66  ASP66       0.1410
    102  CG       -17.7960    8.3040   -8.6640 C.2    66  ASP66       0.3668
    103  OD1      -18.2520    7.4440   -9.4540 O.co2  66  ASP66      -0.2456
    104  OD2      -18.2820    8.4970   -7.5310 O.co2  66  ASP66      -0.2456
    105  N        -15.6020    6.9470  -15.6090 N.3    82  HIS82      -0.1241
    106  CA       -15.2090    6.3710  -14.3390 C.3    82  HIS82       0.1621
    107  C        -14.3960    5.1230  -14.6200 C.2    82  HIS82       0.2264
    108  O        -14.2030    4.7540  -15.7670 O.2    82  HIS82      -0.2867
    109  CB       -16.4240    6.0450  -13.4660 C.3    82  HIS82       0.0745
    110  CG       -17.5150    5.3390  -14.1970 C.ar   82  HIS82       0.0817
    111  ND1      -18.7200    5.9360  -14.4890 N.ar   82  HIS82      -0.2268
    112  CD2      -17.5750    4.0900  -14.7130 C.ar   82  HIS82       0.1154
    113  CE1      -19.4840    5.0810  -15.1460 C.ar   82  HIS82       0.1986
    114  NE2      -18.8120    3.9520  -15.2930 N.ar   82  HIS82      -0.2212
@<TRIPOS>BOND
     1   108   107    2
     2   105   106    1
     3   114   113   ar
     4   114   112   ar
     5   113   111   ar
     6   112   110   ar
     7   107   106    1
     8   111   110   ar
     9   106   109    1
    10   110   109    1
    11    44    42   ar
    12    44    45   ar
    13    42    41   ar
    14    47    45   ar
    15    47    49   ar
    16    35    33    1
    17    45    43   ar
    18    29    30    1
    19    30    33    1
    20    30    31    1
    21    96    94   ar
    22    41    43   ar
    23    41    40    1
    24    33    34    1
    25    49    48   ar
    26    43    46   ar
    27    94    93    1
    28    94    95   ar
    29    93    92    1
    30    36    31   am
    31    36    37    1
    32    31    32    2
    33    40    37    1
    34    99    98    1
    35    99   100    2
    36    48    46   ar
    37    92    89    1
    38    98    97    1
    39    98   101    1
    40    37    38    1
    41    89    90    1
    42    89    88    1
    43   103   102   ar
    44   101   102    1
    45    90    91    2
    46    39    38    2
    47    38    50   am
    48   102   104   ar
    49    26    28   ar
    50    26    24   ar
    51    28    27   ar
    52    24    23   ar
    53    27    25   ar
    54    23    25   ar
    55    23    22    1
    56    22    19    1
    57    50    51    1
    58     8    10   ar
    59     8     6   ar
    60     4     3    2
    61    10     9   ar
    62    51    52    1
    63    51    54    1
    64    21    20    2
    65    19    20    1
    66    19    18    1
    67     5     6    1
    68     5     2    1
    69     6     7   ar
    70    18    13   am
    71    52    53    2
    72    52    59   am
    73     1     2    1
    74     3     2    1
    75     3    11   am
    76    54    55    1
    77    65    59    1
    78    65    64    1
    79     9     7   ar
    80    59    60    1
    81    13    12    1
    82    13    14    2
    83    64    63    1
    84    12    11    1
    85    12    15    1
    86    55    56    1
    87    60    63    1
    88    60    61    1
    89    16    15    1
    90    15    17    1
    91    58    56   ar
    92    56    57   ar
    93    61    66   am
    94    61    62    2
    95    66    67    1
    96    70    67    1
    97    70    71    1
    98    80    79    2
    99    67    68    1
   100    86    83    1
   101    86    87    1
   102    71    73   ar
   103    71    72   ar
   104    77    68   am
   105    77    78    1
   106    79    82   am
   107    79    78    1
   108    73    75   ar
   109    83    82    1
   110    83    84    1
   111    72    74   ar
   112    68    69    2
   113    78    81    1
   114    75    76   ar
   115    84    85    2
   116    74    76   ar
