@<TRIPOS>MOLECULE
tmp/3ng5A00.pdb
 85 83 0 0 0
SMALL
GASTEIGER

@<TRIPOS>ATOM
      1  N         -2.4990    8.7130   -7.6720 N.3    10  ASP10      -0.1239
      2  CA        -2.5220    9.6880   -8.7490 C.3    10  ASP10       0.1674
      3  C         -1.1430    9.6550   -9.4310 C.2    10  ASP10       0.2266
      4  O         -0.1400   10.0190   -8.8240 O.2    10  ASP10      -0.2867
      5  CB        -2.8510   11.0700   -8.1570 C.3    10  ASP10       0.1410
      6  CG        -2.8900   12.1740   -9.1780 C.2    10  ASP10       0.3668
      7  OD1       -2.1000   12.1570  -10.1470 O.co2  10  ASP10      -0.2456
      8  OD2       -3.7150   13.0960   -8.9750 O.co2  10  ASP10      -0.2456
      9  N         -0.1240   11.4480  -12.0220 N.3    12  VAL12      -0.1231
     10  CA         0.3170   12.7790  -12.4320 C.3    12  VAL12       0.1692
     11  C          1.0870   13.5020  -11.3030 C.2    12  VAL12       0.2591
     12  O          2.1270   14.1130  -11.5350 O.2    12  VAL12      -0.2718
     13  CB        -0.8810   13.6260  -12.8480 C.3    12  VAL12       0.0266
     14  CG1       -0.4530   15.1060  -13.0700 C.3    12  VAL12       0.0020
     15  CG2       -1.5270   13.0560  -14.1050 C.3    12  VAL12       0.0020
     16  N          0.5800   13.3950  -10.0860 N.am   13  ARG13      -0.1980
     17  CA         1.1420   14.0770   -8.9290 C.3    13  ARG13       0.1597
     18  C          2.1180   13.2090   -8.1380 C.2    13  ARG13       0.2287
     19  O          2.9850   13.7090   -7.4380 O.2    13  ARG13      -0.2864
     20  CB         0.0120   14.5480   -8.0130 C.3    13  ARG13       0.0334
     21  CG         0.3870   15.6940   -7.0720 C.3    13  ARG13       0.0492
     22  CD         1.1300   16.8060   -7.8160 C.3    13  ARG13       0.2205
     23  NE         1.0840   18.1000   -7.1290 N.pl3  13  ARG13      -0.0865
     24  CZ         1.7330   19.1910   -7.5380 C.cat  13  ARG13       0.5346
     25  NH1        2.4890   19.1460   -8.6230 N.pl3  13  ARG13       0.1354
     26  NH2        1.6330   20.3310   -6.8620 N.pl3  13  ARG13       0.1354
     27  N          1.0710   10.8780   -5.8600 N.3    15  SER15      -0.1217
     28  CA         0.4830   10.9940   -4.5400 C.3    15  SER15       0.1889
     29  C         -0.7610   10.1470   -4.4670 C.2    15  SER15       0.2288
     30  O         -1.3160    9.7520   -5.4760 O.2    15  SER15      -0.2866
     31  CB         0.0860   12.4430   -4.2930 C.3    15  SER15       0.2089
     32  OG        -0.9310   12.8150   -5.2090 O.3    15  SER15      -0.2183
     33  N        -13.0460   13.3400  -10.0060 N.3    70  TYR70      -0.1227
     34  CA       -11.7300   13.5480   -9.4060 C.3    70  TYR70       0.1736
     35  C        -10.8900   14.4920  -10.2500 C.2    70  TYR70       0.2595
     36  O        -10.3400   15.4620   -9.7330 O.2    70  TYR70      -0.2718
     37  CB       -10.9940   12.2000   -9.2070 C.3    70  TYR70       0.0548
     38  CG        -9.5880   12.3860   -8.7090 C.ar   70  TYR70      -0.0200
     39  CD1       -9.3330   12.6180   -7.3650 C.ar   70  TYR70      -0.0009
     40  CD2       -8.5020   12.3420   -9.5880 C.ar   70  TYR70      -0.0009
     41  CE1       -8.0380   12.8190   -6.9140 C.ar   70  TYR70       0.0417
     42  CE2       -7.2010   12.5320   -9.1520 C.ar   70  TYR70       0.0417
     43  CZ        -6.9780   12.7690   -7.8010 C.ar   70  TYR70       0.1957
     44  OH        -5.6930   12.9730   -7.3450 O.3    70  TYR70      -0.2866
     45  N        -10.7970   14.2190  -11.5530 N.am   71  TRP71      -0.1976
     46  CA        -9.9520   15.0150  -12.4380 C.3    71  TRP71       0.1640
     47  C        -10.5590   16.4020  -12.6700 C.2    71  TRP71       0.2290
     48  O         -9.8380   17.3780  -12.6880 O.2    71  TRP71      -0.2864
     49  CB        -9.6970   14.3340  -13.7940 C.3    71  TRP71       0.0576
     50  CG        -8.8200   13.1170  -13.6790 C.ar   71  TRP71       0.0006
     51  CD1       -9.1800   11.8080  -13.8740 C.ar   71  TRP71       0.0946
     52  CD2       -7.4480   13.1050  -13.2800 C.ar   71  TRP71       0.0152
     53  NE1       -8.0980   10.9830  -13.6440 N.ar   71  TRP71      -0.2442
     54  CE2       -7.0270   11.7610  -13.2590 C.ar   71  TRP71       0.0810
     55  CE3       -6.5340   14.1090  -12.9190 C.ar   71  TRP71       0.0012
     56  CZ2       -5.7270   11.3990  -12.9170 C.ar   71  TRP71       0.0191
     57  CZ3       -5.2550   13.7570  -12.5840 C.ar   71  TRP71       0.0001
     58  CH2       -4.8580   12.4050  -12.5650 C.ar   71  TRP71       0.0015
     59  N         -9.8000   18.9960  -10.2550 N.3    74  LEU74      -0.1231
     60  CA        -8.4160   19.4600  -10.3590 C.3    74  LEU74       0.1693
     61  C         -8.2240   20.3140  -11.5920 C.2    74  LEU74       0.2593
     62  O         -7.1180   20.7260  -11.9050 O.2    74  LEU74      -0.2718
     63  CB        -7.4540   18.2560  -10.4260 C.3    74  LEU74       0.0284
     64  CG        -7.1370   17.5380   -9.1140 C.3    74  LEU74       0.0019
     65  CD1       -6.4260   16.1970   -9.3510 C.3    74  LEU74       0.0001
     66  CD2       -6.2810   18.4440   -8.2460 C.3    74  LEU74       0.0001
     67  N         -9.3190   20.5580  -12.3000 N.am   75  GLY75      -0.1942
     68  CA        -9.3020   21.3840  -13.4880 C.3    75  GLY75       0.2014
     69  C         -8.9660   20.6550  -14.7650 C.2    75  GLY75       0.2638
     70  O         -8.8180   21.2810  -15.8110 O.2    75  GLY75      -0.2714
     71  N         -8.8600   19.3250  -14.6760 N.am   76  ILE76      -0.1977
     72  CA        -8.4350   18.4880  -15.7930 C.3    76  ILE76       0.1596
     73  C         -9.6230   17.7520  -16.4230 C.2    76  ILE76       0.2287
     74  O        -10.5010   17.2810  -15.7190 O.2    76  ILE76      -0.2864
     75  CB        -7.3800   17.4630  -15.3170 C.3    76  ILE76       0.0276
     76  CG1       -6.0610   18.1820  -15.0040 C.3    76  ILE76       0.0022
     77  CG2       -7.1690   16.3850  -16.3350 C.3    76  ILE76       0.0022
     78  CD1       -5.0990   17.3920  -14.1190 C.3    76  ILE76       0.0001
     79  N         -4.9790   11.0350  -16.5970 N.3   105  PRO105     -0.2116
     80  CA        -6.1980   11.5200  -17.2570 C.3   105  PRO105      0.1372
     81  C         -6.6860   10.6570  -18.4190 C.2   105  PRO105      0.2244
     82  O         -7.8910   10.5640  -18.5960 O.2   105  PRO105     -0.2868
     83  CB        -5.8060   12.9320  -17.7120 C.3   105  PRO105      0.0268
     84  CG        -4.8530   13.3770  -16.6260 C.3   105  PRO105      0.0207
     85  CD        -4.0380   12.1250  -16.2910 C.3   105  PRO105      0.0892
@<TRIPOS>BOND
     1    82    81    2
     2    81    80    1
     3    83    80    1
     4    83    84    1
     5    80    79    1
     6    84    85    1
     7    79    85    1
     8    73    72    1
     9    73    74    2
    10    77    75    1
    11    70    69    2
    12    72    75    1
    13    72    71    1
    14    75    76    1
    15    76    78    1
    16    69    71   am
    17    69    68    1
    18    15    13    1
    19    51    50   ar
    20    51    53   ar
    21    49    50    1
    22    49    46    1
    23    50    52   ar
    24    53    54   ar
    25    68    67    1
    26    52    54   ar
    27    52    55   ar
    28    54    56   ar
    29    14    13    1
    30    55    57   ar
    31    56    58   ar
    32    13    10    1
    33    48    47    2
    34    47    46    1
    35    57    58   ar
    36    46    45    1
    37    10     9    1
    38    10    11    1
    39    67    61   am
    40    62    61    2
    41    61    60    1
    42    45    35   am
    43    12    11    2
    44    11    16   am
    45    63    60    1
    46    63    64    1
    47    60    59    1
    48    35    36    2
    49    35    34    1
    50     7     6   ar
    51    16    17    1
    52    33    34    1
    53    40    42   ar
    54    40    38   ar
    55     3     4    2
    56     3     2    1
    57    34    37    1
    58    65    64    1
    59    37    38    1
    60     6     8   ar
    61     6     5    1
    62    42    43   ar
    63    64    66    1
    64    17    18    1
    65    17    20    1
    66     2     5    1
    67     2     1    1
    68    38    39   ar
    69    25    24    1
    70    18    19    2
    71    20    21    1
    72    22    23    1
    73    22    21    1
    74    43    44    1
    75    43    41   ar
    76    24    23    2
    77    24    26    1
    78    39    41   ar
    79    27    28    1
    80    30    29    2
    81    32    31    1
    82    28    29    1
    83    28    31    1
