@<TRIPOS>MOLECULE
tmp/3ng7A03.pdb
 129 128 0 0 0
SMALL
GASTEIGER

@<TRIPOS>ATOM
      1  N        -45.6740   22.9170   70.4130 N.3    59  TYR59      -0.1241
      2  CA       -45.7890   22.2350   71.6980 C.3    59  TYR59       0.1605
      3  C        -44.5350   22.4100   72.5540 C.2    59  TYR59       0.2264
      4  O        -43.4290   22.4240   72.0550 O.2    59  TYR59      -0.2867
      5  CB       -46.0740   20.7390   71.5190 C.3    59  TYR59       0.0534
      6  CG       -47.3130   20.4040   70.7250 C.ar   59  TYR59      -0.0201
      7  CD1      -47.2440   20.1500   69.3730 C.ar   59  TYR59      -0.0009
      8  CD2      -48.5490   20.3130   71.3360 C.ar   59  TYR59      -0.0009
      9  CE1      -48.3610   19.8350   68.6520 C.ar   59  TYR59       0.0417
     10  CE2      -49.6750   19.9880   70.6190 C.ar   59  TYR59       0.0417
     11  CZ       -49.5760   19.7610   69.2770 C.ar   59  TYR59       0.1957
     12  OH       -50.6870   19.4410   68.5580 O.3    59  TYR59      -0.2866
     13  N        -52.1090   21.1940   76.3250 N.3    82  ALA82      -0.1231
     14  CA       -52.4710   20.5230   75.0970 C.3    82  ALA82       0.1694
     15  C        -53.7100   19.6700   75.3220 C.2    82  ALA82       0.2593
     16  O        -53.8960   19.1170   76.3850 O.2    82  ALA82      -0.2718
     17  CB       -51.3260   19.6770   74.6010 C.3    82  ALA82       0.0304
     18  N        -54.5530   19.5760   74.3070 N.am   83  SER83      -0.1938
     19  CA       -55.7900   18.8090   74.4110 C.3    83  SER83       0.2055
     20  C        -55.5770   17.3940   74.9720 C.2    83  SER83       0.2643
     21  O        -54.8450   16.6150   74.4050 O.2    83  SER83      -0.2714
     22  CB       -56.5150   18.7770   73.0570 C.3    83  SER83       0.2130
     23  OG       -55.6530   18.4140   71.9980 O.3    83  SER83      -0.2179
     24  N        -56.2050   17.0990   76.1060 N.am   84  GLU84      -0.1963
     25  CA       -56.1570   15.7710   76.7270 C.3    84  GLU84       0.1733
     26  C        -56.6760   14.7110   75.7660 C.2    84  GLU84       0.2616
     27  O        -57.6410   14.9560   75.0580 O.2    84  GLU84      -0.2715
     28  CB       -57.0110   15.7490   77.9970 C.3    84  GLU84       0.0429
     29  CG       -56.7360   14.5740   78.9250 C.3    84  GLU84       0.1163
     30  CD       -57.8250   14.3500   79.9790 C.2    84  GLU84       0.3649
     31  OE1      -57.6170   13.5070   80.8730 O.co2  84  GLU84      -0.2457
     32  OE2      -58.8840   15.0020   79.9180 O.co2  84  GLU84      -0.2457
     33  N        -56.0470   13.5410   75.7220 N.am   85  PHE85      -0.1974
     34  CA       -56.5350   12.5140   74.7530 C.3    85  PHE85       0.1639
     35  C        -57.4150   11.6350   75.5870 C.2    85  PHE85       0.2290
     36  O        -56.9810   11.1830   76.6550 O.2    85  PHE85      -0.2864
     37  CB       -55.4590   11.6230   74.1600 C.3    85  PHE85       0.0560
     38  CG       -54.5570   12.3390   73.2850 C.ar   85  PHE85      -0.0200
     39  CD1      -55.0360   13.3650   72.4740 C.ar   85  PHE85      -0.0042
     40  CD2      -53.2250   12.0720   73.3340 C.ar   85  PHE85      -0.0042
     41  CE1      -54.1470   14.0460   71.6140 C.ar   85  PHE85      -0.0003
     42  CE2      -52.3560   12.7160   72.4850 C.ar   85  PHE85      -0.0003
     43  CZ       -52.8480   13.7010   71.6350 C.ar   85  PHE85      -0.0000
     44  N        -44.1190    6.3730   66.7030 N.3   163  TRP163     -0.1241
     45  CA       -43.7240    7.6130   67.3560 C.3   163  TRP163      0.1605
     46  C        -42.3720    8.1150   66.8470 C.2   163  TRP163      0.2264
     47  O        -42.1590    9.3020   66.7380 O.2   163  TRP163     -0.2867
     48  CB       -43.7390    7.4950   68.8810 C.3   163  TRP163      0.0550
     49  CG       -45.0690    7.7500   69.5160 C.ar  163  TRP163      0.0003
     50  CD1      -45.8200    6.8720   70.2190 C.ar  163  TRP163      0.0946
     51  CD2      -45.7960    8.9730   69.5060 C.ar  163  TRP163      0.0152
     52  NE1      -46.9680    7.4620   70.6480 N.ar  163  TRP163     -0.2442
     53  CE2      -46.9790    8.7580   70.2220 C.ar  163  TRP163      0.0810
     54  CE3      -45.5640   10.2320   68.9550 C.ar  163  TRP163      0.0012
     55  CZ2      -47.9210    9.7500   70.3970 C.ar  163  TRP163      0.0191
     56  CZ3      -46.4950   11.2070   69.1330 C.ar  163  TRP163      0.0001
     57  CH2      -47.6570   10.9660   69.8460 C.ar  163  TRP163      0.0015
     58  N        -42.5320   11.8210   74.1400 N.3   195  VAL195     -0.1231
     59  CA       -43.9100   12.1370   73.7780 C.3   195  VAL195      0.1692
     60  C        -44.5350   12.9690   74.8980 C.2   195  VAL195      0.2591
     61  O        -45.4190   13.8260   74.6170 O.2   195  VAL195     -0.2718
     62  CB       -44.6920   10.8140   73.5330 C.3   195  VAL195      0.0266
     63  CG1      -46.2550   11.0400   73.3880 C.3   195  VAL195      0.0020
     64  CG2      -44.0570   10.0300   72.3630 C.3   195  VAL195      0.0020
     65  N        -44.1360   12.7500   76.1630 N.am  196  LEU196     -0.1980
     66  CA       -44.7530   13.5290   77.2500 C.3   196  LEU196      0.1596
     67  C        -44.3790   15.0120   77.1770 C.2   196  LEU196      0.2287
     68  O        -45.1160   15.8780   77.6830 O.2   196  LEU196     -0.2864
     69  CB       -44.4260   12.9240   78.6690 C.3   196  LEU196      0.0297
     70  CG       -45.0520   11.5160   78.8630 C.3   196  LEU196      0.0022
     71  CD1      -44.5170   11.0910   80.2550 C.3   196  LEU196      0.0001
     72  CD2      -46.6110   11.4910   78.8710 C.3   196  LEU196      0.0001
     73  N        -44.9700   16.9130   74.7670 N.3   198  LEU198     -0.1231
     74  CA       -46.0710   17.6100   74.0460 C.3   198  LEU198      0.1693
     75  C        -47.0850   17.9870   75.0850 C.2   198  LEU198      0.2592
     76  O        -48.1740   17.4420   75.1190 O.2   198  LEU198     -0.2718
     77  CB       -46.7330   16.6670   73.0180 C.3   198  LEU198      0.0284
     78  CG       -45.7050   16.0670   72.0910 C.3   198  LEU198      0.0019
     79  CD1      -46.4280   15.0560   71.1250 C.3   198  LEU198      0.0001
     80  CD2      -44.9640   17.1720   71.3170 C.3   198  LEU198      0.0001
     81  N        -46.7640   18.9980   75.8900 N.am  199  ASP199     -0.1974
     82  CA       -47.4800   19.1940   77.1140 C.3   199  ASP199      0.1709
     83  C        -48.3830   20.4500   77.0720 C.2   199  ASP199      0.2293
     84  O        -49.5230   20.4400   77.5960 O.2   199  ASP199     -0.2864
     85  CB       -46.4700   19.2950   78.2400 C.3   199  ASP199      0.1436
     86  CG       -47.1690   19.3880   79.6160 C.2   199  ASP199      0.3671
     87  OD1      -47.8030   18.4160   79.9800 O.co2 199  ASP199     -0.2456
     88  OD2      -47.0600   20.4110   80.3520 O.co2 199  ASP199     -0.2456
     89  N        -56.8170   10.1230   70.0130 N.3   300  GLU300     -0.1245
     90  CA       -55.4640    9.8080   69.5880 C.3   300  GLU300      0.1567
     91  C        -55.3950    8.4830   68.8430 C.2   300  GLU300      0.2260
     92  O        -55.8960    7.4820   69.3080 O.2   300  GLU300     -0.2867
     93  CB       -54.4940    9.7860   70.7720 C.3   300  GLU300      0.0388
     94  CG       -53.0660    9.5020   70.3740 C.3   300  GLU300      0.1160
     95  CD       -52.1830    9.0420   71.5210 C.2   300  GLU300      0.3649
     96  OE1      -52.5620    8.1190   72.2430 O.co2 300  GLU300     -0.2457
     97  OE2      -51.1060    9.6120   71.6840 O.co2 300  GLU300     -0.2457
     98  N        -54.1770   12.7850   65.6330 N.3   311  TYR311     -0.1227
     99  CA       -54.7260   13.1460   66.9230 C.3   311  TYR311      0.1736
    100  C        -55.4020   14.5050   66.9900 C.2   311  TYR311      0.2595
    101  O        -55.2190   15.3330   66.1150 O.2   311  TYR311     -0.2718
    102  CB       -53.7280   12.9010   68.0630 C.3   311  TYR311      0.0548
    103  CG       -52.4620   13.7410   68.0800 C.ar  311  TYR311     -0.0200
    104  CD1      -52.5040   15.1060   68.3150 C.ar  311  TYR311     -0.0009
    105  CD2      -51.2180   13.1530   67.9110 C.ar  311  TYR311     -0.0009
    106  CE1      -51.3500   15.8560   68.3560 C.ar  311  TYR311      0.0417
    107  CE2      -50.0630   13.8950   67.9470 C.ar  311  TYR311      0.0417
    108  CZ       -50.1300   15.2430   68.1740 C.ar  311  TYR311      0.1957
    109  OH       -48.9820   15.9710   68.2080 O.3   311  TYR311     -0.2866
    110  N        -56.1930   14.6980   68.0350 N.am  312  ASP312     -0.1960
    111  CA       -56.9960   15.8910   68.2000 C.3   312  ASP312      0.1840
    112  C        -56.1380   17.1410   68.2620 C.2   312  ASP312      0.2622
    113  O        -55.1370   17.1860   68.9470 O.2   312  ASP312     -0.2715
    114  CB       -57.8820   15.7970   69.4360 C.3   312  ASP312      0.1450
    115  CG       -59.1610   16.6220   69.3160 C.2   312  ASP312      0.3671
    116  OD1      -59.5530   16.9640   68.2000 O.co2 312  ASP312     -0.2456
    117  OD2      -59.7590   16.9240   70.3510 O.co2 312  ASP312     -0.2456
    118  N        -56.5660   18.1510   67.5270 N.am  313  TYR313     -0.1974
    119  CA       -55.9080   19.4370   67.5420 C.3   313  TYR313      0.1639
    120  C        -56.8100   20.5230   68.1320 C.2   313  TYR313      0.2290
    121  O        -56.4500   21.1570   69.1030 O.2   313  TYR313     -0.2864
    122  CB       -55.4050   19.8060   66.1540 C.3   313  TYR313      0.0560
    123  CG       -54.5470   21.0420   66.1190 C.ar  313  TYR313     -0.0198
    124  CD1      -53.2960   21.0620   66.6960 C.ar  313  TYR313     -0.0009
    125  CD2      -55.0010   22.1910   65.5260 C.ar  313  TYR313     -0.0009
    126  CE1      -52.5190   22.2040   66.6690 C.ar  313  TYR313      0.0417
    127  CE2      -54.2440   23.3210   65.4940 C.ar  313  TYR313      0.0417
    128  CZ       -53.0080   23.3360   66.0650 C.ar  313  TYR313      0.1957
    129  OH       -52.2710   24.4900   66.0270 O.3   313  TYR313     -0.2866
@<TRIPOS>BOND
     1   127   125   ar
     2   127   128   ar
     3   125   123   ar
     4    98    99    1
     5   129   128    1
     6   128   126   ar
     7   101   100    2
     8   123   122    1
     9   123   124   ar
    10   122   119    1
    11   126   124   ar
    12    44    45    1
    13    47    46    2
    14    46    45    1
    15    99   100    1
    16    99   102    1
    17   100   110   am
    18    45    48    1
    19   118   119    1
    20   118   112   am
    21   119   120    1
    22   105   107   ar
    23   105   103   ar
    24   107   108   ar
    25   110   111    1
    26   102   103    1
    27   103   104   ar
    28   120   121    2
    29   108   109    1
    30   108   106   ar
    31   116   115   ar
    32   111   112    1
    33   111   114    1
    34   112   113    2
    35   104   106   ar
    36    12    11    1
    37     9    11   ar
    38     9     7   ar
    39    91    92    2
    40    91    90    1
    41    48    49    1
    42    54    56   ar
    43    54    51   ar
    44    56    57   ar
    45    11    10   ar
    46   115   114    1
    47   115   117   ar
    48     7     6   ar
    49    51    49   ar
    50    51    53   ar
    51    49    50   ar
    52    90    89    1
    53    90    93    1
    54    57    55   ar
    55    50    52   ar
    56    53    55   ar
    57    53    52   ar
    58    94    93    1
    59    94    95    1
    60     1     2    1
    61    10     8   ar
    62     6     8   ar
    63     6     5    1
    64    79    78    1
    65    80    78    1
    66     5     2    1
    67    95    97   ar
    68    95    96   ar
    69    41    43   ar
    70    41    39   ar
    71    43    42   ar
    72     2     3    1
    73    23    22    1
    74     4     3    2
    75    78    77    1
    76    64    62    1
    77    39    38   ar
    78    42    40   ar
    79    77    74    1
    80    22    19    1
    81    38    40   ar
    82    38    37    1
    83    63    62    1
    84    62    59    1
    85    59    58    1
    86    59    60    1
    87    74    73    1
    88    74    75    1
    89    37    34    1
    90    18    19    1
    91    18    15   am
    92    21    20    2
    93    19    20    1
    94    17    14    1
    95    61    60    2
    96    34    35    1
    97    34    33    1
    98    60    65   am
    99    20    24   am
   100    27    26    2
   101    75    76    2
   102    75    81   am
   103    14    15    1
   104    14    13    1
   105    15    16    2
   106    35    36    2
   107    33    26   am
   108    26    25    1
   109    81    82    1
   110    24    25    1
   111    65    66    1
   112    25    28    1
   113    83    82    1
   114    83    84    2
   115    82    85    1
   116    67    66    1
   117    67    68    2
   118    66    69    1
   119    28    29    1
   120    85    86    1
   121    69    70    1
   122    70    72    1
   123    70    71    1
   124    29    30    1
   125    86    87   ar
   126    86    88   ar
   127    32    30   ar
   128    30    31   ar
