@<TRIPOS>MOLECULE
tmp/3ng7A00.pdb
 103 103 0 0 0
SMALL
GASTEIGER

@<TRIPOS>ATOM
      1  N        -45.6740   22.9170   70.4130 N.3    59  TYR59      -0.1241
      2  CA       -45.7890   22.2350   71.6980 C.3    59  TYR59       0.1605
      3  C        -44.5350   22.4100   72.5540 C.2    59  TYR59       0.2264
      4  O        -43.4290   22.4240   72.0550 O.2    59  TYR59      -0.2867
      5  CB       -46.0740   20.7390   71.5190 C.3    59  TYR59       0.0534
      6  CG       -47.3130   20.4040   70.7250 C.ar   59  TYR59      -0.0201
      7  CD1      -47.2440   20.1500   69.3730 C.ar   59  TYR59      -0.0009
      8  CD2      -48.5490   20.3130   71.3360 C.ar   59  TYR59      -0.0009
      9  CE1      -48.3610   19.8350   68.6520 C.ar   59  TYR59       0.0417
     10  CE2      -49.6750   19.9880   70.6190 C.ar   59  TYR59       0.0417
     11  CZ       -49.5760   19.7610   69.2770 C.ar   59  TYR59       0.1957
     12  OH       -50.6870   19.4410   68.5580 O.3    59  TYR59      -0.2866
     13  N        -44.1190    6.3730   66.7030 N.3   163  TRP163     -0.1241
     14  CA       -43.7240    7.6130   67.3560 C.3   163  TRP163      0.1605
     15  C        -42.3720    8.1150   66.8470 C.2   163  TRP163      0.2264
     16  O        -42.1590    9.3020   66.7380 O.2   163  TRP163     -0.2867
     17  CB       -43.7390    7.4950   68.8810 C.3   163  TRP163      0.0550
     18  CG       -45.0690    7.7500   69.5160 C.ar  163  TRP163      0.0003
     19  CD1      -45.8200    6.8720   70.2190 C.ar  163  TRP163      0.0946
     20  CD2      -45.7960    8.9730   69.5060 C.ar  163  TRP163      0.0152
     21  NE1      -46.9680    7.4620   70.6480 N.ar  163  TRP163     -0.2442
     22  CE2      -46.9790    8.7580   70.2220 C.ar  163  TRP163      0.0810
     23  CE3      -45.5640   10.2320   68.9550 C.ar  163  TRP163      0.0012
     24  CZ2      -47.9210    9.7500   70.3970 C.ar  163  TRP163      0.0191
     25  CZ3      -46.4950   11.2070   69.1330 C.ar  163  TRP163      0.0001
     26  CH2      -47.6570   10.9660   69.8460 C.ar  163  TRP163      0.0015
     27  N        -43.1080    9.8520   63.5280 N.3   166  ASN166     -0.1225
     28  CA       -43.6280   11.1420   63.9560 C.3   166  ASN166      0.1785
     29  C        -42.5080   12.1050   64.3740 C.2   166  ASN166      0.2597
     30  O        -42.4070   13.2090   63.8730 O.2   166  ASN166     -0.2718
     31  CB       -44.6480   10.9250   65.0770 C.3   166  ASN166      0.1169
     32  CG       -44.9690   12.1840   65.8550 C.2   166  ASN166      0.2627
     33  OD1      -44.1190   12.7570   66.5030 O.2   166  ASN166     -0.2716
     34  ND2      -46.2170   12.5890   65.8130 N.am  166  ASN166     -0.0877
     35  N        -41.6610   11.6570   65.2810 N.am  167  MET167     -0.1979
     36  CA       -40.7720   12.5620   65.9650 C.3   167  MET167      0.1605
     37  C        -39.5850   12.9930   65.1080 C.2   167  MET167      0.2287
     38  O        -39.1390   14.1180   65.1870 O.2   167  MET167     -0.2864
     39  CB       -40.3050   11.9530   67.2700 C.3   167  MET167      0.0413
     40  CG       -41.3300   12.0360   68.3750 C.3   167  MET167      0.0598
     41  SD       -41.5420   13.6960   68.9890 S.3   167  MET167     -0.1393
     42  CE       -43.0700   13.4980   69.8300 C.3   167  MET167      0.0692
     43  N        -44.9700   16.9130   74.7670 N.3   198  LEU198     -0.1245
     44  CA       -46.0710   17.6100   74.0460 C.3   198  LEU198      0.1561
     45  C        -47.0850   17.9870   75.0850 C.2   198  LEU198      0.2260
     46  O        -48.1740   17.4420   75.1190 O.2   198  LEU198     -0.2867
     47  CB       -46.7330   16.6670   73.0180 C.3   198  LEU198      0.0270
     48  CG       -45.7050   16.0670   72.0910 C.3   198  LEU198      0.0019
     49  CD1      -46.4280   15.0560   71.1250 C.3   198  LEU198      0.0001
     50  CD2      -44.9640   17.1720   71.3170 C.3   198  LEU198      0.0001
     51  N        -54.1770   12.7850   65.6330 N.3   311  TYR311     -0.1241
     52  CA       -54.7260   13.1460   66.9230 C.3   311  TYR311      0.1605
     53  C        -55.4020   14.5050   66.9900 C.2   311  TYR311      0.2264
     54  O        -55.2190   15.3330   66.1150 O.2   311  TYR311     -0.2867
     55  CB       -53.7280   12.9010   68.0630 C.3   311  TYR311      0.0534
     56  CG       -52.4620   13.7410   68.0800 C.ar  311  TYR311     -0.0201
     57  CD1      -52.5040   15.1060   68.3150 C.ar  311  TYR311     -0.0009
     58  CD2      -51.2180   13.1530   67.9110 C.ar  311  TYR311     -0.0009
     59  CE1      -51.3500   15.8560   68.3560 C.ar  311  TYR311      0.0417
     60  CE2      -50.0630   13.8950   67.9470 C.ar  311  TYR311      0.0417
     61  CZ       -50.1300   15.2430   68.1740 C.ar  311  TYR311      0.1957
     62  OH       -48.9820   15.9710   68.2080 O.3   311  TYR311     -0.2866
     63  N        -48.9290   13.5350   61.5610 N.3   326  PHE326     -0.1241
     64  CA       -47.5230   13.6480   61.2200 C.3   326  PHE326      0.1605
     65  C        -47.1140   12.4860   60.3250 C.2   326  PHE326      0.2264
     66  O        -47.4610   11.3510   60.5850 O.2   326  PHE326     -0.2867
     67  CB       -46.6500   13.6640   62.4750 C.3   326  PHE326      0.0534
     68  CG       -46.5990   14.9970   63.1790 C.ar  326  PHE326     -0.0203
     69  CD1      -47.5500   15.3320   64.1090 C.ar  326  PHE326     -0.0042
     70  CD2      -45.5750   15.8920   62.9300 C.ar  326  PHE326     -0.0042
     71  CE1      -47.4970   16.5310   64.7640 C.ar  326  PHE326     -0.0003
     72  CE2      -45.5220   17.0910   63.5780 C.ar  326  PHE326     -0.0003
     73  CZ       -46.4860   17.4110   64.4950 C.ar  326  PHE326     -0.0000
     74  N        -37.9330   20.4430   60.7500 N.3   371  TRP371     -0.1241
     75  CA       -36.9700   20.3570   61.8300 C.3   371  TRP371      0.1605
     76  C        -35.8270   19.4020   61.5120 C.2   371  TRP371      0.2264
     77  O        -35.9500   18.5300   60.6770 O.2   371  TRP371     -0.2867
     78  CB       -37.6450   19.9910   63.1500 C.3   371  TRP371      0.0550
     79  CG       -38.1970   18.6120   63.1940 C.ar  371  TRP371      0.0003
     80  CD1      -37.5750   17.4940   63.6530 C.ar  371  TRP371      0.0946
     81  CD2      -39.4850   18.2030   62.7620 C.ar  371  TRP371      0.0152
     82  NE1      -38.4000   16.4190   63.5430 N.ar  371  TRP371     -0.2442
     83  CE2      -39.5840   16.8260   62.9970 C.ar  371  TRP371      0.0810
     84  CE3      -40.5750   18.8680   62.2060 C.ar  371  TRP371      0.0012
     85  CZ2      -40.7220   16.1040   62.6850 C.ar  371  TRP371      0.0191
     86  CZ3      -41.6920   18.1530   61.9060 C.ar  371  TRP371      0.0001
     87  CH2      -41.7610   16.7870   62.1420 C.ar  371  TRP371      0.0015
     88  N        -34.0400   20.4160   67.3410 N.3   406  GLY406     -0.1210
     89  CA       -35.3340   20.2070   66.7350 C.3   406  GLY406      0.1956
     90  C        -36.4870   20.7700   67.5420 C.2   406  GLY406      0.2611
     91  O        -37.6400   20.5910   67.1810 O.2   406  GLY406     -0.2717
     92  N        -36.1610   21.4350   68.6420 N.am  407  TYR407     -0.1976
     93  CA       -37.1440   22.0880   69.4890 C.3   407  TYR407      0.1639
     94  C        -36.8800   23.5870   69.5680 C.2   407  TYR407      0.2290
     95  O        -35.7650   24.0340   69.4140 O.2   407  TYR407     -0.2864
     96  CB       -37.1400   21.4880   70.8920 C.3   407  TYR407      0.0560
     97  CG       -37.6950   20.0810   70.9610 C.ar  407  TYR407     -0.0198
     98  CD1      -37.0010   19.0290   70.4140 C.ar  407  TYR407     -0.0009
     99  CD2      -38.9100   19.8160   71.5620 C.ar  407  TYR407     -0.0009
    100  CE1      -37.4850   17.7560   70.4620 C.ar  407  TYR407      0.0417
    101  CE2      -39.4130   18.5410   71.6130 C.ar  407  TYR407      0.0417
    102  CZ       -38.6950   17.5080   71.0560 C.ar  407  TYR407      0.1957
    103  OH       -39.1640   16.2290   71.0930 O.3   407  TYR407     -0.2866
@<TRIPOS>BOND
     1    65    66    2
     2    65    64    1
     3    77    76    2
     4    74    75    1
     5    64    63    1
     6    64    67    1
     7    76    75    1
     8    75    78    1
     9    86    87   ar
    10    86    84   ar
    11    87    85   ar
    12    84    81   ar
    13    67    68    1
    14    85    83   ar
    15    81    83   ar
    16    81    79   ar
    17    70    68   ar
    18    70    72   ar
    19    83    82   ar
    20    78    79    1
    21    68    69   ar
    22    79    80   ar
    23    27    28    1
    24    82    80   ar
    25    72    73   ar
    26    30    29    2
    27    28    29    1
    28    28    31    1
    29    69    71   ar
    30    29    35   am
    31    73    71   ar
    32    31    32    1
    33    37    38    2
    34    37    36    1
    35    35    36    1
    36    51    52    1
    37    34    32   am
    38    32    33    2
    39    36    39    1
    40    54    53    2
    41    13    14    1
    42    89    88    1
    43    89    90    1
    44    16    15    2
    45    15    14    1
    46    52    53    1
    47    52    55    1
    48    91    90    2
    49    39    40    1
    50    14    17    1
    51    90    92   am
    52    58    60   ar
    53    58    56   ar
    54    60    61   ar
    55    55    56    1
    56    56    57   ar
    57    61    62    1
    58    61    59   ar
    59    57    59   ar
    60    40    41    1
    61    12    11    1
    62    92    93    1
    63     9    11   ar
    64     9     7   ar
    65    17    18    1
    66    23    25   ar
    67    23    20   ar
    68    41    42    1
    69    25    26   ar
    70    11    10   ar
    71     7     6   ar
    72    95    94    2
    73    93    94    1
    74    93    96    1
    75    20    18   ar
    76    20    22   ar
    77    18    19   ar
    78    26    24   ar
    79    19    21   ar
    80    22    24   ar
    81    22    21   ar
    82     1     2    1
    83    98   100   ar
    84    98    97   ar
    85   100   102   ar
    86    10     8   ar
    87     6     8   ar
    88     6     5    1
    89    96    97    1
    90    97    99   ar
    91   102   103    1
    92   102   101   ar
    93    49    48    1
    94    50    48    1
    95     5     2    1
    96    99   101   ar
    97     2     3    1
    98     4     3    2
    99    48    47    1
   100    47    44    1
   101    44    43    1
   102    44    45    1
   103    45    46    2
