@<TRIPOS>MOLECULE
tmp/3ng7A02.pdb
 189 179 0 0 0
SMALL
GASTEIGER

@<TRIPOS>ATOM
      1  N        -55.5530    2.5870   74.9300 N.3    99  GLN99      -0.1231
      2  CA       -55.2500    3.5670   75.9880 C.3    99  GLN99       0.1698
      3  C        -54.0430    4.3190   75.4390 C.2    99  GLN99       0.2592
      4  O        -53.4890    3.8940   74.4320 O.2    99  GLN99      -0.2718
      5  CB       -54.7300    2.8430   77.2120 C.3    99  GLN99       0.0381
      6  CG       -55.6370    1.8550   77.9490 C.3    99  GLN99       0.0905
      7  CD       -54.7510    1.2480   79.1580 C.2    99  GLN99       0.2608
      8  OE1      -55.2790    0.6160   80.0640 O.2    99  GLN99      -0.2717
      9  NE2      -53.4110    1.5550   79.1630 N.am   99  GLN99      -0.0878
     10  N        -53.5290    5.3220   76.1700 N.am  100  ALA100     -0.1966
     11  CA       -52.3830    6.0910   75.6790 C.3   100  ALA100      0.1728
     12  C        -51.1890    5.2210   75.5980 C.2   100  ALA100      0.2616
     13  O        -50.3250    5.4350   74.7520 O.2   100  ALA100     -0.2715
     14  CB       -52.0710    7.3050   76.6110 C.3   100  ALA100      0.0334
     15  N        -51.0760    4.2830   76.5260 N.am  101  PHE101     -0.1974
     16  CA       -49.9870    3.3270   76.5340 C.3   101  PHE101      0.1639
     17  C        -50.5510    1.9530   76.2070 C.2   101  PHE101      0.2290
     18  O        -51.0720    1.2760   77.0720 O.2   101  PHE101     -0.2864
     19  CB       -49.3000    3.3030   77.8950 C.3   101  PHE101      0.0560
     20  CG       -47.9880    2.5870   77.9020 C.ar  101  PHE101     -0.0200
     21  CD1      -46.9000    3.1060   77.2390 C.ar  101  PHE101     -0.0042
     22  CD2      -47.8430    1.3970   78.5720 C.ar  101  PHE101     -0.0042
     23  CE1      -45.7020    2.4620   77.2440 C.ar  101  PHE101     -0.0003
     24  CE2      -46.6340    0.7490   78.5820 C.ar  101  PHE101     -0.0003
     25  CZ       -45.5660    1.2840   77.9160 C.ar  101  PHE101     -0.0000
     26  N        -49.6250   -1.0010   75.2650 N.3   103  ILE103     -0.1245
     27  CA       -48.9050   -2.2580   75.3880 C.3   103  ILE103      0.1561
     28  C        -49.6610   -3.2190   76.3110 C.2   103  ILE103      0.2260
     29  O        -49.9450   -2.8830   77.4370 O.2   103  ILE103     -0.2867
     30  CB       -47.4840   -2.0510   75.9550 C.3   103  ILE103      0.0252
     31  CG1      -46.7410   -0.9240   75.2370 C.3   103  ILE103      0.0019
     32  CG2      -46.7030   -3.3220   75.8890 C.3   103  ILE103      0.0019
     33  CD1      -46.6090   -1.1110   73.8010 C.3   103  ILE103      0.0001
     34  N        -40.9020   -5.2300   76.7370 N.3   111  VAL111     -0.1245
     35  CA       -40.7650   -3.7960   76.8930 C.3   111  VAL111      0.1561
     36  C        -39.8050   -3.3940   78.0280 C.2   111  VAL111      0.2260
     37  O        -39.0190   -2.4800   77.8810 O.2   111  VAL111     -0.2867
     38  CB       -42.1350   -3.1330   77.0670 C.3   111  VAL111      0.0252
     39  CG1      -41.9910   -1.7010   77.4530 C.3   111  VAL111      0.0019
     40  CG2      -42.9530   -3.2780   75.8040 C.3   111  VAL111      0.0019
     41  N        -36.3320   -3.8890   76.5300 N.3   114  ALA114     -0.1231
     42  CA       -36.0400   -2.8630   75.5430 C.3   114  ALA114      0.1694
     43  C        -35.7970   -1.5230   76.2160 C.2   114  ALA114      0.2592
     44  O        -34.9940   -0.7320   75.7740 O.2   114  ALA114     -0.2718
     45  CB       -37.1710   -2.7540   74.5670 C.3   114  ALA114      0.0304
     46  N        -36.5120   -1.2870   77.2940 N.am  115  THR115     -0.1953
     47  CA       -36.3170   -0.0910   78.0660 C.3   115  THR115      0.1897
     48  C        -34.8920   -0.0160   78.6000 C.2   115  THR115      0.2313
     49  O        -34.2370    0.9990   78.4640 O.2   115  THR115     -0.2863
     50  CB       -37.3330    0.0160   79.1860 C.3   115  THR115      0.1794
     51  OG1      -38.6420    0.0480   78.6290 O.3   115  THR115     -0.2208
     52  CG2      -37.1010    1.2580   79.9870 C.3   115  THR115      0.0378
     53  N        -32.4310    0.4920   75.4810 N.3   118  LEU118     -0.1245
     54  CA       -32.5640    1.8320   74.9530 C.3   118  LEU118      0.1561
     55  C        -31.9100    2.8660   75.8590 C.2   118  LEU118      0.2260
     56  O        -31.1500    3.7000   75.4040 O.2   118  LEU118     -0.2867
     57  CB       -34.0290    2.1710   74.7640 C.3   118  LEU118      0.0270
     58  CG       -34.7070    1.6900   73.4910 C.3   118  LEU118      0.0019
     59  CD1      -36.2120    1.7130   73.6530 C.3   118  LEU118      0.0001
     60  CD2      -34.3010    2.5060   72.3130 C.3   118  LEU118      0.0001
     61  N        -38.7420   -6.7750   69.2990 N.3   152  LEU152     -0.1245
     62  CA       -39.9790   -6.4480   69.9910 C.3   152  LEU152      0.1561
     63  C        -41.1240   -7.1530   69.3840 C.2   152  LEU152      0.2260
     64  O        -41.1870   -7.3050   68.1990 O.2   152  LEU152     -0.2867
     65  CB       -40.2470   -4.9190   70.0100 C.3   152  LEU152      0.0270
     66  CG       -39.2670   -4.1310   70.9030 C.3   152  LEU152      0.0019
     67  CD1      -39.3290   -2.6670   70.4680 C.3   152  LEU152      0.0001
     68  CD2      -39.7180   -4.2310   72.3830 C.3   152  LEU152      0.0001
     69  N        -45.6500   -3.1980   70.7880 N.3   156  SER156     -0.1217
     70  CA       -44.5370   -2.3580   71.1770 C.3   156  SER156      0.1889
     71  C        -43.6530   -1.9570   70.0060 C.2   156  SER156      0.2288
     72  O        -43.2820   -0.8160   69.8730 O.2   156  SER156     -0.2866
     73  CB       -43.7230   -3.0030   72.3010 C.3   156  SER156      0.2089
     74  OG       -43.4430   -4.3420   72.0360 O.3   156  SER156     -0.2183
     75  N        -45.5280    0.5660   67.9070 N.3   159  PHE159     -0.1227
     76  CA       -45.7780    1.7590   68.7110 C.3   159  PHE159      0.1736
     77  C        -44.5270    2.6410   68.7410 C.2   159  PHE159      0.2595
     78  O        -44.5920    3.8220   68.4690 O.2   159  PHE159     -0.2718
     79  CB       -46.1590    1.3440   70.1320 C.3   159  PHE159      0.0547
     80  CG       -46.5900    2.4790   71.0260 C.ar  159  PHE159     -0.0202
     81  CD1      -47.7520    3.1800   70.7870 C.ar  159  PHE159     -0.0042
     82  CD2      -45.8430    2.8130   72.1320 C.ar  159  PHE159     -0.0042
     83  CE1      -48.1390    4.1960   71.6220 C.ar  159  PHE159     -0.0003
     84  CE2      -46.2320    3.8170   72.9580 C.ar  159  PHE159     -0.0003
     85  CZ       -47.3760    4.5080   72.7090 C.ar  159  PHE159     -0.0000
     86  N        -43.4030    2.0250   69.0760 N.am  160  LEU160     -0.1980
     87  CA       -42.0960    2.6540   68.9860 C.3   160  LEU160      0.1596
     88  C        -41.8090    3.2640   67.6130 C.2   160  LEU160      0.2287
     89  O        -41.4390    4.4090   67.5140 O.2   160  LEU160     -0.2864
     90  CB       -40.9990    1.6540   69.3480 C.3   160  LEU160      0.0297
     91  CG       -39.5530    2.1360   69.2710 C.3   160  LEU160      0.0022
     92  CD1      -39.3620    3.3010   70.1820 C.3   160  LEU160      0.0001
     93  CD2      -38.5760    1.0400   69.6090 C.3   160  LEU160      0.0001
     94  N        -44.1190    6.3730   66.7030 N.3   163  TRP163     -0.1227
     95  CA       -43.7240    7.6130   67.3560 C.3   163  TRP163      0.1737
     96  C        -42.3720    8.1150   66.8470 C.2   163  TRP163      0.2595
     97  O        -42.1590    9.3020   66.7380 O.2   163  TRP163     -0.2718
     98  CB       -43.7390    7.4950   68.8810 C.3   163  TRP163      0.0564
     99  CG       -45.0690    7.7500   69.5160 C.ar  163  TRP163      0.0003
    100  CD1      -45.8200    6.8720   70.2190 C.ar  163  TRP163      0.0946
    101  CD2      -45.7960    8.9730   69.5060 C.ar  163  TRP163      0.0152
    102  NE1      -46.9680    7.4620   70.6480 N.ar  163  TRP163     -0.2442
    103  CE2      -46.9790    8.7580   70.2220 C.ar  163  TRP163      0.0810
    104  CE3      -45.5640   10.2320   68.9550 C.ar  163  TRP163      0.0012
    105  CZ2      -47.9210    9.7500   70.3970 C.ar  163  TRP163      0.0191
    106  CZ3      -46.4950   11.2070   69.1330 C.ar  163  TRP163      0.0001
    107  CH2      -47.6570   10.9660   69.8460 C.ar  163  TRP163      0.0015
    108  N        -41.4750    7.1950   66.5300 N.am  164  ALA164     -0.1980
    109  CA       -40.1850    7.5650   65.9740 C.3   164  ALA164      0.1597
    110  C        -40.2980    8.2030   64.5910 C.2   164  ALA164      0.2287
    111  O        -39.5470    9.0910   64.2430 O.2   164  ALA164     -0.2864
    112  CB       -39.2680    6.3850   65.9340 C.3   164  ALA164      0.0319
    113  N        -41.6610   11.6570   65.2810 N.3   167  MET167     -0.1230
    114  CA       -40.7720   12.5620   65.9650 C.3   167  MET167      0.1702
    115  C        -39.5850   12.9930   65.1080 C.2   167  MET167      0.2592
    116  O        -39.1390   14.1180   65.1870 O.2   167  MET167     -0.2718
    117  CB       -40.3050   11.9530   67.2700 C.3   167  MET167      0.0401
    118  CG       -41.3300   12.0360   68.3750 C.3   167  MET167      0.0596
    119  SD       -41.5420   13.6960   68.9890 S.3   167  MET167     -0.1393
    120  CE       -43.0700   13.4980   69.8300 C.3   167  MET167      0.0692
    121  N        -39.0720   12.0730   64.3050 N.am  168  LEU168     -0.1980
    122  CA       -37.9020   12.3330   63.4830 C.3   168  LEU168      0.1596
    123  C        -38.2650   12.8990   62.1060 C.2   168  LEU168      0.2287
    124  O        -37.4410   13.4930   61.4420 O.2   168  LEU168     -0.2864
    125  CB       -37.0230   11.0910   63.3540 C.3   168  LEU168      0.0297
    126  CG       -36.0310   10.7880   64.4830 C.3   168  LEU168      0.0022
    127  CD1      -36.7200   10.3960   65.7520 C.3   168  LEU168      0.0001
    128  CD2      -35.0480    9.7330   64.0700 C.3   168  LEU168      0.0001
    129  N        -32.4320    9.0320   67.3160 N.3   180  MET180     -0.1245
    130  CA       -33.4760    8.6410   68.2050 C.3   180  MET180      0.1570
    131  C        -32.9830    8.7410   69.6660 C.2   180  MET180      0.2261
    132  O        -33.6270    9.2560   70.5450 O.2   180  MET180     -0.2867
    133  CB       -34.0000    7.2540   67.8690 C.3   180  MET180      0.0387
    134  CG       -35.2530    6.9310   68.6410 C.3   180  MET180      0.0595
    135  SD       -35.6380    5.1980   68.7810 S.3   180  MET180     -0.1393
    136  CE       -34.1810    4.6700   69.6550 C.3   180  MET180      0.0692
    137  N        -32.4990   12.1370   71.0750 N.3   183  LEU183     -0.1231
    138  CA       -33.7480   12.7120   71.5430 C.3   183  LEU183      0.1693
    139  C        -34.1100   12.1750   72.9160 C.2   183  LEU183      0.2591
    140  O        -34.5980   12.8960   73.7580 O.2   183  LEU183     -0.2718
    141  CB       -34.8800   12.4380   70.5600 C.3   183  LEU183      0.0284
    142  CG       -34.7700   13.0910   69.1900 C.3   183  LEU183      0.0019
    143  CD1      -36.0700   12.9350   68.4340 C.3   183  LEU183      0.0001
    144  CD2      -34.3760   14.5330   69.2900 C.3   183  LEU183      0.0001
    145  N        -33.8650   10.8970   73.1250 N.am  184  VAL184     -0.1980
    146  CA       -34.0950   10.2880   74.4150 C.3   184  VAL184      0.1595
    147  C        -33.2230   10.9490   75.4780 C.2   184  VAL184      0.2287
    148  O        -33.7100   11.4170   76.4980 O.2   184  VAL184     -0.2864
    149  CB       -33.8590    8.7770   74.3580 C.3   184  VAL184      0.0276
    150  CG1      -33.9170    8.1840   75.7260 C.3   184  VAL184      0.0022
    151  CG2      -34.8830    8.1270   73.4420 C.3   184  VAL184      0.0022
    152  N        -37.4460    7.7690   77.3080 N.3   191  ILE191     -0.1231
    153  CA       -38.1540    7.4770   76.0760 C.3   191  ILE191      0.1692
    154  C        -39.5620    8.0310   76.1890 C.2   191  ILE191      0.2591
    155  O        -40.0540    8.7010   75.2820 O.2   191  ILE191     -0.2718
    156  CB       -38.2670    5.8990   75.9240 C.3   191  ILE191      0.0266
    157  CG1      -36.8440    5.2930   75.9540 C.3   191  ILE191      0.0019
    158  CG2      -39.0640    5.5350   74.6580 C.3   191  ILE191      0.0020
    159  CD1      -36.8820    3.8480   76.5070 C.3   191  ILE191      0.0001
    160  N        -40.1770    7.8110   77.3450 N.am  192  LEU192     -0.1980
    161  CA       -41.5670    8.2890   77.5740 C.3   192  LEU192      0.1596
    162  C        -41.5620    9.8430   77.4470 C.2   192  LEU192      0.2287
    163  O        -42.4970   10.4160   76.8910 O.2   192  LEU192     -0.2864
    164  CB       -42.0290    8.0080   79.0340 C.3   192  LEU192      0.0297
    165  CG       -42.2730    6.5190   79.4490 C.3   192  LEU192      0.0022
    166  CD1      -42.6340    6.5060   80.9310 C.3   192  LEU192      0.0001
    167  CD2      -43.4760    6.0070   78.5700 C.3   192  LEU192      0.0001
    168  N        -40.1130   11.8030   75.4830 N.3   194  VAL194     -0.1231
    169  CA       -40.1360   12.3120   74.0960 C.3   194  VAL194      0.1692
    170  C        -41.5830   12.6290   73.7050 C.2   194  VAL194      0.2592
    171  O        -41.8870   13.6080   73.0040 O.2   194  VAL194     -0.2718
    172  CB       -39.4150   11.3210   73.1260 C.3   194  VAL194      0.0266
    173  CG1      -39.4320   11.8790   71.7130 C.3   194  VAL194      0.0020
    174  CG2      -37.9050   11.2060   73.5960 C.3   194  VAL194      0.0020
    175  N        -42.5320   11.8210   74.1400 N.am  195  VAL195     -0.1966
    176  CA       -43.9100   12.1370   73.7780 C.3   195  VAL195      0.1727
    177  C        -44.5350   12.9690   74.8980 C.2   195  VAL195      0.2616
    178  O        -45.4190   13.8260   74.6170 O.2   195  VAL195     -0.2715
    179  CB       -44.6920   10.8140   73.5330 C.3   195  VAL195      0.0290
    180  CG1      -46.2550   11.0400   73.3880 C.3   195  VAL195      0.0023
    181  CG2      -44.0570   10.0300   72.3630 C.3   195  VAL195      0.0023
    182  N        -44.1360   12.7500   76.1630 N.am  196  LEU196     -0.1977
    183  CA       -44.7530   13.5290   77.2500 C.3   196  LEU196      0.1596
    184  C        -44.3790   15.0120   77.1770 C.2   196  LEU196      0.2287
    185  O        -45.1160   15.8780   77.6830 O.2   196  LEU196     -0.2864
    186  CB       -44.4260   12.9240   78.6690 C.3   196  LEU196      0.0297
    187  CG       -45.0520   11.5160   78.8630 C.3   196  LEU196      0.0022
    188  CD1      -44.5170   11.0910   80.2550 C.3   196  LEU196      0.0001
    189  CD2      -46.6110   11.4910   78.8710 C.3   196  LEU196      0.0001
@<TRIPOS>BOND
     1   124   123    2
     2   123   122    1
     3   125   122    1
     4   125   126    1
     5   122   121    1
     6   128   126    1
     7   111   110    2
     8   121   115   am
     9   126   127    1
    10   110   109    1
    11   115   116    2
    12   115   114    1
    13   113   114    1
    14   112   109    1
    15   114   117    1
    16   109   108    1
    17   108    96   am
    18    94    95    1
    19    97    96    2
    20    96    95    1
    21   117   118    1
    22   129   130    1
    23    95    98    1
    24    89    88    2
    25    88    87    1
    26   133   130    1
    27   133   134    1
    28    75    76    1
    29    64    63    2
    30   130   131    1
    31   118   119    1
    32   143   142    1
    33    78    77    2
    34   134   135    1
    35    76    77    1
    36    76    79    1
    37    77    86   am
    38   135   136    1
    39    98    99    1
    40   104   106   ar
    41   104   101   ar
    42    87    86    1
    43    87    90    1
    44   119   120    1
    45   106   107   ar
    46   142   144    1
    47   142   141    1
    48    91    90    1
    49    91    93    1
    50    91    92    1
    51    61    62    1
    52    63    62    1
    53   101    99   ar
    54   101   103   ar
    55    99   100   ar
    56   131   132    2
    57   107   105   ar
    58    72    71    2
    59    62    65    1
    60    71    70    1
    61    65    66    1
    62    79    80    1
    63   100   102   ar
    64   103   105   ar
    65   103   102   ar
    66    67    66    1
    67   141   138    1
    68    81    80   ar
    69    81    83   ar
    70    69    70    1
    71    66    68    1
    72    80    82   ar
    73   137   138    1
    74    70    73    1
    75   138   139    1
    76    83    85   ar
    77   173   172    1
    78    74    73    1
    79    82    84   ar
    80    60    58    1
    81   181   179    1
    82    85    84   ar
    83   139   145   am
    84   139   140    2
    85   171   170    2
    86   145   146    1
    87   172   174    1
    88   172   169    1
    89   180   179    1
    90   151   149    1
    91    58    59    1
    92    58    57    1
    93   179   176    1
    94   170   169    1
    95   170   175   am
    96   176   175    1
    97   176   177    1
    98    33    31    1
    99   169   168    1
   100   149   146    1
   101   149   150    1
   102   146   147    1
   103     4     3    2
   104    45    42    1
   105   178   177    2
   106   158   156    1
   107    13    12    2
   108    57    54    1
   109   177   182   am
   110     1     2    1
   111    54    53    1
   112    54    55    1
   113    31    30    1
   114    26    27    1
   115   155   154    2
   116    27    30    1
   117    27    28    1
   118    56    55    2
   119     3     2    1
   120     3    10   am
   121   147   148    2
   122    42    43    1
   123    42    41    1
   124    12    11    1
   125    12    15   am
   126    11    10    1
   127    11    14    1
   128    44    43    2
   129    40    38    1
   130    32    30    1
   131   156   157    1
   132   156   153    1
   133   157   159    1
   134     2     5    1
   135   153   154    1
   136   153   152    1
   137   182   183    1
   138   154   160   am
   139    17    16    1
   140    17    18    2
   141    43    46   am
   142    28    29    2
   143    15    16    1
   144    16    19    1
   145    34    35    1
   146   163   162    2
   147    35    38    1
   148    35    36    1
   149    38    39    1
   150   184   183    1
   151   184   185    2
   152     5     6    1
   153    21    23   ar
   154    21    20   ar
   155    23    25   ar
   156   183   186    1
   157    46    47    1
   158   160   161    1
   159   162   161    1
   160   161   164    1
   161    37    36    2
   162    19    20    1
   163    20    22   ar
   164    25    24   ar
   165     6     7    1
   166    47    48    1
   167    47    50    1
   168    49    48    2
   169   167   165    1
   170    22    24   ar
   171    51    50    1
   172   186   187    1
   173   187   189    1
   174   187   188    1
   175   164   165    1
   176     7     9   am
   177     7     8    2
   178    50    52    1
   179   165   166    1
