@<TRIPOS>MOLECULE
tmp/3ng9F00.pdb
 81 79 0 0 0
SMALL
GASTEIGER

@<TRIPOS>ATOM
      1  N        289.1080  -82.3600  628.1000 N.3   201  GLU201     -0.1245
      2  CA       289.5070  -81.6730  629.2860 C.3   201  GLU201      0.1567
      3  C        291.0150  -81.3690  629.1820 C.2   201  GLU201      0.2260
      4  O        291.7030  -81.8760  628.2770 O.2   201  GLU201     -0.2867
      5  CB       289.1110  -82.4880  630.5220 C.3   201  GLU201      0.0388
      6  CG       289.9450  -83.7060  630.7580 C.3   201  GLU201      0.1160
      7  CD       289.1640  -84.8580  631.4270 C.2   201  GLU201      0.3649
      8  OE1      288.1700  -85.3550  630.8100 O.co2 201  GLU201     -0.2457
      9  OE2      289.5530  -85.2650  632.5680 O.co2 201  GLU201     -0.2457
     10  N        294.6830  -81.9020  629.9860 N.3   203  VAL203     -0.1231
     11  CA       295.4600  -83.0430  630.4430 C.3   203  VAL203      0.1678
     12  C        296.9340  -82.8100  630.1590 C.2   203  VAL203      0.2434
     13  O        297.2860  -82.0820  629.2350 O.2   203  VAL203     -0.2733
     14  CB       295.0180  -84.3510  629.7560 C.3   203  VAL203      0.0265
     15  CG1      293.6840  -84.8150  630.3010 C.3   203  VAL203      0.0020
     16  CG2      294.9510  -84.1680  628.2520 C.3   203  VAL203      0.0020
     17  N        297.7950  -83.4260  630.9570 N.am  204  PRO204     -0.2729
     18  CA       299.2350  -83.2860  630.7620 C.3   204  PRO204      0.1401
     19  C        299.6320  -83.8670  629.4130 C.2   204  PRO204      0.2269
     20  O        299.0630  -84.8720  628.9940 O.2   204  PRO204     -0.2865
     21  CB       299.8230  -84.1360  631.8900 C.3   204  PRO204      0.0296
     22  CG       298.7610  -84.1840  632.9210 C.3   204  PRO204      0.0237
     23  CD       297.4750  -84.1960  632.1690 C.3   204  PRO204      0.0939
     24  N        305.3460  -92.4750  633.3120 N.3   393  ASP393     -0.1239
     25  CA       304.1920  -93.3620  633.0270 C.3   393  ASP393      0.1674
     26  C        304.4640  -94.2420  631.8140 C.2   393  ASP393      0.2266
     27  O        305.4040  -94.0110  631.0520 O.2   393  ASP393     -0.2867
     28  CB       302.8880  -92.5700  632.7960 C.3   393  ASP393      0.1410
     29  CG       302.3670  -91.8580  634.0720 C.2   393  ASP393      0.3668
     30  OD1      302.6240  -92.3150  635.2240 O.co2 393  ASP393     -0.2456
     31  OD2      301.6950  -90.8290  633.8950 O.co2 393  ASP393     -0.2456
     32  N        288.4500  -92.3600  633.7530 N.3   406  ILE406     -0.1245
     33  CA       288.8010  -92.5570  635.1360 C.3   406  ILE406      0.1561
     34  C        287.5090  -93.0120  635.8080 C.2   406  ILE406      0.2260
     35  O        286.4660  -92.4230  635.5910 O.2   406  ILE406     -0.2867
     36  CB       289.3790  -91.2660  635.7700 C.3   406  ILE406      0.0252
     37  CG1      290.6820  -90.8730  635.0490 C.3   406  ILE406      0.0019
     38  CG2      289.5980  -91.4360  637.2880 C.3   406  ILE406      0.0019
     39  CD1      291.0780  -89.3470  635.2220 C.3   406  ILE406      0.0001
     40  N        297.0150  -90.6530  640.7940 N.3   414  HIS414     -0.1227
     41  CA       297.6870  -90.5370  639.5240 C.3   414  HIS414      0.1737
     42  C        296.9700  -91.3850  638.4830 C.2   414  HIS414      0.2438
     43  O        297.4920  -92.3910  638.0130 O.2   414  HIS414     -0.2733
     44  CB       299.1400  -90.9570  639.6350 C.3   414  HIS414      0.0758
     45  CG       299.9800  -90.4660  638.5020 C.ar  414  HIS414      0.0818
     46  ND1      300.5500  -89.2150  638.4970 N.ar  414  HIS414     -0.2268
     47  CD2      300.3430  -91.0520  637.3330 C.ar  414  HIS414      0.1154
     48  CE1      301.2430  -89.0570  637.3820 C.ar  414  HIS414      0.1986
     49  NE2      301.1120  -90.1470  636.6520 N.ar  414  HIS414     -0.2212
     50  N        295.7580  -90.9860  638.1300 N.am  415  PRO415     -0.2718
     51  CA       294.9170  -91.8850  637.3520 C.3   415  PRO415      0.1535
     52  C        295.2870  -91.8310  635.8870 C.2   415  PRO415      0.2599
     53  O        294.4530  -91.5320  635.0360 O.2   415  PRO415     -0.2715
     54  CB       293.5190  -91.3110  637.5670 C.3   415  PRO415      0.0310
     55  CG       293.7480  -89.8570  637.7440 C.3   415  PRO415      0.0237
     56  CD       295.0990  -89.6940  638.3830 C.3   415  PRO415      0.0939
     57  N        296.5360  -92.1740  635.5970 N.am  416  SER416     -0.1950
     58  CA       296.9390  -92.3970  634.2040 C.3   416  SER416      0.1924
     59  C        296.7200  -93.8980  633.8800 C.2   416  SER416      0.2314
     60  O        297.2400  -94.7420  634.5720 O.2   416  SER416     -0.2863
     61  CB       298.4030  -92.0220  634.0130 C.3   416  SER416      0.2116
     62  OG       298.8780  -92.4160  632.7520 O.3   416  SER416     -0.2180
     63  N        298.3960  -94.0460  628.0000 N.3   421  GLY421     -0.1210
     64  CA       297.4540  -93.0300  627.5630 C.3   421  GLY421      0.1956
     65  C        297.0310  -91.9970  628.6070 C.2   421  GLY421      0.2612
     66  O        297.7190  -91.7520  629.6670 O.2   421  GLY421     -0.2717
     67  N        295.8960  -91.3930  628.2590 N.am  422  PHE422     -0.1962
     68  CA       295.3020  -90.3030  628.9610 C.3   422  PHE422      0.1771
     69  C        294.1280  -90.7860  629.7590 C.2   422  PHE422      0.2620
     70  O        293.2000  -91.4170  629.2220 O.2   422  PHE422     -0.2715
     71  CB       294.8390  -89.2360  627.9660 C.3   422  PHE422      0.0574
     72  CG       295.9040  -88.7990  627.0390 C.ar  422  PHE422     -0.0200
     73  CD1      296.0270  -89.4500  625.8030 C.ar  422  PHE422     -0.0042
     74  CD2      296.7880  -87.7380  627.3710 C.ar  422  PHE422     -0.0042
     75  CE1      297.0410  -89.0790  624.8870 C.ar  422  PHE422     -0.0003
     76  CE2      297.8280  -87.3470  626.4890 C.ar  422  PHE422     -0.0003
     77  CZ       297.9540  -88.0170  625.2360 C.ar  422  PHE422     -0.0000
     78  N        294.1690  -90.4560  631.0470 N.am  423  GLY423     -0.1954
     79  CA       292.9950  -90.5870  631.8860 C.3   423  GLY423      0.1869
     80  C        292.0990  -89.3950  631.7490 C.2   423  GLY423      0.2309
     81  O        292.5270  -88.2520  631.8970 O.2   423  GLY423     -0.2863
@<TRIPOS>BOND
     1    75    77   ar
     2    75    73   ar
     3    77    76   ar
     4    73    72   ar
     5    76    74   ar
     6    72    74   ar
     7    72    71    1
     8    64    63    1
     9    64    65    1
    10    71    68    1
    11     1     2    1
    12    16    14    1
    13    67    65   am
    14    67    68    1
    15     4     3    2
    16    65    66    2
    17    68    69    1
    18    20    19    2
    19     3     2    1
    20    70    69    2
    21    13    12    2
    22     2     5    1
    23    19    18    1
    24    14    15    1
    25    14    11    1
    26    69    78   am
    27    10    11    1
    28    12    11    1
    29    12    17   am
    30     5     6    1
    31     6     7    1
    32    18    17    1
    33    18    21    1
    34     8     7   ar
    35    17    23    1
    36    78    79    1
    37    27    26    2
    38     7     9   ar
    39    80    79    1
    40    80    81    2
    41    26    25    1
    42    21    22    1
    43    23    22    1
    44    62    61    1
    45    28    25    1
    46    28    29    1
    47    25    24    1
    48    32    33    1
    49    59    58    1
    50    59    60    2
    51    31    29   ar
    52    61    58    1
    53    29    30   ar
    54    58    57    1
    55    53    52    2
    56    37    39    1
    57    37    36    1
    58    33    36    1
    59    33    34    1
    60    35    34    2
    61    57    52   am
    62    36    38    1
    63    52    51    1
    64    49    47   ar
    65    49    48   ar
    66    47    45   ar
    67    51    54    1
    68    51    50    1
    69    48    46   ar
    70    54    55    1
    71    55    56    1
    72    43    42    2
    73    50    56    1
    74    50    42   am
    75    42    41    1
    76    46    45   ar
    77    45    44    1
    78    41    44    1
    79    41    40    1
