@<TRIPOS>MOLECULE
tmp/3ngbE01.pdb
 82 78 0 0 0
SMALL
GASTEIGER

@<TRIPOS>ATOM
      1  N        -21.3100   67.0050  -21.6090 N.3     2  VAL2       -0.1245
      2  CA       -21.3150   65.7040  -22.2740 C.3     2  VAL2        0.1561
      3  C        -20.1380   64.8560  -21.8170 C.2     2  VAL2        0.2260
      4  O        -18.9820   65.1970  -22.0650 O.2     2  VAL2       -0.2867
      5  CB       -21.2660   65.8290  -23.8050 C.3     2  VAL2        0.0252
      6  CG1      -21.1800   64.4480  -24.4340 C.3     2  VAL2        0.0019
      7  CG2      -22.4840   66.5780  -24.3180 C.3     2  VAL2        0.0019
      8  N        -25.0690   64.4340  -19.6270 N.3    26  GLY26      -0.1210
      9  CA       -24.8840   65.7320  -20.2470 C.3    26  GLY26       0.1956
     10  C        -25.7510   65.9700  -21.4660 C.2    26  GLY26       0.2612
     11  O        -25.7000   67.0440  -22.0660 O.2    26  GLY26      -0.2717
     12  N        -26.5510   64.9750  -21.8370 N.am   27  TYR27      -0.1962
     13  CA       -27.4170   65.1010  -23.0050 C.3    27  TYR27       0.1771
     14  C        -28.5630   64.0920  -22.9950 C.2    27  TYR27       0.2619
     15  O        -28.6150   63.2020  -22.1450 O.2    27  TYR27      -0.2715
     16  CB       -26.6020   64.9470  -24.2890 C.3    27  TYR27       0.0574
     17  CG       -26.1010   63.5410  -24.5350 C.ar   27  TYR27      -0.0198
     18  CD1      -24.9630   63.0640  -23.8970 C.ar   27  TYR27      -0.0009
     19  CD2      -26.7630   62.6930  -25.4120 C.ar   27  TYR27      -0.0009
     20  CE1      -24.5020   61.7810  -24.1240 C.ar   27  TYR27       0.0417
     21  CE2      -26.3110   61.4120  -25.6440 C.ar   27  TYR27       0.0417
     22  CZ       -25.1810   60.9600  -24.9980 C.ar   27  TYR27       0.1957
     23  OH       -24.7320   59.6820  -25.2300 O.3    27  TYR27      -0.2866
     24  N        -29.4790   64.2440  -23.9470 N.am   28  GLU28      -0.1977
     25  CA       -30.5970   63.3200  -24.0980 C.3    28  GLU28       0.1602
     26  C        -30.1250   62.0210  -24.7390 C.2    28  GLU28       0.2287
     27  O        -29.7050   62.0030  -25.8960 O.2    28  GLU28      -0.2864
     28  CB       -31.7110   63.9520  -24.9350 C.3    28  GLU28       0.0415
     29  CG       -32.2890   65.2270  -24.3370 C.3    28  GLU28       0.1163
     30  CD       -32.9560   64.9930  -22.9940 C.2    28  GLU28       0.3649
     31  OE1      -33.4200   63.8600  -22.7460 O.co2  28  GLU28      -0.2457
     32  OE2      -33.0210   65.9440  -22.1880 O.co2  28  GLU28      -0.2457
     33  N        -31.3390   60.6150  -28.1980 N.3    31  ASP31      -0.1239
     34  CA       -31.1170   61.4700  -29.3580 C.3    31  ASP31       0.1674
     35  C        -29.9120   61.0270  -30.1850 C.2    31  ASP31       0.2266
     36  O        -30.0160   60.8540  -31.3990 O.2    31  ASP31      -0.2867
     37  CB       -30.9610   62.9310  -28.9280 C.3    31  ASP31       0.1410
     38  CG       -32.2690   63.5450  -28.4640 C.2    31  ASP31       0.3668
     39  OD1      -33.3270   62.9080  -28.6570 O.co2  31  ASP31      -0.2456
     40  OD2      -32.2400   64.6660  -27.9140 O.co2  31  ASP31      -0.2456
     41  N        -19.3380   59.1060  -29.1670 N.3    98  ARG98      -0.1245
     42  CA       -20.5120   59.8030  -29.6690 C.3    98  ARG98       0.1563
     43  C        -20.0640   60.9440  -30.5730 C.2    98  ARG98       0.2260
     44  O        -19.0620   61.6040  -30.2990 O.2    98  ARG98      -0.2867
     45  CB       -21.3470   60.3540  -28.5140 C.3    98  ARG98       0.0307
     46  CG       -22.7750   60.7050  -28.8980 C.3    98  ARG98       0.0489
     47  CD       -23.2910   61.8920  -28.1050 C.3    98  ARG98       0.2205
     48  NE       -22.7440   63.1490  -28.6030 N.pl3  98  ARG98      -0.0865
     49  CZ       -23.1160   64.3510  -28.1740 C.cat  98  ARG98       0.5346
     50  NH1      -24.0420   64.4660  -27.2310 N.pl3  98  ARG98       0.1354
     51  NH2      -22.5610   65.4400  -28.6900 N.pl3  98  ARG98       0.1354
     52  N        -19.8820   64.5800  -32.5900 N.3   100  LYS100     -0.1231
     53  CA       -19.8850   65.9500  -32.0940 C.3   100  LYS100      0.1693
     54  C        -21.3200   66.4330  -31.9310 C.2   100  LYS100      0.2592
     55  O        -21.6650   67.0600  -30.9300 O.2   100  LYS100     -0.2718
     56  CB       -19.1100   66.8660  -33.0430 C.3   100  LYS100      0.0285
     57  CG       -18.9960   68.3060  -32.5740 C.3   100  LYS100      0.0035
     58  CD       -18.1580   69.1310  -33.5410 C.3   100  LYS100      0.0206
     59  CE       -18.1730   70.6070  -33.1730 C.3   100  LYS100      0.1093
     60  NZ       -19.5480   71.1840  -33.2230 N.3   100  LYS100     -0.1314
     61  N        -22.1550   66.1330  -32.9210 N.am  101  ASN101     -0.1960
     62  CA       -23.5870   66.4040  -32.8270 C.3   101  ASN101      0.1819
     63  C        -24.4220   65.2410  -33.3590 C.2   101  ASN101      0.2621
     64  O        -23.9320   64.4170  -34.1290 O.2   101  ASN101     -0.2715
     65  CB       -23.9540   67.7090  -33.5370 C.3   101  ASN101      0.1195
     66  CG       -23.6000   67.6930  -35.0060 C.2   101  ASN101      0.2630
     67  OD1      -22.8180   66.8580  -35.4580 O.2   101  ASN101     -0.2716
     68  ND2      -24.1740   68.6220  -35.7620 N.am  101  ASN101     -0.0877
     69  N        -25.6830   65.1820  -32.9410 N.am  102  CYS102     -0.1954
     70  CA       -26.5590   64.0640  -33.2810 C.3   102  CYS102      0.1843
     71  C        -26.8280   63.9410  -34.7780 C.2   102  CYS102      0.2625
     72  O        -27.3380   62.9210  -35.2380 O.2   102  CYS102     -0.2714
     73  CB       -27.8870   64.1730  -32.5250 C.3   102  CYS102      0.0997
     74  SG       -27.7350   64.1100  -30.7250 S.3   102  CYS102     -0.0797
     75  N        -26.4860   64.9790  -35.5330 N.am  103  ASP103     -0.1971
     76  CA       -26.7440   64.9980  -36.9700 C.3   103  ASP103      0.1709
     77  C        -25.7410   64.1520  -37.7500 C.2   103  ASP103      0.2293
     78  O        -26.0640   63.6110  -38.8080 O.2   103  ASP103     -0.2864
     79  CB       -26.7420   66.4360  -37.4960 C.3   103  ASP103      0.1436
     80  CG       -27.8360   67.2850  -36.8750 C.2   103  ASP103      0.3671
     81  OD1      -27.6810   68.5240  -36.8400 O.co2 103  ASP103     -0.2456
     82  OD2      -28.8480   66.7130  -36.4200 O.co2 103  ASP103     -0.2456
@<TRIPOS>BOND
     1    78    77    2
     2    77    76    1
     3    79    76    1
     4    79    80    1
     5    76    75    1
     6    80    81   ar
     7    80    82   ar
     8    68    66   am
     9    75    71   am
    10    67    66    2
    11    72    71    2
    12    66    65    1
    13    71    70    1
    14    64    63    2
    15    58    59    1
    16    58    57    1
    17    65    62    1
    18    63    69   am
    19    63    62    1
    20    70    69    1
    21    70    73    1
    22    60    59    1
    23    56    57    1
    24    56    53    1
    25    61    62    1
    26    61    54   am
    27    52    53    1
    28    73    74    1
    29    53    54    1
    30    54    55    2
    31    36    35    2
    32    43    44    2
    33    43    42    1
    34    35    34    1
    35    42    41    1
    36    42    45    1
    37    34    37    1
    38    34    33    1
    39    37    38    1
    40    46    45    1
    41    46    47    1
    42    51    49    1
    43    39    38   ar
    44    48    49    2
    45    48    47    1
    46    38    40   ar
    47    49    50    1
    48    27    26    2
    49    21    19   ar
    50    21    22   ar
    51    19    17   ar
    52    23    22    1
    53    22    20   ar
    54    28    29    1
    55    28    25    1
    56    26    25    1
    57    17    16    1
    58    17    18   ar
    59     6     5    1
    60    29    30    1
    61     7     5    1
    62    16    13    1
    63    20    18   ar
    64    25    24    1
    65    24    14   am
    66     5     2    1
    67    13    14    1
    68    13    12    1
    69    14    15    2
    70    30    31   ar
    71    30    32   ar
    72     2     3    1
    73     2     1    1
    74    11    10    2
    75     4     3    2
    76    12    10   am
    77    10     9    1
    78     9     8    1
