@<TRIPOS>MOLECULE
tmp/3ngbJ00.pdb
 98 93 0 0 0
SMALL
GASTEIGER

@<TRIPOS>ATOM
      1  N        -14.1140   44.1840   17.7730 N.3    53  TRP53      -0.1227
      2  CA       -14.6130   44.7120   16.5080 C.3    53  TRP53       0.1737
      3  C        -14.4890   46.2300   16.4160 C.2    53  TRP53       0.2595
      4  O        -15.0230   46.8490   15.4970 O.2    53  TRP53      -0.2718
      5  CB       -16.0630   44.2800   16.2980 C.3    53  TRP53       0.0564
      6  CG       -16.2540   42.8180   16.5310 C.ar   53  TRP53       0.0003
      7  CD1      -16.7110   42.2230   17.6690 C.ar   53  TRP53       0.0946
      8  CD2      -15.9670   41.7600   15.6100 C.ar   53  TRP53       0.0152
      9  NE1      -16.7380   40.8590   17.5100 N.ar   53  TRP53      -0.2442
     10  CE2      -16.2850   40.5490   16.2550 C.ar   53  TRP53       0.0810
     11  CE3      -15.4780   41.7180   14.3010 C.ar   53  TRP53       0.0012
     12  CZ2      -16.1290   39.3100   15.6360 C.ar   53  TRP53       0.0191
     13  CZ3      -15.3240   40.4880   13.6890 C.ar   53  TRP53       0.0001
     14  CH2      -15.6490   39.3010   14.3550 C.ar   53  TRP53       0.0015
     15  N        -13.7820   46.8210   17.3720 N.am   54  LYS54      -0.1980
     16  CA       -13.5340   48.2570   17.3740 C.3    54  LYS54       0.1596
     17  C        -12.1140   48.5380   17.8480 C.2    54  LYS54       0.2287
     18  O        -11.8630   49.5250   18.5390 O.2    54  LYS54      -0.2864
     19  CB       -14.5390   48.9790   18.2730 C.3    54  LYS54       0.0298
     20  CG       -15.9930   48.8220   17.8520 C.3    54  LYS54       0.0038
     21  CD       -16.2750   49.4970   16.5190 C.3    54  LYS54       0.0206
     22  CE       -17.7390   49.3490   16.1320 C.3    54  LYS54       0.1093
     23  NZ       -18.0430   49.9890   14.8220 N.3    54  LYS54      -0.1314
     24  N         -6.3910   48.0230   12.4480 N.3    59  GLU59      -0.1245
     25  CA        -6.2680   49.0030   11.3750 C.3    59  GLU59       0.1567
     26  C         -4.8080   49.2600   11.0180 C.2    59  GLU59       0.2260
     27  O         -4.4840   49.5580    9.8680 O.2    59  GLU59      -0.2867
     28  CB        -6.9470   50.3160   11.7710 C.3    59  GLU59       0.0388
     29  CG        -8.3670   50.1550   12.2930 C.3    59  GLU59       0.1160
     30  CD        -9.3230   49.6350   11.2380 C.2    59  GLU59       0.3649
     31  OE1       -8.9930   49.7270   10.0370 O.co2  59  GLU59      -0.2457
     32  OE2      -10.4080   49.1380   11.6090 O.co2  59  GLU59      -0.2457
     33  N        -19.5910   40.2390   16.1860 N.3   159  GLU159     -0.1245
     34  CA       -19.9460   41.5170   16.7900 C.3   159  GLU159      0.1567
     35  C        -21.4010   41.4980   17.2490 C.2   159  GLU159      0.2260
     36  O        -21.7950   42.2680   18.1240 O.2   159  GLU159     -0.2867
     37  CB       -19.7050   42.6660   15.8080 C.3   159  GLU159      0.0388
     38  CG       -19.8520   44.0510   16.4210 C.3   159  GLU159      0.1160
     39  CD       -19.5220   45.1600   15.4400 C.2   159  GLU159      0.3649
     40  OE1      -19.3790   44.8660   14.2340 O.co2 159  GLU159     -0.2457
     41  OE2      -19.4040   46.3260   15.8750 O.co2 159  GLU159     -0.2457
     42  N        -25.3740   40.2750    9.1210 N.3   165  ALA165     -0.1231
     43  CA       -24.4070   41.0400    8.3420 C.3   165  ALA165      0.1694
     44  C        -23.0330   41.0320    9.0060 C.2   165  ALA165      0.2592
     45  O        -22.0610   41.5380    8.4460 O.2   165  ALA165     -0.2718
     46  CB       -24.8940   42.4660    8.1400 C.3   165  ALA165      0.0304
     47  N        -22.9620   40.4540   10.2010 N.am  166  LYS166     -0.1966
     48  CA       -21.7090   40.3660   10.9410 C.3   166  LYS166      0.1728
     49  C        -21.0390   39.0190   10.6980 C.2   166  LYS166      0.2616
     50  O        -21.6770   37.9720   10.8030 O.2   166  LYS166     -0.2715
     51  CB       -21.9540   40.5620   12.4370 C.3   166  LYS166      0.0311
     52  CG       -22.6770   41.8510   12.7900 C.3   166  LYS166      0.0038
     53  CD       -21.8580   43.0760   12.4200 C.3   166  LYS166      0.0206
     54  CE       -22.5640   44.3540   12.8460 C.3   166  LYS166      0.1093
     55  NZ       -21.7780   45.5720   12.5060 N.3   166  LYS166     -0.1314
     56  N        -19.7510   39.0530   10.3750 N.am  167  THR167     -0.1951
     57  CA       -19.0050   37.8350   10.0840 C.3   167  THR167      0.1897
     58  C        -18.7610   37.0110   11.3440 C.2   167  THR167      0.2313
     59  O        -18.6650   37.5540   12.4450 O.2   167  THR167     -0.2863
     60  CB       -17.6550   38.1470    9.4090 C.3   167  THR167      0.1794
     61  OG1      -16.9270   39.0890   10.2060 O.3   167  THR167     -0.2208
     62  CG2      -17.8730   38.7300    8.0200 C.3   167  THR167      0.0378
     63  N        -13.8690   40.6120    5.4940 N.3   331  ASN331     -0.1240
     64  CA       -12.7360   41.4980    5.2660 C.3   331  ASN331      0.1653
     65  C        -11.4570   40.8950    5.8400 C.2   331  ASN331      0.2266
     66  O        -11.5020   40.1420    6.8130 O.2   331  ASN331     -0.2867
     67  CB       -13.0080   42.8640    5.8970 C.3   331  ASN331      0.1155
     68  CG       -11.9680   43.9000    5.5230 C.2   331  ASN331      0.2627
     69  OD1      -11.2030   43.7170    4.5760 O.2   331  ASN331     -0.2716
     70  ND2      -11.9390   45.0030    6.2630 N.am  331  ASN331     -0.0877
     71  N         -9.2440   42.3430    7.4920 N.3   333  LYS333     -0.1231
     72  CA        -9.0540   42.8620    8.8430 C.3   333  LYS333      0.1693
     73  C         -9.4910   41.8350    9.8820 C.2   333  LYS333      0.2592
     74  O         -8.9180   41.7550   10.9680 O.2   333  LYS333     -0.2718
     75  CB        -9.8250   44.1690    9.0410 C.3   333  LYS333      0.0285
     76  CG        -9.2950   45.3370    8.2300 C.3   333  LYS333      0.0035
     77  CD       -10.1210   46.5920    8.4560 C.3   333  LYS333      0.0206
     78  CE        -9.6230   47.7410    7.5920 C.3   333  LYS333      0.1093
     79  NZ       -10.4960   48.9440    7.7010 N.3   333  LYS333     -0.1314
     80  N        -10.5080   41.0500    9.5410 N.am  334  ASP334     -0.1974
     81  CA       -11.0060   40.0130   10.4370 C.3   334  ASP334      0.1709
     82  C         -9.9150   38.9980   10.7630 C.2   334  ASP334      0.2293
     83  O         -9.8830   38.4410   11.8600 O.2   334  ASP334     -0.2864
     84  CB       -12.2280   39.3170    9.8320 C.3   334  ASP334      0.1436
     85  CG       -13.4130   40.2540    9.6710 C.2   334  ASP334      0.3671
     86  OD1      -13.3300   41.4090   10.1390 O.co2 334  ASP334     -0.2456
     87  OD2      -14.4290   39.8350    9.0790 O.co2 334  ASP334     -0.2456
     88  N         -8.0810   40.3970   13.4680 N.3   337  ARG337     -0.1245
     89  CA        -8.9210   40.4100   14.6600 C.3   337  ARG337      0.1563
     90  C         -8.8490   39.0850   15.4080 C.2   337  ARG337      0.2260
     91  O         -8.8340   39.0580   16.6380 O.2   337  ARG337     -0.2867
     92  CB       -10.3720   40.7340   14.2980 C.3   337  ARG337      0.0307
     93  CG       -10.5950   42.1760   13.8850 C.3   337  ARG337      0.0489
     94  CD       -12.0740   42.5000   13.7740 C.3   337  ARG337      0.2205
     95  NE       -12.3020   43.9360   13.6530 N.pl3 337  ARG337     -0.0865
     96  CZ       -12.4200   44.5790   12.4970 C.cat 337  ARG337      0.5346
     97  NH1      -12.3350   43.9120   11.3540 N.pl3 337  ARG337      0.1354
     98  NH2      -12.6250   45.8890   12.4840 N.pl3 337  ARG337      0.1354
@<TRIPOS>BOND
     1    69    68    2
     2    64    63    1
     3    64    65    1
     4    64    67    1
     5    68    67    1
     6    68    70   am
     7    65    66    2
     8    71    72    1
     9    78    79    1
    10    78    77    1
    11    62    60    1
    12    46    43    1
    13    76    77    1
    14    76    75    1
    15    43    44    1
    16    43    42    1
    17    45    44    2
    18    72    75    1
    19    72    73    1
    20    44    47   am
    21    87    85   ar
    22    60    57    1
    23    60    61    1
    24    80    73   am
    25    80    81    1
    26    85    84    1
    27    85    86   ar
    28    84    81    1
    29    27    26    2
    30    73    74    2
    31    31    30   ar
    32    57    56    1
    33    57    58    1
    34    47    48    1
    35    56    49   am
    36    81    82    1
    37    49    50    2
    38    49    48    1
    39    82    83    2
    40    48    51    1
    41    26    25    1
    42    30    32   ar
    43    30    29    1
    44    58    59    2
    45    97    96    1
    46    25    28    1
    47    25    24    1
    48    28    29    1
    49    53    52    1
    50    53    54    1
    51    51    52    1
    52    98    96    1
    53    96    95    2
    54    55    54    1
    55    88    89    1
    56    95    94    1
    57    13    11   ar
    58    13    14   ar
    59    94    93    1
    60    93    92    1
    61    40    39   ar
    62    92    89    1
    63    11     8   ar
    64    14    12   ar
    65    89    90    1
    66    23    22    1
    67    90    91    2
    68    39    41   ar
    69    39    38    1
    70     4     3    2
    71     8    10   ar
    72     8     6   ar
    73    12    10   ar
    74    37    38    1
    75    37    34    1
    76    22    21    1
    77    33    34    1
    78    10     9   ar
    79     5     2    1
    80     5     6    1
    81     3     2    1
    82     3    15   am
    83     2     1    1
    84    21    20    1
    85     6     7   ar
    86    34    35    1
    87    35    36    2
    88    15    16    1
    89    16    17    1
    90    16    19    1
    91     9     7   ar
    92    17    18    2
    93    20    19    1
