@<TRIPOS>MOLECULE
tmp/3nglA00.pdb
 159 153 0 0 0
SMALL
GASTEIGER

@<TRIPOS>ATOM
      1  N          3.3250    0.1280   17.3450 N.3   134  THR134     -0.1218
      2  CA         3.4740   -1.0180   16.4370 C.3   134  THR134      0.1862
      3  C          2.2750   -1.1740   15.4780 C.2   134  THR134      0.2287
      4  O          2.4560   -1.2740   14.2650 O.2   134  THR134     -0.2866
      5  CB         3.7380   -2.3320   17.2570 C.3   134  THR134      0.1770
      6  OG1        5.0390   -2.2540   17.8630 O.3   134  THR134     -0.2211
      7  CG2        3.6890   -3.5480   16.3620 C.3   134  THR134      0.0375
      8  N         -1.9390  -12.8100   13.1630 N.3   155  VAL155     -0.1231
      9  CA        -1.6650  -13.9210   14.0940 C.3   155  VAL155      0.1692
     10  C         -1.0240  -13.3120   15.3540 C.2   155  VAL155      0.2592
     11  O          0.1670  -13.0950   15.4120 O.2   155  VAL155     -0.2718
     12  CB        -0.7980  -15.0680   13.5320 C.3   155  VAL155      0.0266
     13  CG1       -1.0290  -16.3510   14.3470 C.3   155  VAL155      0.0020
     14  CG2       -1.1360  -15.3660   12.1220 C.3   155  VAL155      0.0020
     15  N         -1.8800  -13.0160   16.3270 N.am  156  ASN156     -0.1960
     16  CA        -1.5640  -12.2910   17.5650 C.3   156  ASN156      0.1819
     17  C         -2.8520  -11.6390   18.0030 C.2   156  ASN156      0.2621
     18  O         -3.6170  -11.1530   17.1580 O.2   156  ASN156     -0.2715
     19  CB        -0.5040  -11.2310   17.3610 C.3   156  ASN156      0.1195
     20  CG        -0.2900  -10.3710   18.5860 C.2   156  ASN156      0.2630
     21  OD1       -1.1670   -9.5860   18.9970 O.2   156  ASN156     -0.2716
     22  ND2        0.8990  -10.4820   19.1620 N.am  156  ASN156     -0.0877
     23  N         -3.1080  -11.6430   19.3100 N.am  157  ARG157     -0.1963
     24  CA        -4.2880  -10.9950   19.8780 C.3   157  ARG157      0.1729
     25  C         -3.9370  -10.2740   21.1750 C.2   157  ARG157      0.2617
     26  O         -4.7700  -10.1640   22.0980 O.2   157  ARG157     -0.2715
     27  CB        -5.3680  -12.0160   20.1740 C.3   157  ARG157      0.0348
     28  CG        -4.9060  -13.0580   21.1230 C.3   157  ARG157      0.0492
     29  CD        -6.1230  -13.8030   21.7080 C.3   157  ARG157      0.2205
     30  NE        -5.6330  -14.9920   22.3780 N.pl3 157  ARG157     -0.0865
     31  CZ        -6.4000  -15.9400   22.8990 C.cat 157  ARG157      0.5346
     32  NH1       -7.7390  -15.8540   22.8480 N.pl3 157  ARG157      0.1354
     33  NH2       -5.8020  -16.9980   23.4740 N.pl3 157  ARG157      0.1354
     34  N         -2.7210   -9.7740   21.2410 N.am  158  SER158     -0.1936
     35  CA        -2.2910   -9.0710   22.4240 C.3   158  SER158      0.2040
     36  C         -2.8180   -7.6080   22.4010 C.2   158  SER158      0.2485
     37  O         -3.1520   -7.0840   21.3350 O.2   158  SER158     -0.2729
     38  CB        -0.7570   -9.1200   22.5280 C.3   158  SER158      0.2129
     39  OG        -0.1950   -7.9160   22.0410 O.3   158  SER158     -0.2179
     40  N         -2.9190   -6.9660   23.5810 N.am  159  PRO159     -0.2715
     41  CA        -3.3070   -5.5440   23.7260 C.3   159  PRO159      0.1536
     42  C         -2.3760   -4.5980   22.9990 C.2   159  PRO159      0.2598
     43  O         -2.7840   -3.5050   22.6210 O.2   159  PRO159     -0.2715
     44  CB        -3.1820   -5.2850   25.2280 C.3   159  PRO159      0.0310
     45  CG        -3.2370   -6.6810   25.9130 C.3   159  PRO159      0.0237
     46  CD        -2.9380   -7.7090   24.8680 C.3   159  PRO159      0.0939
     47  N         -1.1300   -5.0190   22.7780 N.am  160  VAL160     -0.1964
     48  CA        -0.1120   -4.1670   22.1660 C.3   160  VAL160      0.1727
     49  C         -0.0520   -4.3060   20.6750 C.2   160  VAL160      0.2616
     50  O          0.3890   -3.3790   19.9630 O.2   160  VAL160     -0.2715
     51  CB         1.2660   -4.3790   22.8260 C.3   160  VAL160      0.0290
     52  CG1        1.3570   -5.7310   23.4970 C.3   160  VAL160      0.0023
     53  CG2        2.4430   -4.1070   21.8750 C.3   160  VAL160      0.0023
     54  N         -0.4830   -5.4450   20.1510 N.am  161  VAL161     -0.1977
     55  CA        -0.3930   -5.5760   18.7160 C.3   161  VAL161      0.1596
     56  C         -1.7490   -5.8110   18.0600 C.2   161  VAL161      0.2287
     57  O         -2.3260   -4.8750   17.5300 O.2   161  VAL161     -0.2864
     58  CB         0.7240   -6.5400   18.2880 C.3   161  VAL161      0.0276
     59  CG1        0.6460   -6.8670   16.7560 C.3   161  VAL161      0.0022
     60  CG2        2.0890   -5.9630   18.6710 C.3   161  VAL161      0.0022
     61  N         -4.7850  -16.9270   16.7830 N.3   180  HIS180     -0.1226
     62  CA        -4.0900  -17.0590   18.0360 C.3   180  HIS180      0.1752
     63  C         -3.8400  -18.5460   18.3430 C.2   180  HIS180      0.2596
     64  O         -4.1890  -19.3990   17.5240 O.2   180  HIS180     -0.2718
     65  CB        -4.8890  -16.3250   19.1840 C.3   180  HIS180      0.0759
     66  CG        -6.3500  -16.7040   19.2540 C.ar  180  HIS180      0.0818
     67  ND1       -6.7820  -17.9790   19.5570 N.ar  180  HIS180     -0.2268
     68  CD2       -7.4780  -15.9720   19.0700 C.ar  180  HIS180      0.1154
     69  CE1       -8.1050  -18.0200   19.5560 C.ar  180  HIS180      0.1986
     70  NE2       -8.5540  -16.8150   19.2630 N.ar  180  HIS180     -0.2212
     71  N         -3.2720  -18.8430   19.5230 N.am  181  SER181     -0.1952
     72  CA        -2.7520  -20.1890   19.8380 C.3   181  SER181      0.1924
     73  C         -3.8500  -21.2490   19.9770 C.2   181  SER181      0.2314
     74  O         -3.5850  -22.4590   19.8810 O.2   181  SER181     -0.2863
     75  CB        -1.8540  -20.1470   21.0780 C.3   181  SER181      0.2116
     76  OG        -2.5960  -20.0920   22.2830 O.3   181  SER181     -0.2180
     77  N         -4.8610  -22.2950   11.5350 N.3   186  ILE186     -0.1245
     78  CA        -4.3510  -20.9990   11.0990 C.3   186  ILE186      0.1561
     79  C         -4.0430  -20.9120    9.5910 C.2   186  ILE186      0.2260
     80  O         -4.5060  -19.9930    8.9480 O.2   186  ILE186     -0.2867
     81  CB        -3.1380  -20.5700   11.9070 C.3   186  ILE186      0.0252
     82  CG1       -3.4020  -20.7950   13.3970 C.3   186  ILE186      0.0019
     83  CG2       -2.7720  -19.1420   11.5240 C.3   186  ILE186      0.0019
     84  CD1       -2.6380  -19.8630   14.4030 C.3   186  ILE186      0.0001
     85  N          2.8380  -11.9290   14.5660 N.3   199  ALA199     -0.1231
     86  CA         3.4880  -11.5040   15.8030 C.3   199  ALA199      0.1694
     87  C          3.2890  -12.5850   16.8590 C.2   199  ALA199      0.2592
     88  O          2.5700  -12.3860   17.8030 O.2   199  ALA199     -0.2718
     89  CB         2.9370  -10.1550   16.2820 C.3   199  ALA199      0.0304
     90  N          3.9170  -13.7350   16.6700 N.am  200  VAL200     -0.1966
     91  CA         3.7910  -14.8390   17.6060 C.3   200  VAL200      0.1727
     92  C          5.0220  -15.0000   18.4980 C.2   200  VAL200      0.2617
     93  O          4.9290  -15.6160   19.5460 O.2   200  VAL200     -0.2715
     94  CB         3.4580  -16.1210   16.9010 C.3   200  VAL200      0.0290
     95  CG1        2.1410  -15.9230   16.1660 C.3   200  VAL200      0.0023
     96  CG2        4.5890  -16.5110   15.9190 C.3   200  VAL200      0.0023
     97  N          6.1440  -14.4080   18.0840 N.am  201  GLY201     -0.1940
     98  CA         7.4390  -14.5220   18.7780 C.3   201  GLY201      0.2014
     99  C          7.9220  -15.9610   18.7400 C.2   201  GLY201      0.2638
    100  O          8.1050  -16.6030   19.7730 O.2   201  GLY201     -0.2714
    101  N          8.1160  -16.4740   17.5300 N.am  202  ARG202     -0.1977
    102  CA         8.5180  -17.8230   17.3380 C.3   202  ARG202      0.1597
    103  C          9.2140  -17.8890   15.9950 C.2   202  ARG202      0.2287
    104  O          8.5680  -17.8610   14.9580 O.2   202  ARG202     -0.2864
    105  CB         7.2890  -18.7280   17.3460 C.3   202  ARG202      0.0334
    106  CG         6.7950  -19.2100   18.7210 C.3   202  ARG202      0.0492
    107  CD         5.9020  -20.4600   18.5470 C.3   202  ARG202      0.2205
    108  NE         6.1670  -21.0700   17.2260 N.pl3 202  ARG202     -0.0865
    109  CZ         6.5670  -22.3230   16.9880 C.cat 202  ARG202      0.5346
    110  NH1        6.7380  -23.1820   18.0070 N.pl3 202  ARG202      0.1354
    111  NH2        6.7740  -22.7190   15.7190 N.pl3 202  ARG202      0.1354
    112  N          7.9690  -19.7560   12.3250 N.3   205  PHE205     -0.1241
    113  CA         6.5110  -19.9210   12.3190 C.3   205  PHE205      0.1605
    114  C          5.8240  -19.7510   10.9400 C.2   205  PHE205      0.2264
    115  O          5.1660  -20.6280   10.4620 O.2   205  PHE205     -0.2867
    116  CB         5.8950  -18.9230   13.2790 C.3   205  PHE205      0.0534
    117  CG         4.4260  -19.0720   13.4090 C.ar  205  PHE205     -0.0203
    118  CD1        3.8920  -19.9200   14.3800 C.ar  205  PHE205     -0.0042
    119  CD2        3.5630  -18.3910   12.5390 C.ar  205  PHE205     -0.0042
    120  CE1        2.5000  -20.0920   14.4840 C.ar  205  PHE205     -0.0003
    121  CE2        2.1890  -18.5430   12.6300 C.ar  205  PHE205     -0.0003
    122  CZ         1.6560  -19.4020   13.6160 C.ar  205  PHE205     -0.0000
    123  N          5.9980   -8.8680   12.4740 N.3   220  VAL220     -0.1231
    124  CA         6.1260   -8.0470   13.6780 C.3   220  VAL220      0.1692
    125  C          7.0080   -8.7260   14.7430 C.2   220  VAL220      0.2593
    126  O          7.4480   -8.0920   15.6750 O.2   220  VAL220     -0.2718
    127  CB         4.7320   -7.6170   14.2620 C.3   220  VAL220      0.0266
    128  CG1        4.8810   -6.9230   15.6070 C.3   220  VAL220      0.0020
    129  CG2        3.9900   -6.7110   13.3190 C.3   220  VAL220      0.0020
    130  N          7.3330   -9.9950   14.5840 N.am  221  GLY221     -0.1942
    131  CA         8.0610  -10.7070   15.6630 C.3   221  GLY221      0.2014
    132  C          9.4930  -10.2160   15.8630 C.2   221  GLY221      0.2638
    133  O         10.0970   -9.7060   14.9500 O.2   221  GLY221     -0.2714
    134  N         10.0100  -10.3120   17.0770 N.am  222  ILE222     -0.1977
    135  CA        11.4510  -10.1050   17.3120 C.3   222  ILE222      0.1596
    136  C         11.9770  -11.2370   18.1910 C.2   222  ILE222      0.2287
    137  O         11.5610  -11.4120   19.3440 O.2   222  ILE222     -0.2864
    138  CB        11.7830   -8.7190   17.9440 C.3   222  ILE222      0.0276
    139  CG1       11.1620   -7.5910   17.1180 C.3   222  ILE222      0.0022
    140  CG2       13.3330   -8.5160   18.1190 C.3   222  ILE222      0.0022
    141  CD1       11.0540   -6.2800   17.8910 C.3   222  ILE222      0.0001
    142  N          9.0680   -3.2290   10.3340 N.3   252  VAL252     -0.1231
    143  CA         8.2200   -2.4790   11.2720 C.3   252  VAL252      0.1692
    144  C          9.0830   -1.6780   12.2610 C.2   252  VAL252      0.2592
    145  O          8.8340   -0.5360   12.5200 O.2   252  VAL252     -0.2718
    146  CB         7.3210   -3.4660   12.0730 C.3   252  VAL252      0.0266
    147  CG1        6.1930   -4.0400   11.2100 C.3   252  VAL252      0.0020
    148  CG2        8.1620   -4.6140   12.5220 C.3   252  VAL252      0.0020
    149  N         10.1230   -2.3150   12.7690 N.am  253  GLY253     -0.1957
    150  CA        10.9850   -1.8100   13.8310 C.3   253  GLY253      0.1869
    151  C         11.6030   -0.4350   13.6910 C.2   253  GLY253      0.2309
    152  O         11.5790    0.3180   14.6320 O.2   253  GLY253     -0.2863
    153  N          8.7330    2.4290   14.8990 N.3   256  THR256     -0.1218
    154  CA         8.1420    2.4180   16.2360 C.3   256  THR256      0.1862
    155  C          8.4100    3.7060   17.0310 C.2   256  THR256      0.2287
    156  O          7.4790    4.4100   17.4590 O.2   256  THR256     -0.2866
    157  CB         8.7670    1.2400   16.9990 C.3   256  THR256      0.1770
    158  OG1        9.2980    0.3030   16.0370 O.3   256  THR256     -0.2211
    159  CG2        7.7610    0.5770   17.9210 C.3   256  THR256      0.0375
@<TRIPOS>BOND
     1    80    79    2
     2    79    78    1
     3   142   143    1
     4   115   114    2
     5   114   113    1
     6    78    77    1
     7    78    81    1
     8   147   146    1
     9   143   146    1
    10   143   144    1
    11    83    81    1
    12    81    82    1
    13   146   148    1
    14    14    12    1
    15   144   145    2
    16   144   149   am
    17   113   112    1
    18   113   116    1
    19   123   124    1
    20   119   121   ar
    21   119   117   ar
    22   121   122   ar
    23   149   150    1
    24     8     9    1
    25   116   117    1
    26   129   127    1
    27    82    84    1
    28   117   118   ar
    29    12     9    1
    30    12    13    1
    31   122   120   ar
    32   124   127    1
    33   124   125    1
    34   151   150    1
    35   151   152    2
    36     9    10    1
    37   127   128    1
    38     4     3    2
    39   118   120   ar
    40    85    86    1
    41   130   125   am
    42   130   131    1
    43   125   126    2
    44   153   154    1
    45   133   132    2
    46   104   103    2
    47    10    11    2
    48    10    15   am
    49     3     2    1
    50   131   132    1
    51   111   109    1
    52    86    89    1
    53    86    87    1
    54   132   134   am
    55    96    94    1
    56   103   102    1
    57   158   157    1
    58    95    94    1
    59   154   157    1
    60   154   155    1
    61    15    16    1
    62     7     5    1
    63     2     5    1
    64     2     1    1
    65    90    87   am
    66    90    91    1
    67    59    58    1
    68    61    62    1
    69    87    88    2
    70    94    91    1
    71   109   108    2
    72   109   110    1
    73   157   159    1
    74   155   156    2
    75   134   135    1
    76   139   141    1
    77   139   138    1
    78    18    17    2
    79   108   107    1
    80     5     6    1
    81   135   138    1
    82   135   136    1
    83   102   105    1
    84   102   101    1
    85   105   106    1
    86    19    16    1
    87    19    20    1
    88    64    63    2
    89    57    56    2
    90   101    99   am
    91    16    17    1
    92    91    92    1
    93   138   140    1
    94    17    23   am
    95    62    63    1
    96    62    65    1
    97    56    55    1
    98    97    92   am
    99    97    98    1
   100   136   137    2
   101    58    60    1
   102    58    55    1
   103    63    71   am
   104    92    93    2
   105   107   106    1
   106    20    21    2
   107    20    22   am
   108    55    54    1
   109    99    98    1
   110    99   100    2
   111    68    66   ar
   112    68    70   ar
   113    65    66    1
   114    66    67   ar
   115    70    69   ar
   116    23    24    1
   117    71    72    1
   118    69    67   ar
   119    72    73    1
   120    72    75    1
   121    24    27    1
   122    24    25    1
   123    74    73    2
   124    50    49    2
   125    54    49   am
   126    27    28    1
   127    49    48    1
   128    75    76    1
   129    28    29    1
   130    25    34   am
   131    25    26    2
   132    34    35    1
   133    37    36    2
   134    29    30    1
   135    53    51    1
   136    39    38    1
   137    48    47    1
   138    48    51    1
   139    30    31    2
   140    36    35    1
   141    36    40   am
   142    35    38    1
   143    43    42    2
   144    47    42   am
   145    51    52    1
   146    32    31    1
   147    31    33    1
   148    42    41    1
   149    40    41    1
   150    40    46    1
   151    41    44    1
   152    46    45    1
   153    44    45    1
