@<TRIPOS>MOLECULE
tmp/3ngnA00.pdb
 159 152 0 0 0
SMALL
GASTEIGER

@<TRIPOS>ATOM
      1  N         31.7850   -6.1950    7.1540 N.3    25  LEU25      -0.1245
      2  CA        30.4330   -6.4200    7.6310 C.3    25  LEU25       0.1561
      3  C         29.3730   -6.1330    6.5700 C.2    25  LEU25       0.2260
      4  O         28.9450   -4.9830    6.3880 O.2    25  LEU25      -0.2867
      5  CB        30.1470   -5.6900    8.9460 C.3    25  LEU25       0.0270
      6  CG        28.6920   -5.7660    9.4500 C.3    25  LEU25       0.0019
      7  CD1       28.2330   -7.2760    9.6750 C.3    25  LEU25       0.0001
      8  CD2       28.4670   -4.9080   10.6960 C.3    25  LEU25       0.0001
      9  N         22.8300   -6.5490   16.2390 N.3    35  TYR35      -0.1241
     10  CA        23.5820   -5.3930   16.7370 C.3    35  TYR35       0.1605
     11  C         22.6490   -4.4050   17.3900 C.2    35  TYR35       0.2264
     12  O         22.4210   -3.3090   16.8630 O.2    35  TYR35      -0.2867
     13  CB        24.3970   -4.7460   15.6080 C.3    35  TYR35       0.0534
     14  CG        25.3550   -5.6930   14.9460 C.ar   35  TYR35      -0.0201
     15  CD1       26.5290   -6.0380   15.5740 C.ar   35  TYR35      -0.0009
     16  CD2       25.0740   -6.2760   13.7000 C.ar   35  TYR35      -0.0009
     17  CE1       27.4330   -6.9330   14.9900 C.ar   35  TYR35       0.0417
     18  CE2       25.9780   -7.1910   13.0980 C.ar   35  TYR35       0.0417
     19  CZ        27.1500   -7.5080   13.7760 C.ar   35  TYR35       0.1957
     20  OH        28.1090   -8.3490   13.2480 O.3    35  TYR35      -0.2866
     21  N         33.4150  -10.2160    3.3400 N.3    68  GLU68      -0.1245
     22  CA        32.0250   -9.8120    3.4720 C.3    68  GLU68       0.1567
     23  C         31.6710   -8.6600    2.5370 C.2    68  GLU68       0.2260
     24  O         30.8240   -7.8490    2.8290 O.2    68  GLU68      -0.2867
     25  CB        31.6610   -9.5300    4.9290 C.3    68  GLU68       0.0388
     26  CG        31.7340  -10.7700    5.8290 C.3    68  GLU68       0.1160
     27  CD        30.9300  -10.6520    7.1310 C.2    68  GLU68       0.3649
     28  OE1       29.9190   -9.9000    7.1380 O.co2  68  GLU68      -0.2457
     29  OE2       31.2910  -11.3230    8.1460 O.co2  68  GLU68      -0.2457
     30  N         37.5910  -16.5350    4.3270 N.3   177  HIS177     -0.1241
     31  CA        36.6680  -16.2940    5.4160 C.3   177  HIS177      0.1621
     32  C         36.0160  -17.6420    5.8010 C.2   177  HIS177      0.2264
     33  O         35.0840  -18.1140    5.1220 O.2   177  HIS177     -0.2867
     34  CB        35.6060  -15.2380    4.9960 C.3   177  HIS177      0.0745
     35  CG        34.6740  -14.8390    6.1020 C.ar  177  HIS177      0.0817
     36  ND1       33.5540  -14.0510    5.8950 N.ar  177  HIS177     -0.2268
     37  CD2       34.6860  -15.1240    7.4230 C.ar  177  HIS177      0.1154
     38  CE1       32.9090  -13.8880    7.0380 C.ar  177  HIS177      0.1986
     39  NE2       33.5820  -14.5140    7.9870 N.ar  177  HIS177     -0.2212
     40  N         31.9050  -19.5000   11.0340 N.3   180  TRP180     -0.1241
     41  CA        31.9960  -18.6610   12.2440 C.3   180  TRP180      0.1605
     42  C         31.6950  -19.3980   13.5560 C.2   180  TRP180      0.2264
     43  O         32.2220  -19.0350   14.6250 O.2   180  TRP180     -0.2867
     44  CB        30.9870  -17.5170   12.1130 C.3   180  TRP180      0.0550
     45  CG        29.5750  -17.9910   11.9000 C.ar  180  TRP180      0.0003
     46  CD1       28.9740  -18.2970   10.6980 C.ar  180  TRP180      0.0946
     47  CD2       28.5780  -18.2330   12.9160 C.ar  180  TRP180      0.0152
     48  NE1       27.6650  -18.7150   10.9110 N.ar  180  TRP180     -0.2442
     49  CE2       27.4000  -18.6820   12.2540 C.ar  180  TRP180      0.0810
     50  CE3       28.5630  -18.0910   14.3120 C.ar  180  TRP180      0.0012
     51  CZ2       26.2150  -19.0120   12.9460 C.ar  180  TRP180      0.0191
     52  CZ3       27.3770  -18.4080   15.0160 C.ar  180  TRP180      0.0001
     53  CH2       26.2130  -18.8600   14.3240 C.ar  180  TRP180      0.0015
     54  N         31.3360  -21.3610   16.8240 N.3   182  PRO182     -0.2116
     55  CA        32.3660  -21.9490   17.7280 C.3   182  PRO182      0.1372
     56  C         32.1010  -23.4210   18.0730 C.2   182  PRO182      0.2244
     57  O         32.9820  -24.1240   18.5800 O.2   182  PRO182     -0.2868
     58  CB        32.3160  -21.0640   18.9960 C.3   182  PRO182      0.0268
     59  CG        31.0110  -20.3710   18.9540 C.3   182  PRO182      0.0207
     60  CD        30.4930  -20.3630   17.5070 C.3   182  PRO182      0.0892
     61  N         36.3200  -25.2720   10.8730 N.3   188  LYS188     -0.1245
     62  CA        37.3080  -24.1660   10.7640 C.3   188  LYS188      0.1561
     63  C         38.6570  -24.7550   10.4540 C.2   188  LYS188      0.2260
     64  O         39.3410  -24.3020    9.5100 O.2   188  LYS188     -0.2867
     65  CB        37.3490  -23.3000   12.0540 C.3   188  LYS188      0.0271
     66  CG        35.9980  -22.5620   12.3480 C.3   188  LYS188      0.0035
     67  CD        35.8790  -22.0740   13.7960 C.3   188  LYS188      0.0206
     68  CE        34.7080  -21.1230   13.8920 C.3   188  LYS188      0.1093
     69  NZ        34.5650  -20.4140   15.2150 N.3   188  LYS188     -0.1314
     70  N         39.8340  -13.8660    7.8060 N.3   215  ASP215     -0.1239
     71  CA        38.9640  -13.9520    8.9470 C.3   215  ASP215      0.1674
     72  C         38.8450  -15.4750    9.2360 C.2   215  ASP215      0.2266
     73  O         38.0090  -16.1760    8.6350 O.2   215  ASP215     -0.2867
     74  CB        37.6050  -13.3000    8.6640 C.3   215  ASP215      0.1410
     75  CG        36.6840  -13.3120    9.8800 C.2   215  ASP215      0.3668
     76  OD1       37.0250  -13.9570   10.8850 O.co2 215  ASP215     -0.2456
     77  OD2       35.6150  -12.6820    9.8420 O.co2 215  ASP215     -0.2456
     78  N         38.0490  -16.8000   12.1460 N.3   217  ASN217     -0.1225
     79  CA        37.0730  -17.0720   13.1790 C.3   217  ASN217      0.1785
     80  C         37.6150  -17.9500   14.2570 C.2   217  ASN217      0.2598
     81  O         36.8470  -18.6660   14.9220 O.2   217  ASN217     -0.2718
     82  CB        35.8130  -17.6740   12.5790 C.3   217  ASN217      0.1169
     83  CG        34.9160  -16.6100   12.0230 C.2   217  ASN217      0.2627
     84  OD1       34.5010  -16.6450   10.8550 O.2   217  ASN217     -0.2716
     85  ND2       34.6230  -15.6480   12.8470 N.am  217  ASN217     -0.0877
     86  N         38.9220  -17.8380   14.4640 N.am  218  SER218     -0.1938
     87  CA        39.6660  -18.6600   15.4330 C.3   218  SER218      0.2055
     88  C         40.5680  -17.8040   16.3200 C.2   218  SER218      0.2642
     89  O         41.3710  -16.9990   15.8180 O.2   218  SER218     -0.2714
     90  CB        40.5860  -19.6260   14.6890 C.3   218  SER218      0.2130
     91  OG        39.8500  -20.4340   13.7860 O.3   218  SER218     -0.2179
     92  N         40.4860  -18.0400   17.6250 N.am  219  LEU219     -0.1977
     93  CA        41.3890  -17.4530   18.5970 C.3   219  LEU219      0.1596
     94  C         42.8460  -17.9050   18.4300 C.2   219  LEU219      0.2287
     95  O         43.0800  -18.9370   17.8240 O.2   219  LEU219     -0.2864
     96  CB        40.8650  -17.7210   19.9990 C.3   219  LEU219      0.0297
     97  CG        39.4840  -17.0770   20.2040 C.3   219  LEU219      0.0022
     98  CD1       38.8790  -17.5090   21.5600 C.3   219  LEU219      0.0001
     99  CD2       39.5210  -15.5230   20.0790 C.3   219  LEU219      0.0001
    100  N         37.6900   -8.4720   16.4220 N.3   263  ASN263     -0.1240
    101  CA        36.2510   -8.4160   16.3210 C.3   263  ASN263      0.1653
    102  C         35.7270   -7.9060   17.6570 C.2   263  ASN263      0.2266
    103  O         36.2450   -8.2850   18.6990 O.2   263  ASN263     -0.2867
    104  CB        35.7290   -9.8020   15.9990 C.3   263  ASN263      0.1155
    105  CG        34.2150   -9.8650   15.9110 C.2   263  ASN263      0.2627
    106  OD1       33.5500   -9.0540   15.2710 O.2   263  ASN263     -0.2716
    107  ND2       33.6750  -10.7940   16.5860 N.am  263  ASN263     -0.0877
    108  N         32.2690   -7.0210   19.6430 N.3   265  THR265     -0.1218
    109  CA        30.7960   -6.9530   19.8030 C.3   265  THR265      0.1862
    110  C         30.5440   -6.9810   21.2820 C.2   265  THR265      0.2287
    111  O         31.4500   -7.2880   22.0480 O.2   265  THR265     -0.2866
    112  CB        30.0660   -8.2070   19.1900 C.3   265  THR265      0.1770
    113  OG1       30.6070   -9.4230   19.7620 O.3   265  THR265     -0.2211
    114  CG2       30.1970   -8.2400   17.6740 C.3   265  THR265      0.0375
    115  N         28.8210   -9.2730   22.8540 N.3   267  ASP267     -0.1225
    116  CA        28.8890  -10.6570   23.3730 C.3   267  ASP267      0.1805
    117  C         30.2310  -11.2770   23.1790 C.2   267  ASP267      0.2597
    118  O         30.5580  -12.2660   23.8220 O.2   267  ASP267     -0.2718
    119  CB        27.8150  -11.5600   22.7390 C.3   267  ASP267      0.1424
    120  CG        26.4140  -11.1400   23.1300 C.2   267  ASP267      0.3668
    121  OD1       26.2240  -10.7600   24.3210 O.co2 267  ASP267     -0.2456
    122  OD2       25.4990  -11.1730   22.2620 O.co2 267  ASP267     -0.2456
    123  N         31.0110  -10.7260   22.2670 N.am  268  PHE268     -0.1976
    124  CA        32.2760  -11.3420   21.9440 C.3   268  PHE268      0.1639
    125  C         33.3170  -10.3420   21.4550 C.2   268  PHE268      0.2290
    126  O         33.0210   -9.5230   20.6000 O.2   268  PHE268     -0.2864
    127  CB        32.0460  -12.3910   20.8770 C.3   268  PHE268      0.0560
    128  CG        33.2770  -13.0310   20.4230 C.ar  268  PHE268     -0.0200
    129  CD1       33.8010  -14.1220   21.1230 C.ar  268  PHE268     -0.0042
    130  CD2       33.9320  -12.5580   19.2950 C.ar  268  PHE268     -0.0042
    131  CE1       34.9880  -14.7480   20.6780 C.ar  268  PHE268     -0.0003
    132  CE2       35.1190  -13.1320   18.8650 C.ar  268  PHE268     -0.0003
    133  CZ        35.6540  -14.2330   19.5640 C.ar  268  PHE268     -0.0000
    134  N         40.5080  -12.7360   15.7980 N.3   272  ILE272     -0.1245
    135  CA        40.0610  -13.8020   14.9250 C.3   272  ILE272      0.1561
    136  C         40.4240  -13.5800   13.4840 C.2   272  ILE272      0.2260
    137  O         40.1900  -14.4770   12.6370 O.2   272  ILE272     -0.2867
    138  CB        38.5640  -14.0700   15.0370 C.3   272  ILE272      0.0252
    139  CG1       37.7260  -12.8070   14.7290 C.3   272  ILE272      0.0019
    140  CG2       38.2650  -14.6800   16.4400 C.3   272  ILE272      0.0019
    141  CD1       36.1670  -12.9740   14.6890 C.3   272  ILE272      0.0001
    142  N         32.0430   -4.3440   12.7210 N.3   312  ASP312     -0.1225
    143  CA        32.3680   -4.9790   14.0140 C.3   312  ASP312      0.1805
    144  C         33.7380   -5.6270   14.0600 C.2   312  ASP312      0.2597
    145  O         34.0720   -6.2240   15.0640 O.2   312  ASP312     -0.2718
    146  CB        31.3320   -6.0240   14.4160 C.3   312  ASP312      0.1424
    147  CG        31.1750   -7.1800   13.3700 C.2   312  ASP312      0.3668
    148  OD1       31.5600   -7.0190   12.1930 O.co2 312  ASP312     -0.2456
    149  OD2       30.6310   -8.2590   13.7240 O.co2 312  ASP312     -0.2456
    150  N         34.5090   -5.5460   12.9870 N.am  313  HIS313     -0.1975
    151  CA        35.9530   -5.8560   13.0070 C.3   313  HIS313      0.1656
    152  C         36.8050   -4.5730   12.8510 C.2   313  HIS313      0.2291
    153  O         36.3670   -3.6090   12.2450 O.2   313  HIS313     -0.2864
    154  CB        36.3410   -6.7930   11.8580 C.3   313  HIS313      0.0771
    155  CG        35.6990   -8.1290   11.9380 C.ar  313  HIS313      0.0820
    156  ND1       36.4210   -9.2850   12.1750 N.ar  313  HIS313     -0.2267
    157  CD2       34.3970   -8.5030   11.8430 C.ar  313  HIS313      0.1154
    158  CE1       35.5810  -10.3090   12.2440 C.ar  313  HIS313      0.1986
    159  NE2       34.3490   -9.8660   12.0370 N.ar  313  HIS313     -0.2212
@<TRIPOS>BOND
     1    23    24    2
     2    23    22    1
     3    21    22    1
     4    22    25    1
     5    30    31    1
     6    25    26    1
     7    34    31    1
     8    34    35    1
     9    33    32    2
    10    31    32    1
    11    26    27    1
    12    36    35   ar
    13    36    38   ar
    14    35    37   ar
    15     4     3    2
    16     3     2    1
    17    38    39   ar
    18    27    28   ar
    19    27    29   ar
    20     1     2    1
    21    37    39   ar
    22     2     5    1
    23    70    71    1
    24    73    72    2
    25    74    71    1
    26    74    75    1
    27     5     6    1
    28    71    72    1
    29     6     7    1
    30     6     8    1
    31    64    63    2
    32    77    75   ar
    33    75    76   ar
    34    63    62    1
    35    46    48   ar
    36    46    45   ar
    37    62    61    1
    38    62    65    1
    39    84    83    2
    40    48    49   ar
    41    40    41    1
    42   157   155   ar
    43   157   159   ar
    44   154   155    1
    45   154   151    1
    46    45    44    1
    47    45    47   ar
    48   155   156   ar
    49    83    82    1
    50    83    85   am
    51   159   158   ar
    52    65    66    1
    53    44    41    1
    54    78    79    1
    55   156   158   ar
    56   148   147   ar
    57    41    42    1
    58   153   152    2
    59    49    47   ar
    60    49    51   ar
    61    66    67    1
    62    82    79    1
    63   137   136    2
    64   142   143    1
    65   152   151    1
    66    47    50   ar
    67    51    53   ar
    68   150   151    1
    69   150   144   am
    70    18    16   ar
    71    18    19   ar
    72    79    80    1
    73    20    19    1
    74   147   149   ar
    75   147   146    1
    76   136   135    1
    77    42    43    2
    78    16    14   ar
    79    19    17   ar
    80    91    90    1
    81    67    68    1
    82    68    69    1
    83   143   144    1
    84   143   146    1
    85   144   145    2
    86    80    86   am
    87    80    81    2
    88    50    52   ar
    89    53    52   ar
    90    86    87    1
    91    90    87    1
    92   141   139    1
    93   139   138    1
    94   135   138    1
    95   135   134    1
    96    14    15   ar
    97    14    13    1
    98    17    15   ar
    99   138   140    1
   100   106   105    2
   101    87    88    1
   102    13    10    1
   103    89    88    2
   104   105   104    1
   105   105   107   am
   106   104   101    1
   107     9    10    1
   108    88    92   am
   109   101   100    1
   110   101   102    1
   111    10    11    1
   112    54    60    1
   113    54    55    1
   114    12    11    2
   115    60    59    1
   116    92    93    1
   117   102   103    2
   118   114   112    1
   119    55    56    1
   120    55    58    1
   121    95    94    2
   122    56    57    2
   123    94    93    1
   124    93    96    1
   125   132   130   ar
   126   132   133   ar
   127    59    58    1
   128   112   113    1
   129   112   109    1
   130   130   128   ar
   131   133   131   ar
   132   108   109    1
   133   109   110    1
   134    96    97    1
   135    99    97    1
   136    97    98    1
   137   128   127    1
   138   128   129   ar
   139   126   125    2
   140   131   129   ar
   141   127   124    1
   142   110   111    2
   143   125   124    1
   144   124   123    1
   145   122   120   ar
   146   123   117   am
   147   119   120    1
   148   119   116    1
   149   115   116    1
   150   120   121   ar
   151   117   116    1
   152   117   118    2
