@<TRIPOS>MOLECULE
tmp/3ngoA00.pdb
 205 196 0 0 0
SMALL
GASTEIGER

@<TRIPOS>ATOM
      1  N        -37.5910    6.9700    7.4700 N.3    26  ASN26      -0.1240
      2  CA       -36.2090    7.4440    7.2910 C.3    26  ASN26       0.1653
      3  C        -35.3180    6.2530    7.4670 C.2    26  ASN26       0.2266
      4  O        -35.3250    5.6410    8.5400 O.2    26  ASN26      -0.2867
      5  CB       -35.9060    8.5190    8.3670 C.3    26  ASN26       0.1155
      6  CG       -34.4580    9.0560    8.3020 C.2    26  ASN26       0.2627
      7  OD1      -33.5020    8.3150    8.0140 O.2    26  ASN26      -0.2716
      8  ND2      -34.3000   10.3500    8.6060 N.am   26  ASN26      -0.0877
      9  N        -31.9890    6.0190    7.3750 N.3    28  LEU28      -0.1245
     10  CA       -30.6110    6.2570    7.8090 C.3    28  LEU28       0.1561
     11  C        -29.5710    5.9740    6.7210 C.2    28  LEU28       0.2260
     12  O        -29.1110    4.8070    6.5280 O.2    28  LEU28      -0.2867
     13  CB       -30.2700    5.4960    9.0950 C.3    28  LEU28       0.0270
     14  CG       -28.8340    5.6900    9.6600 C.3    28  LEU28       0.0019
     15  CD1      -28.4850    7.2040    9.9560 C.3    28  LEU28       0.0001
     16  CD2      -28.6680    4.8590   10.9550 C.3    28  LEU28       0.0001
     17  N        -24.1250    8.6060    7.1040 N.3    32  TYR32      -0.1241
     18  CA       -24.2760    9.0690    8.4660 C.3    32  TYR32       0.1605
     19  C        -24.3560    7.9620    9.4960 C.2    32  TYR32       0.2264
     20  O        -24.5010    8.2600   10.6750 O.2    32  TYR32      -0.2867
     21  CB       -25.4900    9.9990    8.6100 C.3    32  TYR32       0.0534
     22  CG       -25.5760   11.1090    7.5850 C.ar   32  TYR32      -0.0201
     23  CD1      -26.6830   11.1960    6.7490 C.ar   32  TYR32      -0.0009
     24  CD2      -24.5780   12.0910    7.4650 C.ar   32  TYR32      -0.0009
     25  CE1      -26.8080   12.2000    5.8050 C.ar   32  TYR32       0.0417
     26  CE2      -24.7020   13.1250    6.5260 C.ar   32  TYR32       0.0417
     27  CZ       -25.8260   13.1510    5.6930 C.ar   32  TYR32       0.1957
     28  OH       -26.0180   14.1030    4.7280 O.3    32  TYR32      -0.2866
     29  N        -19.2330    6.7950   15.5380 N.3    36  GLN36      -0.1231
     30  CA       -19.3090    7.9650   16.3910 C.3    36  GLN36       0.1698
     31  C        -20.7060    8.1810   16.9240 C.2    36  GLN36       0.2592
     32  O        -20.8900    8.2820   18.1390 O.2    36  GLN36      -0.2718
     33  CB       -18.8420    9.2180   15.6590 C.3    36  GLN36       0.0381
     34  CG       -17.3540    9.3730   15.6650 C.3    36  GLN36       0.0905
     35  CD       -16.9380   10.7540   16.1450 C.2    36  GLN36       0.2608
     36  OE1      -17.6940   11.7360   15.9940 O.2    36  GLN36      -0.2717
     37  NE2      -15.7350   10.8470   16.7280 N.am   36  GLN36      -0.0878
     38  N        -21.6960    8.2550   16.0340 N.am   37  LEU37      -0.1966
     39  CA       -23.0730    8.5230   16.4760 C.3    37  LEU37       0.1728
     40  C        -23.7440    7.2510   16.9840 C.2    37  LEU37       0.2616
     41  O        -24.6840    7.2910   17.7820 O.2    37  LEU37      -0.2715
     42  CB       -23.9140    9.0970   15.3350 C.3    37  LEU37       0.0311
     43  CG       -23.8720   10.5600   14.8680 C.3    37  LEU37       0.0022
     44  CD1      -23.3380   11.5080   15.9740 C.3    37  LEU37       0.0001
     45  CD2      -23.0820   10.7090   13.5570 C.3    37  LEU37       0.0001
     46  N        -23.2680    6.1130   16.5060 N.am   38  TYR38      -0.1974
     47  CA       -23.9800    4.8820   16.7720 C.3    38  TYR38       0.1639
     48  C        -23.0020    3.8620   17.3440 C.2    38  TYR38       0.2290
     49  O        -22.9330    2.7360   16.8800 O.2    38  TYR38      -0.2864
     50  CB       -24.7140    4.4060   15.4880 C.3    38  TYR38       0.0560
     51  CG       -25.6660    5.4530   14.9090 C.ar   38  TYR38      -0.0198
     52  CD1      -26.8660    5.7260   15.5360 C.ar   38  TYR38      -0.0009
     53  CD2      -25.3540    6.1720   13.7410 C.ar   38  TYR38      -0.0009
     54  CE1      -27.7500    6.6910   15.0390 C.ar   38  TYR38       0.0417
     55  CE2      -26.2360    7.1880   13.2310 C.ar   38  TYR38       0.0417
     56  CZ       -27.4230    7.4110   13.8900 C.ar   38  TYR38       0.1957
     57  OH       -28.3470    8.3040   13.4640 O.3    38  TYR38      -0.2866
     58  N        -33.5460   10.0360    3.5210 N.3    71  GLU71      -0.1245
     59  CA       -32.1830    9.5630    3.6140 C.3    71  GLU71       0.1567
     60  C        -31.8770    8.4640    2.6470 C.2    71  GLU71       0.2260
     61  O        -31.0680    7.5910    2.9450 O.2    71  GLU71      -0.2867
     62  CB       -31.7670    9.1760    5.0560 C.3    71  GLU71       0.0388
     63  CG       -31.8340   10.3850    5.9380 C.3    71  GLU71       0.1160
     64  CD       -31.0260   10.2980    7.2260 C.2    71  GLU71       0.3649
     65  OE1      -30.0150    9.5510    7.2710 O.co2  71  GLU71      -0.2457
     66  OE2      -31.4230   11.0060    8.1980 O.co2  71  GLU71      -0.2457
     67  N        -30.6360   16.0690   -2.2390 N.3    97  LYS97      -0.1245
     68  CA       -30.2180   17.3820   -1.7530 C.3    97  LYS97       0.1561
     69  C        -29.0020   17.8560   -2.5530 C.2    97  LYS97       0.2260
     70  O        -28.4170   17.0650   -3.2990 O.2    97  LYS97      -0.2867
     71  CB       -29.8020   17.2250   -0.3130 C.3    97  LYS97       0.0271
     72  CG       -30.9650   17.0020    0.5760 C.3    97  LYS97       0.0035
     73  CD       -30.5550   17.0890    2.0420 C.3    97  LYS97       0.0206
     74  CE       -29.8910   15.8290    2.4480 C.3    97  LYS97       0.1093
     75  NZ       -29.5180   15.9670    3.8880 N.3    97  LYS97      -0.1314
     76  N        -37.6670   16.3560    4.3220 N.3   180  HIS180     -0.1226
     77  CA       -36.7620   16.0950    5.4200 C.3   180  HIS180      0.1752
     78  C        -36.1670   17.4460    5.8300 C.2   180  HIS180      0.2595
     79  O        -35.4070   18.0590    5.0490 O.2   180  HIS180     -0.2718
     80  CB       -35.6750   15.0820    4.9800 C.3   180  HIS180      0.0759
     81  CG       -34.7830   14.6130    6.1000 C.ar  180  HIS180      0.0818
     82  ND1      -33.6940   13.7860    5.8960 N.ar  180  HIS180     -0.2268
     83  CD2      -34.7930   14.8980    7.4180 C.ar  180  HIS180      0.1154
     84  CE1      -33.0960   13.5590    7.0510 C.ar  180  HIS180      0.1986
     85  NE2      -33.7430   14.2270    7.9930 N.ar  180  HIS180     -0.2212
     86  N        -36.5530   17.9290    7.0140 N.am  181  MET181     -0.1979
     87  CA       -36.1650   19.2810    7.5040 C.3   181  MET181      0.1605
     88  C        -34.7950   19.2460    8.1860 C.2   181  MET181      0.2287
     89  O        -34.2790   18.1780    8.5580 O.2   181  MET181     -0.2864
     90  CB       -37.2150   19.8720    8.4560 C.3   181  MET181      0.0413
     91  CG       -38.4000   20.6060    7.7790 C.3   181  MET181      0.0598
     92  SD       -39.1940   19.5790    6.5160 S.3   181  MET181     -0.1393
     93  CE       -40.5400   20.6050    5.9600 C.3   181  MET181      0.0692
     94  N        -31.9830   19.4190   10.9990 N.3   183  TRP183     -0.1241
     95  CA       -31.9890   18.5930   12.2150 C.3   183  TRP183      0.1605
     96  C        -31.7450   19.3480   13.5390 C.2   183  TRP183      0.2264
     97  O        -32.2690   18.9740   14.6120 O.2   183  TRP183     -0.2867
     98  CB       -30.8950   17.5340   12.0640 C.3   183  TRP183      0.0550
     99  CG       -29.4970   18.0970   11.9790 C.ar  183  TRP183      0.0003
    100  CD1      -28.8170   18.4620   10.8460 C.ar  183  TRP183      0.0946
    101  CD2      -28.6000   18.3380   13.0840 C.ar  183  TRP183      0.0152
    102  NE1      -27.5690   18.9230   11.1780 N.ar  183  TRP183     -0.2442
    103  CE2      -27.4080   18.8660   12.5400 C.ar  183  TRP183      0.0810
    104  CE3      -28.6980   18.1520   14.4810 C.ar  183  TRP183      0.0012
    105  CZ2      -26.3020   19.2320   13.3410 C.ar  183  TRP183      0.0191
    106  CZ3      -27.5900   18.5190   15.2940 C.ar  183  TRP183      0.0001
    107  CH2      -26.4070   19.0500   14.7080 C.ar  183  TRP183      0.0015
    108  N        -31.3810   21.2760   16.8100 N.3   185  PRO185     -0.2116
    109  CA       -32.3980   21.8270   17.7180 C.3   185  PRO185      0.1372
    110  C        -32.2100   23.3110   18.0730 C.2   185  PRO185      0.2244
    111  O        -33.1150   23.9240   18.6430 O.2   185  PRO185     -0.2868
    112  CB       -32.2690   20.9660   18.9890 C.3   185  PRO185      0.0268
    113  CG       -30.9240   20.3030   18.9150 C.3   185  PRO185      0.0207
    114  CD       -30.5870   20.1960   17.4350 C.3   185  PRO185      0.0892
    115  N        -36.5520   25.1640   10.9190 N.3   191  LYS191     -0.1245
    116  CA       -37.5170   24.0440   10.7920 C.3   191  LYS191      0.1561
    117  C        -38.8970   24.5590   10.4860 C.2   191  LYS191      0.2260
    118  O        -39.5650   24.0680    9.5910 O.2   191  LYS191     -0.2867
    119  CB       -37.5200   23.1880   12.0830 C.3   191  LYS191      0.0271
    120  CG       -36.1560   22.5910   12.3790 C.3   191  LYS191      0.0035
    121  CD       -36.1590   21.8360   13.7320 C.3   191  LYS191      0.0206
    122  CE       -34.8600   21.0620   13.8600 C.3   191  LYS191      0.1093
    123  NZ       -34.7550   20.4120   15.1780 N.3   191  LYS191     -0.1314
    124  N        -40.0100   13.7450    7.7520 N.3   218  ASP218     -0.1239
    125  CA       -39.1680   13.7750    8.9150 C.3   218  ASP218      0.1674
    126  C        -39.0090   15.2860    9.1860 C.2   218  ASP218      0.2266
    127  O        -38.2100   15.9650    8.5430 O.2   218  ASP218     -0.2867
    128  CB       -37.8100   13.0910    8.6760 C.3   218  ASP218      0.1410
    129  CG       -36.9100   13.1430    9.8910 C.2   218  ASP218      0.3668
    130  OD1      -37.3040   13.8110   10.8990 O.co2 218  ASP218     -0.2456
    131  OD2      -35.8110   12.5170    9.8460 O.co2 218  ASP218     -0.2456
    132  N        -38.0690   16.5890   12.0660 N.3   220  ASN220     -0.1225
    133  CA       -37.1820   16.8290   13.2150 C.3   220  ASN220      0.1785
    134  C        -37.8120   17.7470   14.2490 C.2   220  ASN220      0.2598
    135  O        -37.1220   18.5760   14.8450 O.2   220  ASN220     -0.2718
    136  CB       -35.8490   17.4050   12.7640 C.3   220  ASN220      0.1169
    137  CG       -34.9800   16.3950   12.1280 C.2   220  ASN220      0.2627
    138  OD1      -34.5760   16.5470   10.9770 O.2   220  ASN220     -0.2716
    139  ND2      -34.6410   15.3770   12.8570 N.am  220  ASN220     -0.0877
    140  N        -39.1100   17.5970   14.4680 N.am  221  SER221     -0.1938
    141  CA       -39.8520   18.4540   15.3940 C.3   221  SER221      0.2055
    142  C        -40.8050   17.6440   16.2710 C.2   221  SER221      0.2642
    143  O        -41.6160   16.8810   15.7440 O.2   221  SER221     -0.2714
    144  CB       -40.6930   19.4550   14.6010 C.3   221  SER221      0.2130
    145  OG       -39.8490   20.2020   13.7420 O.3   221  SER221     -0.2179
    146  N        -40.7490   17.8770   17.5830 N.am  222  LEU222     -0.1977
    147  CA       -41.6180   17.1880   18.5530 C.3   222  LEU222      0.1596
    148  C        -43.0920   17.6180   18.4610 C.2   222  LEU222      0.2287
    149  O        -43.3920   18.6220   17.8300 O.2   222  LEU222     -0.2864
    150  CB       -41.0560   17.3640   19.9790 C.3   222  LEU222      0.0297
    151  CG       -39.6380   16.7850   20.0820 C.3   222  LEU222      0.0022
    152  CD1      -38.8570   17.4220   21.2950 C.3   222  LEU222      0.0001
    153  CD2      -39.6610   15.2690   20.1390 C.3   222  LEU222      0.0001
    154  N        -37.9910    8.2550   16.3580 N.3   276  ASN276     -0.1240
    155  CA       -36.5270    8.2180   16.3010 C.3   276  ASN276      0.1653
    156  C        -36.0830    7.7000   17.6390 C.2   276  ASN276      0.2266
    157  O        -36.5910    8.1540   18.6460 O.2   276  ASN276     -0.2867
    158  CB       -35.9770    9.6590   16.1020 C.3   276  ASN276      0.1155
    159  CG       -34.4630    9.7080   15.8490 C.2   276  ASN276      0.2627
    160  OD1      -33.8580    8.7740   15.3060 O.2   276  ASN276     -0.2716
    161  ND2      -33.8610   10.8030   16.2280 N.am  276  ASN276     -0.0877
    162  N        -32.6310    6.6980   19.6610 N.3   278  THR278     -0.1218
    163  CA       -31.2010    6.5430   19.7840 C.3   278  THR278      0.1862
    164  C        -30.8550    6.6440   21.2890 C.2   278  THR278      0.2287
    165  O        -31.6710    7.0570   22.1140 O.2   278  THR278     -0.2866
    166  CB       -30.4320    7.6990   19.0460 C.3   278  THR278      0.1770
    167  OG1      -30.7700    8.9530   19.6810 O.3   278  THR278     -0.2211
    168  CG2      -30.8030    7.7650   17.5300 C.3   278  THR278      0.0375
    169  N        -31.3380   10.5040   22.1590 N.3   281  PHE281     -0.1241
    170  CA       -32.5770   11.1830   21.8530 C.3   281  PHE281      0.1605
    171  C        -33.6150   10.1920   21.3380 C.2   281  PHE281      0.2264
    172  O        -33.3500    9.3930   20.4300 O.2   281  PHE281     -0.2867
    173  CB       -32.3200   12.2700   20.7970 C.3   281  PHE281      0.0534
    174  CG       -33.5760   12.9130   20.2920 C.ar  281  PHE281     -0.0203
    175  CD1      -34.1740   13.9520   21.0040 C.ar  281  PHE281     -0.0042
    176  CD2      -34.1660   12.4760   19.1220 C.ar  281  PHE281     -0.0042
    177  CE1      -35.3340   14.5520   20.5460 C.ar  281  PHE281     -0.0003
    178  CE2      -35.3290   13.0510   18.6720 C.ar  281  PHE281     -0.0003
    179  CZ       -35.9210   14.0980   19.3770 C.ar  281  PHE281     -0.0000
    180  N        -40.6370   12.5830   15.8160 N.3   285  ILE285     -0.1245
    181  CA       -40.2020   13.6440   14.9070 C.3   285  ILE285      0.1561
    182  C        -40.6200   13.3890   13.4510 C.2   285  ILE285      0.2260
    183  O        -40.3700   14.2530   12.5750 O.2   285  ILE285     -0.2867
    184  CB       -38.6810   13.9020   14.9980 C.3   285  ILE285      0.0252
    185  CG1      -37.8700   12.6150   14.7130 C.3   285  ILE285      0.0019
    186  CG2      -38.3120   14.5370   16.3800 C.3   285  ILE285      0.0019
    187  CD1      -36.3910   12.9330   14.3490 C.3   285  ILE285      0.0001
    188  N        -32.3190    4.0920   12.7180 N.3   325  ASP325     -0.1225
    189  CA       -32.5550    4.7350   14.0020 C.3   325  ASP325      0.1805
    190  C        -33.9490    5.3350   14.0500 C.2   325  ASP325      0.2597
    191  O        -34.3090    5.8900   15.0700 O.2   325  ASP325     -0.2718
    192  CB       -31.4900    5.8230   14.3630 C.3   325  ASP325      0.1424
    193  CG       -31.4420    6.9520   13.3630 C.2   325  ASP325      0.3668
    194  OD1      -31.7580    6.6970   12.1880 O.co2 325  ASP325     -0.2456
    195  OD2      -31.1190    8.1080   13.7290 O.co2 325  ASP325     -0.2456
    196  N        -34.7400    5.2030   12.9780 N.am  326  HIS326     -0.1975
    197  CA       -36.1510    5.5760   13.0330 C.3   326  HIS326      0.1656
    198  C        -37.0370    4.3210   12.8990 C.2   326  HIS326      0.2291
    199  O        -36.6510    3.3630   12.2400 O.2   326  HIS326     -0.2864
    200  CB       -36.5460    6.5270   11.8810 C.3   326  HIS326      0.0771
    201  CG       -35.9920    7.9200   12.0070 C.ar  326  HIS326      0.0820
    202  ND1      -34.6430    8.1950   11.9630 N.ar  326  HIS326     -0.2267
    203  CD2      -36.6100    9.1080   12.1890 C.ar  326  HIS326      0.1154
    204  CE1      -34.4520    9.4980   12.0950 C.ar  326  HIS326      0.1986
    205  NE2      -35.6280   10.0710   12.2430 N.ar  326  HIS326     -0.2212
@<TRIPOS>BOND
     1    70    69    2
     2    69    68    1
     3    67    68    1
     4    68    71    1
     5    71    72    1
     6    72    73    1
     7    73    74    1
     8    74    75    1
     9    60    61    2
    10    60    59    1
    11    58    59    1
    12    59    62    1
    13    76    77    1
    14    28    27    1
    15    80    77    1
    16    80    81    1
    17    79    78    2
    18    62    63    1
    19    77    78    1
    20    27    25   ar
    21    27    26   ar
    22    25    23   ar
    23    78    86   am
    24    82    81   ar
    25    82    84   ar
    26    63    64    1
    27    93    92    1
    28    81    83   ar
    29    92    91    1
    30    26    24   ar
    31    12    11    2
    32    11    10    1
    33    23    22   ar
    34    86    87    1
    35    84    85   ar
    36    17    18    1
    37    64    65   ar
    38    64    66   ar
    39     2     3    1
    40     2     1    1
    41     2     5    1
    42     9    10    1
    43    83    85   ar
    44    24    22   ar
    45     3     4    2
    46    87    88    1
    47    87    90    1
    48    22    21    1
    49   124   125    1
    50    91    90    1
    51    10    13    1
    52     7     6    2
    53    88    89    2
    54     6     5    1
    55     6     8   am
    56    18    21    1
    57    18    19    1
    58   127   126    2
    59   128   125    1
    60   128   129    1
    61   125   126    1
    62    13    14    1
    63    19    20    2
    64   118   117    2
    65    14    15    1
    66    14    16    1
    67   131   129   ar
    68   129   130   ar
    69   117   116    1
    70   116   115    1
    71   116   119    1
    72   100   102   ar
    73   100    99   ar
    74   138   137    2
    75    94    95    1
    76   102   103   ar
    77   200   201    1
    78   200   197    1
    79   202   201   ar
    80   202   204   ar
    81    99    98    1
    82    99   101   ar
    83   201   203   ar
    84    98    95    1
    85   132   133    1
    86   119   120    1
    87   204   205   ar
    88   137   136    1
    89   137   139   am
    90   194   193   ar
    91   203   205   ar
    92    95    96    1
    93   199   198    2
    94   120   121    1
    95   103   101   ar
    96   103   105   ar
    97   183   182    2
    98   188   189    1
    99   136   133    1
   100   198   197    1
   101   196   197    1
   102   196   190   am
   103   101   104   ar
   104   133   134    1
   105    55    53   ar
   106    55    56   ar
   107   105   107   ar
   108   193   195   ar
   109   193   192    1
   110   182   181    1
   111    57    56    1
   112    96    97    2
   113    45    43    1
   114   121   122    1
   115    53    51   ar
   116   145   144    1
   117   122   123    1
   118    56    54   ar
   119   189   190    1
   120   189   192    1
   121   190   191    2
   122   134   140   am
   123   134   135    2
   124   187   185    1
   125   140   141    1
   126   104   106   ar
   127   144   141    1
   128   107   106   ar
   129   185   184    1
   130    43    42    1
   131    43    44    1
   132   181   184    1
   133   181   180    1
   134    51    50    1
   135    51    52   ar
   136   184   186    1
   137    54    52   ar
   138   160   159    2
   139    42    39    1
   140   141   142    1
   141    50    47    1
   142    29    30    1
   143    33    34    1
   144    33    30    1
   145    34    35    1
   146   143   142    2
   147   159   158    1
   148   159   161   am
   149    36    35    2
   150    38    39    1
   151    38    31   am
   152   158   155    1
   153    35    37   am
   154   142   146   am
   155   155   154    1
   156   155   156    1
   157    30    31    1
   158    39    40    1
   159    46    47    1
   160    46    40   am
   161    47    48    1
   162   108   114    1
   163   108   109    1
   164    49    48    2
   165    31    32    2
   166    40    41    2
   167   114   113    1
   168   168   166    1
   169   146   147    1
   170   156   157    2
   171   109   110    1
   172   109   112    1
   173   149   148    2
   174   110   111    2
   175   148   147    1
   176   147   150    1
   177   178   176   ar
   178   178   179   ar
   179   113   112    1
   180   166   167    1
   181   166   163    1
   182   176   174   ar
   183   179   177   ar
   184   162   163    1
   185   163   164    1
   186   150   151    1
   187   151   153    1
   188   151   152    1
   189   174   173    1
   190   174   175   ar
   191   172   171    2
   192   177   175   ar
   193   173   170    1
   194   164   165    2
   195   171   170    1
   196   170   169    1
