@<TRIPOS>MOLECULE
tmp/3ngqA00.pdb
 116 112 0 0 0
SMALL
GASTEIGER

@<TRIPOS>ATOM
      1  N        -15.7010   59.9670   16.2690 N.3    37  TYR37      -0.1241
      2  CA       -14.9820   61.1580   16.7350 C.3    37  TYR37       0.1605
      3  C        -15.9640   62.1420   17.3220 C.2    37  TYR37       0.2264
      4  O        -16.1320   63.2260   16.7980 O.2    37  TYR37      -0.2867
      5  CB       -14.1710   61.7800   15.5740 C.3    37  TYR37       0.0534
      6  CG       -13.2440   60.7660   14.9150 C.ar   37  TYR37      -0.0201
      7  CD1      -12.0580   60.3790   15.5390 C.ar   37  TYR37      -0.0009
      8  CD2      -13.5660   60.1740   13.6830 C.ar   37  TYR37      -0.0009
      9  CE1      -11.2070   59.4530   14.9410 C.ar   37  TYR37       0.0417
     10  CE2      -12.7100   59.1930   13.0940 C.ar   37  TYR37       0.0417
     11  CZ       -11.5560   58.8520   13.7350 C.ar   37  TYR37       0.1957
     12  OH       -10.6690   57.9340   13.2330 O.3    37  TYR37      -0.2866
     13  N         -7.1970   46.8950   10.7890 N.3   182  TRP182     -0.1241
     14  CA        -7.2340   47.7780   11.9930 C.3   182  TRP182      0.1605
     15  C         -7.4430   47.0320   13.3110 C.2   182  TRP182      0.2264
     16  O         -6.8900   47.3990   14.4030 O.2   182  TRP182     -0.2867
     17  CB        -8.3700   48.8140   11.8170 C.3   182  TRP182      0.0550
     18  CG        -9.7320   48.1620   11.5310 C.ar  182  TRP182      0.0003
     19  CD1      -10.1990   47.7210   10.3220 C.ar  182  TRP182      0.0946
     20  CD2      -10.7550   47.8640   12.4860 C.ar  182  TRP182      0.0152
     21  NE1      -11.4370   47.1550   10.4670 N.ar  182  TRP182     -0.2442
     22  CE2      -11.8130   47.2400   11.7830 C.ar  182  TRP182      0.0810
     23  CE3      -10.8850   48.0740   13.8800 C.ar  182  TRP182      0.0012
     24  CZ2      -13.0050   46.8190   12.4170 C.ar  182  TRP182      0.0191
     25  CZ3      -12.0660   47.6590   14.5190 C.ar  182  TRP182      0.0001
     26  CH2      -13.1130   47.0320   13.7810 C.ar  182  TRP182      0.0015
     27  N         -7.8550   45.4270   16.7250 N.3   184  PRO184     -0.2116
     28  CA        -6.9340   45.0230   17.7880 C.3   184  PRO184      0.1372
     29  C         -6.9410   43.5460   18.0510 C.2   184  PRO184      0.2244
     30  O         -5.9530   43.0150   18.5640 O.2   184  PRO184     -0.2868
     31  CB        -7.5130   45.6860   19.0600 C.3   184  PRO184      0.0268
     32  CG        -8.2080   46.8360   18.6070 C.3   184  PRO184      0.0207
     33  CD        -8.7170   46.5410   17.1670 C.3   184  PRO184      0.0892
     34  N         -2.4140   41.1890   10.9960 N.3   190  LYS190     -0.1245
     35  CA        -1.5370   42.3740   10.8150 C.3   190  LYS190      0.1561
     36  C         -0.1370   41.8620   10.4810 C.2   190  LYS190      0.2260
     37  O          0.4980   42.2900    9.5070 O.2   190  LYS190     -0.2867
     38  CB        -1.5470   43.2140   12.1090 C.3   190  LYS190      0.0271
     39  CG        -2.9120   43.9130   12.3080 C.3   190  LYS190      0.0035
     40  CD        -2.9070   44.8250   13.4900 C.3   190  LYS190      0.0206
     41  CE        -4.3140   45.2830   13.8050 C.3   190  LYS190      0.1093
     42  NZ        -4.3020   45.8480   15.1450 N.3   190  LYS190     -0.1314
     43  N         -1.1710   49.7440   12.1440 N.3   218  ASN218     -0.1225
     44  CA        -2.1070   49.4600   13.2120 C.3   218  ASN218      0.1785
     45  C         -1.4670   48.5830   14.2940 C.2   218  ASN218      0.2598
     46  O         -2.1550   47.7980   14.9870 O.2   218  ASN218     -0.2718
     47  CB        -3.4330   48.8760   12.6750 C.3   218  ASN218      0.1169
     48  CG        -4.2820   49.9100   12.0010 C.2   218  ASN218      0.2627
     49  OD1       -4.7410   49.7500   10.8610 O.2   218  ASN218     -0.2716
     50  ND2       -4.5240   50.9920   12.7090 N.am  218  ASN218     -0.0877
     51  N         -0.1540   48.7570   14.4650 N.am  219  SER219     -0.1938
     52  CA         0.6070   47.9230   15.3700 C.3   219  SER219      0.2055
     53  C          1.5900   48.7750   16.1860 C.2   219  SER219      0.2642
     54  O          2.3080   49.5840   15.6260 O.2   219  SER219     -0.2714
     55  CB         1.4070   46.8380   14.6110 C.3   219  SER219      0.2130
     56  OG         0.6040   46.1530   13.6530 O.3   219  SER219     -0.2179
     57  N          1.6500   48.5210   17.4860 N.am  220  LEU220     -0.1977
     58  CA         2.5190   49.2700   18.4240 C.3   220  LEU220      0.1596
     59  C          3.9620   48.7880   18.3410 C.2   220  LEU220      0.2287
     60  O          4.2280   47.7210   17.7430 O.2   220  LEU220     -0.2864
     61  CB         1.9770   49.1530   19.8470 C.3   220  LEU220      0.0297
     62  CG         0.5930   49.7790   20.0310 C.3   220  LEU220      0.0022
     63  CD1        0.0240   49.3180   21.3740 C.3   220  LEU220      0.0001
     64  CD2        0.6300   51.3040   19.9700 C.3   220  LEU220      0.0001
     65  N         -1.0790   58.0820   16.3290 N.3   273  ASN273     -0.1240
     66  CA        -2.5420   58.1460   16.2030 C.3   273  ASN273      0.1653
     67  C         -2.9490   58.6790   17.5400 C.2   273  ASN273      0.2266
     68  O         -2.4540   58.2300   18.5490 O.2   273  ASN273     -0.2867
     69  CB        -3.0890   56.7180   15.9950 C.3   273  ASN273      0.1155
     70  CG        -4.6070   56.6380   15.8600 C.2   273  ASN273      0.2627
     71  OD1       -5.1780   55.6060   16.2060 O.2   273  ASN273     -0.2716
     72  ND2       -5.2340   57.6260   15.2480 N.am  273  ASN273     -0.0877
     73  N         -6.2590   59.8120   19.7050 N.3   275  THR275     -0.1218
     74  CA        -7.7210   59.9450   19.8410 C.3   275  THR275      0.1862
     75  C         -8.0260   59.8450   21.3140 C.2   275  THR275      0.2287
     76  O         -7.1040   59.5710   22.1360 O.2   275  THR275     -0.2866
     77  CB        -8.5220   58.8380   19.0220 C.3   275  THR275      0.1770
     78  OG1       -8.2100   57.5440   19.5470 O.3   275  THR275     -0.2211
     79  CG2       -8.1230   58.8570   17.5810 C.3   275  THR275      0.0375
     80  N         -7.5890   56.0950   22.1450 N.3   278  PHE278     -0.1241
     81  CA        -6.3350   55.4240   21.8130 C.3   278  PHE278      0.1605
     82  C         -5.2680   56.4070   21.3600 C.2   278  PHE278      0.2264
     83  O         -5.4900   57.1590   20.4320 O.2   278  PHE278     -0.2867
     84  CB        -6.5690   54.3760   20.6870 C.3   278  PHE278      0.0534
     85  CG        -5.3080   53.6930   20.2470 C.ar  278  PHE278     -0.0203
     86  CD1       -4.7870   52.6390   20.9860 C.ar  278  PHE278     -0.0042
     87  CD2       -4.5970   54.1550   19.1530 C.ar  278  PHE278     -0.0042
     88  CE1       -3.5790   52.0090   20.5940 C.ar  278  PHE278     -0.0003
     89  CE2       -3.4090   53.5640   18.7600 C.ar  278  PHE278     -0.0003
     90  CZ        -2.8940   52.4710   19.4800 C.ar  278  PHE278     -0.0000
     91  N          1.5390   53.8650   15.7040 N.3   282  ILE282     -0.1245
     92  CA         1.1140   52.7360   14.8280 C.3   282  ILE282      0.1561
     93  C          1.5100   52.9540   13.3570 C.2   282  ILE282      0.2260
     94  O          1.2540   52.0940   12.5160 O.2   282  ILE282     -0.2867
     95  CB        -0.4050   52.3900   14.9940 C.3   282  ILE282      0.0252
     96  CG1       -1.2320   53.6440   14.7410 C.3   282  ILE282      0.0019
     97  CG2       -0.6670   51.8780   16.4130 C.3   282  ILE282      0.0019
     98  CD1       -2.7230   53.4410   14.4090 C.3   282  ILE282      0.0001
     99  N         -6.7930   62.2260   12.5660 N.3   322  ASP322     -0.1225
    100  CA        -6.4340   61.5850   13.8100 C.3   322  ASP322      0.1805
    101  C         -5.0400   60.9780   13.8400 C.2   322  ASP322      0.2597
    102  O         -4.6120   60.3950   14.8590 O.2   322  ASP322     -0.2718
    103  CB        -7.4920   60.5440   14.2260 C.3   322  ASP322      0.1424
    104  CG        -7.6110   59.3640   13.2400 C.2   322  ASP322      0.3668
    105  OD1       -7.9730   58.2660   13.7040 O.co2 322  ASP322     -0.2456
    106  OD2       -7.3860   59.5140   12.0280 O.co2 322  ASP322     -0.2456
    107  N         -4.3500   61.0470   12.7200 N.am  323  HIS323     -0.1975
    108  CA        -2.9500   60.6940   12.7290 C.3   323  HIS323      0.1656
    109  C         -2.0970   61.9710   12.4520 C.2   323  HIS323      0.2291
    110  O         -2.4860   62.8020   11.6610 O.2   323  HIS323     -0.2864
    111  CB        -2.5840   59.7010   11.6090 C.3   323  HIS323      0.0771
    112  CG        -3.1270   58.3120   11.8090 C.ar  323  HIS323      0.0820
    113  ND1       -4.4750   58.0210   11.7290 N.ar  323  HIS323     -0.2267
    114  CD2       -2.5000   57.1280   12.0110 C.ar  323  HIS323      0.1154
    115  CE1       -4.6610   56.7160   11.8840 C.ar  323  HIS323      0.1986
    116  NE2       -3.4810   56.1480   12.0590 N.ar  323  HIS323     -0.2212
@<TRIPOS>BOND
     1    37    36    2
     2    19    21   ar
     3    19    18   ar
     4    21    22   ar
     5    36    35    1
     6    13    14    1
     7    35    34    1
     8    35    38    1
     9    49    48    2
    10    18    17    1
    11    18    20   ar
    12   111   112    1
    13   111   108    1
    14   110   109    2
    15   113   112   ar
    16   113   115   ar
    17    22    24   ar
    18    22    20   ar
    19   112   114   ar
    20    17    14    1
    21   115   116   ar
    22    14    15    1
    23    48    47    1
    24    48    50   am
    25   114   116   ar
    26   106   104   ar
    27    38    39    1
    28    43    44    1
    29    39    40    1
    30    24    26   ar
    31   109   108    1
    32    20    23   ar
    33    94    93    2
    34    99   100    1
    35    47    44    1
    36   107   108    1
    37   107   101   am
    38    10     8   ar
    39    10    11   ar
    40    44    45    1
    41    12    11    1
    42   104   105   ar
    43   104   103    1
    44    15    16    2
    45    93    92    1
    46    40    41    1
    47    56    55    1
    48     8     6   ar
    49    11     9   ar
    50    26    25   ar
    51    41    42    1
    52   100   101    1
    53   100   103    1
    54   101   102    2
    55    23    25   ar
    56    45    51   am
    57    45    46    2
    58    98    96    1
    59    51    52    1
    60    55    52    1
    61    96    95    1
    62    92    95    1
    63    92    91    1
    64     6     7   ar
    65     6     5    1
    66     9     7   ar
    67    95    97    1
    68    72    70   am
    69    52    53    1
    70     5     2    1
    71    54    53    2
    72    70    69    1
    73    70    71    2
    74    69    66    1
    75    53    57   am
    76    66    65    1
    77    66    67    1
    78     1     2    1
    79    27    33    1
    80    27    28    1
    81     2     3    1
    82     4     3    2
    83    33    32    1
    84    57    58    1
    85    67    68    2
    86    79    77    1
    87    60    59    2
    88    28    29    1
    89    28    31    1
    90    29    30    2
    91    59    58    1
    92    58    61    1
    93    32    31    1
    94    89    87   ar
    95    89    90   ar
    96    77    78    1
    97    77    74    1
    98    87    85   ar
    99    90    88   ar
   100    73    74    1
   101    74    75    1
   102    61    62    1
   103    64    62    1
   104    62    63    1
   105    85    84    1
   106    85    86   ar
   107    83    82    2
   108    88    86   ar
   109    84    81    1
   110    75    76    2
   111    82    81    1
   112    81    80    1
