@<TRIPOS>MOLECULE
tmp/3ngsB00.pdb
 122 115 0 0 0
SMALL
GASTEIGER

@<TRIPOS>ATOM
      1  N         30.5090   49.5440   14.5500 N.3    10  LYS10      -0.1245
      2  CA        31.4310   50.6790   14.6460 C.3    10  LYS10       0.1561
      3  C         31.1770   51.6720   13.4890 C.2    10  LYS10       0.2260
      4  O         30.3850   51.3740   12.5720 O.2    10  LYS10      -0.2867
      5  CB        32.8800   50.1180   14.6250 C.3    10  LYS10       0.0271
      6  CG        33.2270   49.2620   15.8760 C.3    10  LYS10       0.0035
      7  CD        34.6600   48.7480   15.7050 C.3    10  LYS10       0.0206
      8  CE        35.2220   48.1350   16.9450 C.3    10  LYS10       0.1093
      9  NZ        36.6430   47.8580   16.5660 N.3    10  LYS10      -0.1314
     10  N         34.4170   54.1540   26.7350 N.3    49  HIS49      -0.1226
     11  CA        34.3960   52.8800   26.0080 C.3    49  HIS49       0.1752
     12  C         35.7830   52.2510   25.9720 C.2    49  HIS49       0.2596
     13  O         35.9410   51.0390   26.1840 O.2    49  HIS49      -0.2718
     14  CB        33.8780   53.1020   24.5710 C.3    49  HIS49       0.0759
     15  CG        34.0820   51.9330   23.6520 C.ar   49  HIS49       0.0818
     16  ND1       33.3200   50.7910   23.7200 N.ar   49  HIS49      -0.2268
     17  CD2       34.9500   51.7410   22.6310 C.ar   49  HIS49       0.1154
     18  CE1       33.7170   49.9360   22.8000 C.ar   49  HIS49       0.1986
     19  NE2       34.7110   50.4860   22.1270 N.ar   49  HIS49      -0.2212
     20  N         36.7810   53.0780   25.7020 N.am   50  TYR50      -0.1976
     21  CA        38.1460   52.6030   25.6040 C.3    50  TYR50       0.1639
     22  C         38.9580   52.7860   26.9090 C.2    50  TYR50       0.2290
     23  O         40.1840   52.7870   26.8710 O.2    50  TYR50      -0.2864
     24  CB        38.8480   53.3240   24.4670 C.3    50  TYR50       0.0560
     25  CG        38.5140   52.8470   23.0690 C.ar   50  TYR50      -0.0198
     26  CD1       38.7130   51.5130   22.6910 C.ar   50  TYR50      -0.0009
     27  CD2       38.0650   53.7520   22.1030 C.ar   50  TYR50      -0.0009
     28  CE1       38.4460   51.0770   21.3810 C.ar   50  TYR50       0.0417
     29  CE2       37.7930   53.3350   20.7960 C.ar   50  TYR50       0.0417
     30  CZ        37.9890   52.0000   20.4420 C.ar   50  TYR50       0.1957
     31  OH        37.7230   51.6080   19.1440 O.3    50  TYR50      -0.2866
     32  N         42.2000   51.1730   27.6690 N.3    53  LEU53      -0.1245
     33  CA        43.3230   51.4360   26.7550 C.3    53  LEU53       0.1561
     34  C         43.9370   52.8340   26.9390 C.2    53  LEU53       0.2260
     35  O         44.7550   53.2690   26.1240 O.2    53  LEU53      -0.2867
     36  CB        42.8810   51.2420   25.3000 C.3    53  LEU53       0.0270
     37  CG        42.1980   49.9320   24.9000 C.3    53  LEU53       0.0019
     38  CD1       41.9030   49.9610   23.4080 C.3    53  LEU53       0.0001
     39  CD2       43.0530   48.7300   25.2100 C.3    53  LEU53       0.0001
     40  N         36.4090   56.8610   17.0800 N.3    66  PHE66      -0.1241
     41  CA        35.1870   56.2200   17.5680 C.3    66  PHE66       0.1605
     42  C         34.0900   57.2600   17.7460 C.2    66  PHE66       0.2264
     43  O         32.8900   56.9300   17.6370 O.2    66  PHE66      -0.2867
     44  CB        35.4650   55.5000   18.8760 C.3    66  PHE66       0.0534
     45  CG        34.3860   54.5510   19.2990 C.ar   66  PHE66      -0.0203
     46  CD1       34.2880   53.2880   18.7290 C.ar   66  PHE66      -0.0042
     47  CD2       33.5030   54.8970   20.2960 C.ar   66  PHE66      -0.0042
     48  CE1       33.2840   52.3950   19.1460 C.ar   66  PHE66      -0.0003
     49  CE2       32.4880   54.0070   20.7050 C.ar   66  PHE66      -0.0003
     50  CZ        32.3930   52.7760   20.1390 C.ar   66  PHE66      -0.0000
     51  N         30.4660   36.4610   19.7620 N.3    86  ARG86      -0.1245
     52  CA        31.8650   36.6060   19.3160 C.3    86  ARG86       0.1563
     53  C         32.1330   35.6730   18.1290 C.2    86  ARG86       0.2260
     54  O         32.8530   36.0440   17.1890 O.2    86  ARG86      -0.2867
     55  CB        32.8180   36.2480   20.4570 C.3    86  ARG86       0.0307
     56  CG        32.6870   37.1670   21.6670 C.3    86  ARG86       0.0489
     57  CD        33.4530   38.4420   21.4690 C.3    86  ARG86       0.2205
     58  NE        34.9160   38.2450   21.4880 N.pl3  86  ARG86      -0.0865
     59  CZ        35.8100   39.2270   21.6200 C.cat  86  ARG86       0.5346
     60  NH1       35.4230   40.5030   21.7920 N.pl3  86  ARG86       0.1354
     61  NH2       37.1060   38.9410   21.5810 N.pl3  86  ARG86       0.1354
     62  N         38.6290   38.9550   15.9610 N.3    92  THR92      -0.1218
     63  CA        38.7430   40.4170   16.0280 C.3    92  THR92       0.1862
     64  C         39.6420   40.9280   14.9140 C.2    92  THR92       0.2287
     65  O         39.3540   41.9400   14.3110 O.2    92  THR92      -0.2866
     66  CB        39.3110   40.8250   17.4070 C.3    92  THR92       0.1770
     67  OG1       38.4330   40.2950   18.4130 O.3    92  THR92      -0.2211
     68  CG2       39.4160   42.3490   17.5230 C.3    92  THR92       0.0375
     69  N         33.1970   39.5080   10.1870 N.3   103  ARG103     -0.1245
     70  CA        34.4920   40.0660    9.7830 C.3   103  ARG103      0.1563
     71  C         35.0670   39.2240    8.6340 C.2   103  ARG103      0.2260
     72  O         35.7450   39.7350    7.7420 O.2   103  ARG103     -0.2867
     73  CB        35.4620   40.1190   10.9570 C.3   103  ARG103      0.0307
     74  CG        34.9090   41.1840   11.9830 C.3   103  ARG103      0.0489
     75  CD        35.8210   41.2750   13.0600 C.3   103  ARG103      0.2205
     76  NE        35.3890   42.1560   14.1510 N.pl3 103  ARG103     -0.0865
     77  CZ        35.1960   41.7520   15.3950 C.cat 103  ARG103      0.5346
     78  NH1       35.2460   40.4660   15.7210 N.pl3 103  ARG103      0.1354
     79  NH2       34.9460   42.6600   16.3190 N.pl3 103  ARG103      0.1354
     80  N         42.2030   45.2390   10.8740 N.3   110  VAL110     -0.1245
     81  CA        41.7630   45.3630   12.2860 C.3   110  VAL110      0.1561
     82  C         41.2850   46.7520   12.6990 C.2   110  VAL110      0.2260
     83  O         40.3520   46.8920   13.5260 O.2   110  VAL110     -0.2867
     84  CB        42.8030   44.7260   13.2910 C.3   110  VAL110      0.0252
     85  CG1       44.0620   45.5850   13.3790 C.3   110  VAL110      0.0019
     86  CG2       42.1830   44.5650   14.6660 C.3   110  VAL110      0.0019
     87  N         37.2770   47.1080   11.5850 N.3   113  ASN113     -0.1240
     88  CA        36.8080   45.7340   11.7010 C.3   113  ASN113      0.1653
     89  C         35.3100   45.6550   12.0140 C.2   113  ASN113      0.2266
     90  O         34.8290   44.6430   12.5550 O.2   113  ASN113     -0.2867
     91  CB        37.6590   44.9210   12.6910 C.3   113  ASN113      0.1155
     92  CG        37.4460   45.3670   14.1480 C.2   113  ASN113      0.2627
     93  OD1       36.9370   46.4860   14.4070 O.2   113  ASN113     -0.2716
     94  ND2       37.8340   44.5170   15.0870 N.am  113  ASN113     -0.0877
     95  N         32.6040   45.9730   13.6750 N.3   115  CYS115     -0.1221
     96  CA        31.7150   45.7210   14.8090 C.3   115  CYS115      0.1808
     97  C         32.5470   45.3810   16.0410 C.2   115  CYS115      0.2601
     98  O         33.7940   45.2390   15.9530 O.2   115  CYS115     -0.2717
     99  CB        30.7410   44.5690   14.4610 C.3   115  CYS115      0.0970
    100  SG        31.6290   43.0300   13.9960 S.3   115  CYS115     -0.0800
    101  N         31.8830   45.3150   17.1980 N.am  116  HIS116     -0.1961
    102  CA        32.5020   44.9250   18.4730 C.3   116  HIS116      0.1787
    103  C         31.4850   44.0590   19.1790 C.2   116  HIS116      0.2620
    104  O         30.2680   44.3870   19.1550 O.2   116  HIS116     -0.2715
    105  CB        32.7680   46.1690   19.3660 C.3   116  HIS116      0.0785
    106  CG        32.8950   45.8380   20.8240 C.ar  116  HIS116      0.0821
    107  ND1       34.0530   45.3150   21.3650 N.ar  116  HIS116     -0.2267
    108  CD2       31.9890   45.8810   21.8360 C.ar  116  HIS116      0.1154
    109  CE1       33.8620   45.0720   22.6550 C.ar  116  HIS116      0.1986
    110  NE2       32.6190   45.4040   22.9650 N.ar  116  HIS116     -0.2212
    111  N         31.9410   43.0000   19.8460 N.am  117  GLY117     -0.1954
    112  CA        31.0520   42.2430   20.7470 C.3   117  GLY117      0.1869
    113  C         31.7310   42.0380   22.0980 C.2   117  GLY117      0.2309
    114  O         32.9640   41.8690   22.1540 O.2   117  GLY117     -0.2863
    115  N         33.4330   40.4880   25.2910 N.3   119  ASP119     -0.1239
    116  CA        34.2290   39.2600   25.3800 C.3   119  ASP119      0.1674
    117  C         33.8920   38.3550   26.5670 C.2   119  ASP119      0.2266
    118  O         34.3690   37.2190   26.6320 O.2   119  ASP119     -0.2867
    119  CB        35.7420   39.5440   25.3010 C.3   119  ASP119      0.1410
    120  CG        36.2630   40.3840   26.4680 C.2   119  ASP119      0.3668
    121  OD1       35.5030   40.6480   27.4160 O.co2 119  ASP119     -0.2456
    122  OD2       37.4560   40.7820   26.4280 O.co2 119  ASP119     -0.2456
@<TRIPOS>BOND
     1    72    71    2
     2    71    70    1
     3    70    69    1
     4    70    73    1
     5    80    81    1
     6    73    74    1
     7    87    88    1
     8    88    89    1
     9    88    91    1
    10    74    75    1
    11    89    90    2
    12    81    82    1
    13    81    84    1
    14     4     3    2
    15    91    92    1
    16    82    83    2
    17    75    76    1
    18    84    85    1
    19    84    86    1
    20     3     2    1
    21    95    96    1
    22   100    99    1
    23    92    93    2
    24    92    94   am
    25    76    77    2
    26    65    64    2
    27    99    96    1
    28     1     2    1
    29     5     2    1
    30     5     6    1
    31    96    97    1
    32    64    63    1
    33    77    78    1
    34    77    79    1
    35     7     6    1
    36     7     8    1
    37    98    97    2
    38    62    63    1
    39    63    66    1
    40    97   101   am
    41     9     8    1
    42    40    41    1
    43    54    53    2
    44   101   102    1
    45    66    68    1
    46    66    67    1
    47    41    42    1
    48    41    44    1
    49    43    42    2
    50    53    52    1
    51   102   103    1
    52   102   105    1
    53    46    48   ar
    54    46    45   ar
    55    44    45    1
    56    31    30    1
    57    48    50   ar
    58   104   103    2
    59   103   111   am
    60    45    47   ar
    61    52    51    1
    62    52    55    1
    63   105   106    1
    64   111   112    1
    65    50    49   ar
    66    47    49   ar
    67    30    29   ar
    68    30    28   ar
    69    55    56    1
    70   112   113    1
    71    29    27   ar
    72   106   107   ar
    73   106   108   ar
    74   107   109   ar
    75    28    26   ar
    76    57    58    1
    77    57    56    1
    78    58    59    2
    79    61    59    1
    80    59    60    1
    81   108   110   ar
    82   113   114    2
    83    27    25   ar
    84    19    17   ar
    85    19    18   ar
    86    17    15   ar
    87   109   110   ar
    88    26    25   ar
    89    18    16   ar
    90    25    24    1
    91    38    37    1
    92    15    16   ar
    93    15    14    1
    94    24    21    1
    95    14    11    1
    96    37    39    1
    97    37    36    1
    98   115   116    1
    99    36    33    1
   100   119   116    1
   101   119   120    1
   102   116   117    1
   103    21    20    1
   104    21    22    1
   105    20    12   am
   106    12    11    1
   107    12    13    2
   108    11    10    1
   109    35    34    2
   110   122   120   ar
   111   120   121   ar
   112   117   118    2
   113    33    34    1
   114    33    32    1
   115    23    22    2
