@<TRIPOS>MOLECULE
tmp/3ngtM00.pdb
 115 107 0 0 0
SMALL
GASTEIGER

@<TRIPOS>ATOM
      1  N         17.9120   -8.9970 -113.7520 N.3     9  LYS9       -0.1245
      2  CA        19.3280   -8.7870 -114.0210 C.3     9  LYS9        0.1561
      3  C         20.0150   -8.0120 -112.8740 C.2     9  LYS9        0.2260
      4  O         19.3410   -7.4850 -111.9700 O.2     9  LYS9       -0.2867
      5  CB        19.4910   -8.0950 -115.3600 C.3     9  LYS9        0.0271
      6  CG        18.5480   -8.6730 -116.4090 C.3     9  LYS9        0.0035
      7  CD        19.2760   -9.1600 -117.6780 C.3     9  LYS9        0.0206
      8  CE        19.9880   -8.0690 -118.4480 C.3     9  LYS9        0.1093
      9  NZ        19.6710   -8.1580 -119.9110 N.3     9  LYS9       -0.1314
     10  N         23.5240  -16.7200 -122.7870 N.3    49  TYR49      -0.1241
     11  CA        23.2700  -15.9310 -123.9680 C.3    49  TYR49       0.1605
     12  C         23.9110  -16.5260 -125.2220 C.2    49  TYR49       0.2264
     13  O         24.2490  -15.7710 -126.1410 O.2    49  TYR49      -0.2867
     14  CB        23.7480  -14.5020 -123.7620 C.3    49  TYR49       0.0534
     15  CG        22.8990  -13.7020 -122.8040 C.ar   49  TYR49      -0.0201
     16  CD1       21.5580  -13.4280 -123.0750 C.ar   49  TYR49      -0.0009
     17  CD2       23.4590  -13.1920 -121.6150 C.ar   49  TYR49      -0.0009
     18  CE1       20.8040  -12.6890 -122.1900 C.ar   49  TYR49       0.0417
     19  CE2       22.7120  -12.4510 -120.7330 C.ar   49  TYR49       0.0417
     20  CZ        21.3860  -12.1970 -121.0130 C.ar   49  TYR49       0.1957
     21  OH        20.6620  -11.4500 -120.1010 O.3    49  TYR49      -0.2866
     22  N         23.0610  -15.2650 -128.7430 N.3    52  LEU52      -0.1245
     23  CA        23.4280  -13.8960 -129.0920 C.3    52  LEU52       0.1561
     24  C         24.9210  -13.6990 -129.1280 C.2    52  LEU52       0.2260
     25  O         25.4070  -12.5750 -128.9860 O.2    52  LEU52      -0.2867
     26  CB        22.8040  -12.8990 -128.1110 C.3    52  LEU52       0.0270
     27  CG        21.2910  -13.0170 -127.9520 C.3    52  LEU52       0.0019
     28  CD1       20.8350  -12.0690 -126.9210 C.3    52  LEU52       0.0001
     29  CD2       20.5750  -12.7800 -129.2660 C.3    52  LEU52       0.0001
     30  N         27.1150   -6.3700 -128.8480 N.3    57  PHE57      -0.1241
     31  CA        26.9340   -6.0240 -127.4380 C.3    57  PHE57       0.1605
     32  C         27.1130   -7.2530 -126.5700 C.2    57  PHE57       0.2264
     33  O         26.8660   -7.2120 -125.3460 O.2    57  PHE57      -0.2867
     34  CB        25.5290   -5.4670 -127.1870 C.3    57  PHE57       0.0534
     35  CG        24.4200   -6.3000 -127.7910 C.ar   57  PHE57      -0.0203
     36  CD1       23.8850   -5.9660 -129.0250 C.ar   57  PHE57      -0.0042
     37  CD2       23.8940   -7.3970 -127.1070 C.ar   57  PHE57      -0.0042
     38  CE1       22.8320   -6.7280 -129.5950 C.ar   57  PHE57      -0.0003
     39  CE2       22.8680   -8.1630 -127.6520 C.ar   57  PHE57      -0.0003
     40  CZ        22.3300   -7.8230 -128.9050 C.ar   57  PHE57      -0.0000
     41  N         29.8120   -6.7080 -123.6790 N.3    60  ALA60      -0.1231
     42  CA        29.2320   -5.8770 -122.5990 C.3    60  ALA60       0.1694
     43  C         28.1710   -6.6330 -121.8040 C.2    60  ALA60       0.2591
     44  O         28.1030   -6.5090 -120.5820 O.2    60  ALA60      -0.2718
     45  CB        28.6680   -4.5940 -123.1410 C.3    60  ALA60       0.0304
     46  N         27.3720   -7.4380 -122.4970 N.am   61  LEU61      -0.1980
     47  CA        26.2460   -8.0930 -121.8850 C.3    61  LEU61       0.1596
     48  C         26.6950   -9.1570 -120.8900 C.2    61  LEU61       0.2287
     49  O         26.1830   -9.2260 -119.7550 O.2    61  LEU61      -0.2864
     50  CB        25.3770   -8.7130 -122.9630 C.3    61  LEU61       0.0297
     51  CG        24.2110   -9.6280 -122.5870 C.3    61  LEU61       0.0022
     52  CD1       23.0580   -8.8770 -121.8420 C.3    61  LEU61       0.0001
     53  CD2       23.6980  -10.3250 -123.8650 C.3    61  LEU61       0.0001
     54  N          6.9260  -12.2240 -122.3060 N.3    85  ARG85      -0.1245
     55  CA         7.6540  -11.1770 -123.0150 C.3    85  ARG85       0.1563
     56  C          6.8360   -9.8860 -123.0170 C.2    85  ARG85       0.2260
     57  O          7.3650   -8.8040 -122.8400 O.2    85  ARG85      -0.2867
     58  CB         7.9640  -11.6130 -124.4660 C.3    85  ARG85       0.0307
     59  CG         9.2090  -12.4680 -124.6410 C.3    85  ARG85       0.0489
     60  CD        10.3620  -11.6130 -125.1930 C.3    85  ARG85       0.2205
     61  NE        11.7130  -12.1320 -124.9310 N.pl3  85  ARG85      -0.0865
     62  CZ        12.7820  -11.7910 -125.6590 C.cat  85  ARG85       0.5346
     63  NH1       12.6380  -10.9440 -126.6860 N.pl3  85  ARG85       0.1354
     64  NH2       13.9880  -12.2920 -125.3790 N.pl3  85  ARG85       0.1354
     65  N         12.5680   -5.3150 -125.4100 N.3    91  THR91      -0.1218
     66  CA        13.9250   -5.5030 -124.9120 C.3    91  THR91       0.1862
     67  C         14.6180   -4.1710 -124.6590 C.2    91  THR91       0.2287
     68  O         15.2620   -4.0050 -123.6240 O.2    91  THR91      -0.2866
     69  CB        14.7350   -6.3760 -125.9050 C.3    91  THR91       0.1770
     70  OG1       14.1760   -7.7110 -125.9390 O.3    91  THR91      -0.2211
     71  CG2       16.2370   -6.4080 -125.5430 C.3    91  THR91       0.0375
     72  N          9.8510   -2.9320 -118.1920 N.3   102  ARG102     -0.1245
     73  CA        10.7860   -2.0400 -118.8290 C.3   102  ARG102      0.1563
     74  C         10.1120   -0.7020 -119.0040 C.2   102  ARG102      0.2260
     75  O         10.6830    0.3400 -118.7340 O.2   102  ARG102     -0.2867
     76  CB        11.2920   -2.6310 -120.1450 C.3   102  ARG102      0.0307
     77  CG        12.4620   -3.5950 -119.9660 C.3   102  ARG102      0.0489
     78  CD        12.1740   -4.9120 -120.6530 C.3   102  ARG102      0.2205
     79  NE        13.2500   -5.8990 -120.5980 N.pl3 102  ARG102     -0.0865
     80  CZ        13.3530   -6.9130 -121.4580 C.cat 102  ARG102      0.5346
     81  NH1       12.4460   -7.0650 -122.4190 N.pl3 102  ARG102      0.1354
     82  NH2       14.3610   -7.7640 -121.3690 N.pl3 102  ARG102      0.1354
     83  N         18.9950   -0.0560 -122.7790 N.3   109  VAL109     -0.1231
     84  CA        18.9580   -1.4700 -123.1290 C.3   109  VAL109      0.1692
     85  C         19.9980   -2.2940 -122.3460 C.2   109  VAL109      0.2592
     86  O         19.7620   -3.4470 -122.0250 O.2   109  VAL109     -0.2718
     87  CB        19.0750   -1.7060 -124.6530 C.3   109  VAL109      0.0266
     88  CG1       20.4570   -1.4060 -125.1150 C.3   109  VAL109      0.0020
     89  CG2       18.7080   -3.1630 -125.0190 C.3   109  VAL109      0.0020
     90  N         21.1270   -1.7030 -121.9950 N.am  110  GLY110     -0.1957
     91  CA        22.0790   -2.4360 -121.1670 C.3   110  GLY110      0.1869
     92  C         21.6140   -2.5830 -119.7350 C.2   110  GLY110      0.2309
     93  O         22.1330   -3.3990 -118.9830 O.2   110  GLY110     -0.2863
     94  N         18.2240   -3.1170 -118.6280 N.3   112  ASN112     -0.1240
     95  CA        16.8100   -3.3820 -118.8680 C.3   112  ASN112      0.1653
     96  C         16.2070   -4.3790 -117.8970 C.2   112  ASN112      0.2266
     97  O         15.2860   -5.1050 -118.2410 O.2   112  ASN112     -0.2867
     98  CB        16.5760   -3.8210 -120.3160 C.3   112  ASN112      0.1155
     99  CG        17.2680   -5.1210 -120.6610 C.2   112  ASN112      0.2627
    100  OD1       17.9680   -5.7490 -119.8460 O.2   112  ASN112     -0.2716
    101  ND2       17.0470   -5.5490 -121.8830 N.am  112  ASN112     -0.0877
    102  N         15.3460  -10.4630 -117.8410 N.3   115  HIS115     -0.1226
    103  CA        15.4170  -11.2720 -119.0590 C.3   115  HIS115      0.1752
    104  C         14.2380  -12.2410 -119.1170 C.2   115  HIS115      0.2596
    105  O         13.8790  -12.8500 -118.0830 O.2   115  HIS115     -0.2718
    106  CB        16.7020  -12.0890 -119.1550 C.3   115  HIS115      0.0759
    107  CG        16.5830  -13.2130 -120.1480 C.ar  115  HIS115      0.0818
    108  ND1       16.9280  -13.0750 -121.4770 N.ar  115  HIS115     -0.2268
    109  CD2       16.0230  -14.4410 -120.0320 C.ar  115  HIS115      0.1154
    110  CE1       16.6480  -14.1920 -122.1160 C.ar  115  HIS115      0.1986
    111  NE2       16.0870  -15.0300 -121.2680 N.ar  115  HIS115     -0.2212
    112  N         13.6590  -12.3840 -120.3100 N.am  116  GLY116     -0.1957
    113  CA        12.6510  -13.4130 -120.6130 C.3   116  GLY116      0.1869
    114  C         12.9950  -14.2780 -121.8450 C.2   116  GLY116      0.2309
    115  O         13.4550  -13.7890 -122.8970 O.2   116  GLY116     -0.2863
@<TRIPOS>BOND
     1    38    36   ar
     2    38    40   ar
     3    29    27    1
     4    24    23    1
     5    24    25    2
     6    23    22    1
     7    23    26    1
     8    36    35   ar
     9    40    39   ar
    10    30    31    1
    11    26    27    1
    12    27    28    1
    13    35    34    1
    14    35    37   ar
    15    39    37   ar
    16    31    34    1
    17    31    32    1
    18    63    62    1
    19    32    33    2
    20    13    12    2
    21    70    69    1
    22    69    71    1
    23    69    66    1
    24    62    64    1
    25    62    61    2
    26    65    66    1
    27    12    11    1
    28    60    61    1
    29    60    59    1
    30    88    87    1
    31    89    87    1
    32    66    67    1
    33    67    68    2
    34    87    84    1
    35    59    58    1
    36    58    55    1
    37    11    14    1
    38    11    10    1
    39    53    51    1
    40    14    15    1
    41    41    42    1
    42    45    42    1
    43    84    83    1
    44    84    85    1
    45    16    15   ar
    46    16    18   ar
    47    56    55    1
    48    56    57    2
    49    55    54    1
    50    50    51    1
    51    50    47    1
    52   115   114    2
    53    15    17   ar
    54    42    43    1
    55    51    52    1
    56    46    47    1
    57    46    43   am
    58    81    80    1
    59    85    86    2
    60    85    90   am
    61    18    20   ar
    62   110   108   ar
    63   110   111   ar
    64    90    91    1
    65    47    48    1
    66   101    99   am
    67   114   113    1
    68    43    44    2
    69    17    19   ar
    70   108   107   ar
    71    80    82    1
    72    80    79    2
    73   111   109   ar
    74    91    92    1
    75    20    19   ar
    76    20    21    1
    77    48    49    2
    78    99    98    1
    79    99   100    2
    80    78    79    1
    81    78    77    1
    82   113   112    1
    83    98    95    1
    84   112   104   am
    85   107   109   ar
    86   107   106    1
    87    76    77    1
    88    76    73    1
    89     9     8    1
    90    92    93    2
    91   106   103    1
    92   104   103    1
    93   104   105    2
    94   103   102    1
    95    74    73    1
    96    74    75    2
    97    95    94    1
    98    95    96    1
    99    73    72    1
   100     8     7    1
   101    97    96    2
   102     7     6    1
   103     6     5    1
   104     5     2    1
   105     2     1    1
   106     2     3    1
   107     3     4    2
