@<TRIPOS>MOLECULE
tmp/3nguB00.pdb
 118 109 0 0 0
SMALL
GASTEIGER

@<TRIPOS>ATOM
      1  N         -4.5740  -19.4400  -34.5000 N.3    11  LYS11      -0.1245
      2  CA        -4.0230  -20.7490  -34.6470 C.3    11  LYS11       0.1561
      3  C         -3.2410  -21.2220  -33.4410 C.2    11  LYS11       0.2260
      4  O         -2.9190  -20.4530  -32.5960 O.2    11  LYS11      -0.2867
      5  CB        -3.2180  -20.8430  -35.9510 C.3    11  LYS11       0.0271
      6  CG        -4.1140  -20.5730  -37.2180 C.3    11  LYS11       0.0035
      7  CD        -3.4260  -21.0300  -38.5070 C.3    11  LYS11       0.0206
      8  CE        -3.9460  -20.1930  -39.6300 C.3    11  LYS11       0.1093
      9  NZ        -3.0260  -20.4060  -40.7730 N.3    11  LYS11      -0.1314
     10  N        -10.2690  -27.2580  -43.8500 N.3    51  TYR51      -0.1241
     11  CA        -9.5050  -26.9170  -45.0190 C.3    51  TYR51       0.1605
     12  C         -9.8010  -27.7980  -46.2860 C.2    51  TYR51       0.2264
     13  O         -9.0150  -27.7980  -47.1870 O.2    51  TYR51      -0.2867
     14  CB        -7.9960  -26.9510  -44.6530 C.3    51  TYR51       0.0534
     15  CG        -7.4440  -25.8280  -43.8180 C.ar   51  TYR51      -0.0201
     16  CD1       -7.5680  -24.4600  -44.2360 C.ar   51  TYR51      -0.0009
     17  CD2       -6.7270  -26.1110  -42.6040 C.ar   51  TYR51      -0.0009
     18  CE1       -7.0010  -23.3790  -43.4420 C.ar   51  TYR51       0.0417
     19  CE2       -6.1720  -25.0860  -41.8310 C.ar   51  TYR51       0.0417
     20  CZ        -6.2910  -23.7160  -42.2500 C.ar   51  TYR51       0.1957
     21  OH        -5.6970  -22.6960  -41.4680 O.3    51  TYR51      -0.2866
     22  N         -9.0190  -27.1190  -49.8630 N.3    54  LEU54      -0.1245
     23  CA        -7.5720  -27.0960  -50.3020 C.3    54  LEU54       0.1561
     24  C         -6.8030  -28.4180  -50.1670 C.2    54  LEU54       0.2260
     25  O         -5.5480  -28.4000  -50.0260 O.2    54  LEU54      -0.2867
     26  CB        -6.7180  -26.0840  -49.5050 C.3    54  LEU54       0.0270
     27  CG        -6.8890  -24.5970  -49.1580 C.3    54  LEU54       0.0019
     28  CD1       -6.0470  -24.3280  -47.9210 C.3    54  LEU54       0.0001
     29  CD2       -6.4610  -23.6460  -50.3040 C.3    54  LEU54       0.0001
     30  N          1.0940  -28.3830  -49.4490 N.3    59  PHE59      -0.1241
     31  CA         1.3260  -28.0290  -48.0790 C.3    59  PHE59       0.1605
     32  C          0.2120  -28.6750  -47.2390 C.2    59  PHE59       0.2264
     33  O          0.4730  -28.9840  -46.1070 O.2    59  PHE59      -0.2867
     34  CB         1.4400  -26.4980  -47.8930 C.3    59  PHE59       0.0534
     35  CG         0.2930  -25.7110  -48.5150 C.ar   59  PHE59      -0.0203
     36  CD1       -0.8650  -25.4770  -47.7960 C.ar   59  PHE59      -0.0042
     37  CD2        0.3780  -25.2220  -49.8260 C.ar   59  PHE59      -0.0042
     38  CE1       -1.9460  -24.7940  -48.3640 C.ar   59  PHE59      -0.0003
     39  CE2       -0.6520  -24.5080  -50.4050 C.ar   59  PHE59      -0.0003
     40  CZ        -1.8280  -24.2820  -49.6430 C.ar   59  PHE59      -0.0000
     41  N         -0.0020  -28.5520  -43.1250 N.3    63  LEU63      -0.1245
     42  CA        -1.0770  -27.7340  -42.7210 C.3    63  LEU63       0.1561
     43  C         -2.0850  -28.4640  -41.8070 C.2    63  LEU63       0.2260
     44  O         -2.3310  -28.0460  -40.6300 O.2    63  LEU63      -0.2867
     45  CB        -1.7520  -27.1230  -43.9360 C.3    63  LEU63       0.0270
     46  CG        -2.9080  -26.2070  -43.5220 C.3    63  LEU63       0.0019
     47  CD1       -2.4880  -24.9800  -42.5740 C.3    63  LEU63       0.0001
     48  CD2       -3.7110  -25.6810  -44.6630 C.3    63  LEU63       0.0001
     49  N        -10.0160   -9.8800  -42.9570 N.3    87  ARG87      -0.1245
     50  CA        -8.8870  -10.1620  -43.9070 C.3    87  ARG87       0.1563
     51  C         -7.8570   -9.0310  -43.8470 C.2    87  ARG87       0.2260
     52  O         -6.6680   -9.2810  -43.6360 O.2    87  ARG87      -0.2867
     53  CB        -9.3460  -10.3550  -45.4030 C.3    87  ARG87       0.0307
     54  CG       -10.2530  -11.5860  -45.4950 C.3    87  ARG87       0.0489
     55  CD        -9.4290  -12.7790  -45.2460 C.3    87  ARG87       0.2205
     56  NE        -8.7960  -13.1660  -46.5170 N.pl3  87  ARG87      -0.0865
     57  CZ        -7.9940  -14.2240  -46.6440 C.cat  87  ARG87       0.5346
     58  NH1       -7.7470  -15.0000  -45.5480 N.pl3  87  ARG87       0.1354
     59  NH2       -7.4330  -14.4840  -47.8520 N.pl3  87  ARG87       0.1354
     60  N         -1.7970  -13.5020  -46.4890 N.3    93  THR93      -0.1218
     61  CA        -1.5240  -14.9620  -46.2930 C.3    93  THR93       0.1862
     62  C         -0.1470  -15.3220  -45.7300 C.2    93  THR93       0.2287
     63  O          0.0210  -16.0880  -44.8020 O.2    93  THR93      -0.2866
     64  CB        -1.6870  -15.6870  -47.7580 C.3    93  THR93       0.1770
     65  OG1       -2.9390  -15.2810  -48.4060 O.3    93  THR93      -0.2211
     66  CG2       -1.5300  -17.2290  -47.6850 C.3    93  THR93       0.0375
     67  N         -0.4910  -10.2980  -38.9210 N.3   104  ARG104     -0.1245
     68  CA         0.7070  -10.9860  -39.5530 C.3   104  ARG104      0.1563
     69  C          1.8070  -10.0510  -39.8450 C.2   104  ARG104      0.2260
     70  O          2.9430  -10.4110  -39.6000 O.2   104  ARG104     -0.2867
     71  CB         0.3370  -11.7850  -40.8060 C.3   104  ARG104      0.0307
     72  CG        -0.8300  -12.7830  -40.4550 C.3   104  ARG104      0.0489
     73  CD        -1.3850  -13.4140  -41.6040 C.3   104  ARG104      0.2205
     74  NE        -2.3150  -14.4850  -41.2280 N.pl3 104  ARG104     -0.0865
     75  CZ        -3.3260  -14.8450  -42.0100 C.cat 104  ARG104      0.5346
     76  NH1       -3.4810  -14.1920  -43.2130 N.pl3 104  ARG104      0.1354
     77  NH2       -4.1250  -15.8820  -41.6450 N.pl3 104  ARG104      0.1354
     78  N          4.7920  -18.5370  -43.5650 N.3   111  VAL111     -0.1231
     79  CA         3.4440  -18.7240  -43.9900 C.3   111  VAL111      0.1692
     80  C          2.7940  -19.9080  -43.2190 C.2   111  VAL111      0.2592
     81  O          1.5580  -19.9950  -43.0910 O.2   111  VAL111     -0.2718
     82  CB         3.3870  -18.8070  -45.5500 C.3   111  VAL111      0.0266
     83  CG1        4.2520  -19.8910  -46.0590 C.3   111  VAL111      0.0020
     84  CG2        1.9640  -18.8610  -46.0000 C.3   111  VAL111      0.0020
     85  N          3.6550  -20.7810  -42.7160 N.am  112  GLY112     -0.1957
     86  CA         3.2670  -21.9720  -42.0310 C.3   112  GLY112      0.1869
     87  C          2.9680  -21.7060  -40.5600 C.2   112  GLY112      0.2309
     88  O          2.3500  -22.5560  -39.8880 O.2   112  GLY112     -0.2863
     89  N          1.5040  -18.4830  -39.2920 N.3   114  ASN114     -0.1240
     90  CA         0.8800  -17.2180  -39.5190 C.3   114  ASN114      0.1653
     91  C         -0.2670  -16.8340  -38.6100 C.2   114  ASN114      0.2266
     92  O         -1.0100  -15.9240  -38.9170 O.2   114  ASN114     -0.2867
     93  CB         0.4810  -17.0970  -41.0010 C.3   114  ASN114      0.1155
     94  CG        -0.5800  -18.0160  -41.3640 C.2   114  ASN114      0.2627
     95  OD1       -0.9890  -18.8590  -40.5450 O.2   114  ASN114     -0.2716
     96  ND2       -1.1470  -17.8120  -42.5490 N.am  114  ASN114     -0.0877
     97  N         -6.4550  -17.1310  -38.6060 N.3   117  HIS117     -0.1226
     98  CA        -7.1410  -17.4510  -39.8870 C.3   117  HIS117      0.1752
     99  C         -8.4390  -16.6980  -39.9650 C.2   117  HIS117      0.2596
    100  O         -9.1200  -16.4650  -38.9340 O.2   117  HIS117     -0.2718
    101  CB        -7.4500  -18.9550  -40.0150 C.3   117  HIS117      0.0759
    102  CG        -8.6810  -19.2450  -40.8040 C.ar  117  HIS117      0.0818
    103  ND1       -8.6490  -19.7770  -42.0720 N.ar  117  HIS117     -0.2268
    104  CD2       -9.9850  -18.9800  -40.5420 C.ar  117  HIS117      0.1154
    105  CE1       -9.8770  -19.8900  -42.5250 C.ar  117  HIS117      0.1986
    106  NE2      -10.7110  -19.3750  -41.6360 N.ar  117  HIS117     -0.2212
    107  N         -8.8030  -16.3260  -41.1640 N.am  118  GLY118     -0.1957
    108  CA        -9.9970  -15.5440  -41.3760 C.3   118  GLY118      0.1869
    109  C        -10.6760  -15.9340  -42.6730 C.2   118  GLY118      0.2309
    110  O        -10.0280  -16.1210  -43.6330 O.2   118  GLY118     -0.2863
    111  N        -12.5370  -16.0830  -46.1890 N.3   120  ASP120     -0.1239
    112  CA       -12.0650  -15.3100  -47.3650 C.3   120  ASP120      0.1674
    113  C        -13.2320  -14.6630  -48.1180 C.2   120  ASP120      0.2266
    114  O        -13.0520  -13.7580  -48.9270 O.2   120  ASP120     -0.2867
    115  CB       -10.9540  -16.0270  -48.2080 C.3   120  ASP120      0.1410
    116  CG       -11.4520  -17.2050  -49.0270 C.2   120  ASP120      0.3668
    117  OD1      -12.6700  -17.6220  -48.9570 O.co2 120  ASP120     -0.2456
    118  OD2      -10.5890  -17.7690  -49.7430 O.co2 120  ASP120     -0.2456
@<TRIPOS>BOND
     1    39    37   ar
     2    39    40   ar
     3    29    27    1
     4    23    24    1
     5    23    22    1
     6    23    26    1
     7    24    25    2
     8    37    35   ar
     9   118   116   ar
    10    40    38   ar
    11    26    27    1
    12    30    31    1
    13    27    28    1
    14   116   117   ar
    15   116   115    1
    16   114   113    2
    17    35    34    1
    18    35    36   ar
    19    65    64    1
    20    38    36   ar
    21   115   112    1
    22   113   112    1
    23    31    34    1
    24    31    32    1
    25    59    57    1
    26    64    66    1
    27    64    61    1
    28   112   111    1
    29    32    33    2
    30    13    12    2
    31    57    56    2
    32    57    58    1
    33    56    55    1
    34    60    61    1
    35    61    62    1
    36    12    11    1
    37    83    82    1
    38    84    82    1
    39    62    63    2
    40    82    79    1
    41    54    53    1
    42    54    55    1
    43    53    50    1
    44    11    14    1
    45    11    10    1
    46    48    46    1
    47    14    15    1
    48    16    15   ar
    49    16    18   ar
    50    79    78    1
    51    79    80    1
    52    45    46    1
    53    45    42    1
    54    50    51    1
    55    50    49    1
    56    51    52    2
    57    15    17   ar
    58   110   109    2
    59    46    47    1
    60    18    20   ar
    61    80    81    2
    62    80    85   am
    63    76    75    1
    64    41    42    1
    65    42    43    1
    66    85    86    1
    67   109   108    1
    68    17    19   ar
    69    96    94   am
    70   105   103   ar
    71   105   106   ar
    72    20    19   ar
    73    20    21    1
    74   103   102   ar
    75    86    87    1
    76    75    77    1
    77    75    74    2
    78    43    44    2
    79   106   104   ar
    80    73    74    1
    81    73    72    1
    82   108   107    1
    83    94    93    1
    84    94    95    2
    85   107    99   am
    86    93    90    1
    87    71    72    1
    88    71    68    1
    89   102   104   ar
    90   102   101    1
    91     9     8    1
    92    87    88    2
    93   101    98    1
    94    99    98    1
    95    99   100    2
    96    98    97    1
    97    69    70    2
    98    69    68    1
    99     8     7    1
   100    68    67    1
   101    90    89    1
   102    90    91    1
   103    92    91    2
   104     7     6    1
   105     6     5    1
   106     5     2    1
   107     2     1    1
   108     2     3    1
   109     3     4    2
