@<TRIPOS>MOLECULE
tmp/3nh8A00.pdb
 180 169 0 0 0
SMALL
GASTEIGER

@<TRIPOS>ATOM
      1  N        -16.7970  -30.3390  -12.7580 N.3    15  HIS15      -0.1241
      2  CA       -17.4140  -31.6510  -12.9130 C.3    15  HIS15       0.1621
      3  C        -18.9060  -31.4600  -12.8050 C.2    15  HIS15       0.2264
      4  O        -19.4130  -30.9210  -11.8180 O.2    15  HIS15      -0.2867
      5  CB       -16.8960  -32.6250  -11.8640 C.3    15  HIS15       0.0745
      6  CG       -15.4170  -32.8070  -11.9300 C.ar   15  HIS15       0.0817
      7  ND1      -14.5980  -32.6840  -10.8300 N.ar   15  HIS15      -0.2268
      8  CD2      -14.6000  -33.0440  -12.9840 C.ar   15  HIS15       0.1154
      9  CE1      -13.3420  -32.8540  -11.2010 C.ar   15  HIS15       0.1986
     10  NE2      -13.3170  -33.0770  -12.5030 N.ar   15  HIS15      -0.2212
     11  N        -20.9490  -32.4520   -9.5070 N.3    18  GLU18      -0.1245
     12  CA       -20.6220  -32.0240   -8.1550 C.3    18  GLU18       0.1567
     13  C        -21.3650  -30.7600   -7.8570 C.2    18  GLU18       0.2260
     14  O        -21.0080  -29.6890   -8.3420 O.2    18  GLU18      -0.2867
     15  CB       -19.1330  -31.8250   -8.0230 C.3    18  GLU18       0.0388
     16  CG       -18.4240  -33.1170   -8.2510 C.3    18  GLU18       0.1160
     17  CD       -16.9460  -32.9950   -8.1660 C.2    18  GLU18       0.3649
     18  OE1      -16.4540  -31.8730   -7.9170 O.co2  18  GLU18      -0.2457
     19  OE2      -16.2820  -34.0300   -8.3670 O.co2  18  GLU18      -0.2457
     20  N        -19.8590  -36.2580  -14.6570 N.3    57  ARG57      -0.1245
     21  CA       -18.5370  -35.6890  -14.3820 C.3    57  ARG57       0.1563
     22  C        -17.8990  -34.9790  -15.5990 C.2    57  ARG57       0.2260
     23  O        -17.4770  -33.8220  -15.4970 O.2    57  ARG57      -0.2867
     24  CB       -17.5870  -36.7410  -13.8050 C.3    57  ARG57       0.0307
     25  CG       -16.2780  -36.1660  -13.2920 C.3    57  ARG57       0.0489
     26  CD       -15.3120  -37.2700  -12.8940 C.3    57  ARG57       0.2205
     27  NE       -13.9690  -36.7820  -12.5540 N.pl3  57  ARG57      -0.0865
     28  CZ       -13.6180  -36.3030  -11.3580 C.cat  57  ARG57       0.5346
     29  NH1      -14.5070  -36.2170  -10.3760 N.pl3  57  ARG57       0.1354
     30  NH2      -12.3790  -35.8980  -11.1390 N.pl3  57  ARG57       0.1354
     31  N        -10.5780  -31.5120  -15.6330 N.3    64  ASN64      -0.1225
     32  CA        -9.5830  -31.1230  -14.6420 C.3    64  ASN64       0.1785
     33  C         -8.2740  -31.8880  -14.8190 C.2    64  ASN64       0.2597
     34  O         -7.4160  -31.8740  -13.9210 O.2    64  ASN64      -0.2718
     35  CB       -10.1410  -31.3330  -13.2240 C.3    64  ASN64       0.1169
     36  CG        -9.6120  -30.3160  -12.2080 C.2    64  ASN64       0.2627
     37  OD1       -9.6850  -29.1060  -12.4240 O.2    64  ASN64      -0.2716
     38  ND2       -9.1040  -30.8110  -11.0790 N.am   64  ASN64      -0.0877
     39  N         -8.1380  -32.5670  -15.9620 N.am   65  ARG65      -0.1979
     40  CA        -6.9070  -33.2710  -16.3240 C.3    65  ARG65       0.1597
     41  C         -6.5320  -32.8190  -17.7230 C.2    65  ARG65       0.2287
     42  O         -5.7110  -33.4470  -18.3960 O.2    65  ARG65      -0.2864
     43  CB        -7.0920  -34.8050  -16.3170 C.3    65  ARG65       0.0334
     44  CG        -7.5450  -35.4330  -14.9940 C.3    65  ARG65       0.0492
     45  CD        -6.5810  -35.1540  -13.8130 C.3    65  ARG65       0.2205
     46  NE        -6.9010  -35.9150  -12.5830 N.pl3  65  ARG65      -0.0865
     47  CZ        -7.6770  -35.4920  -11.5670 C.cat  65  ARG65       0.5346
     48  NH1       -8.2510  -34.2890  -11.5960 N.pl3  65  ARG65       0.1354
     49  NH2       -7.8920  -36.2770  -10.5070 N.pl3  65  ARG65       0.1354
     50  N        -15.3400  -27.9750   -5.5560 N.3   110  HIS110     -0.1226
     51  CA       -15.4860  -29.4220   -5.7430 C.3   110  HIS110      0.1752
     52  C        -16.1840  -30.0930   -4.5850 C.2   110  HIS110      0.2596
     53  O        -16.0960  -29.6540   -3.4350 O.2   110  HIS110     -0.2718
     54  CB       -14.1410  -30.1210   -5.8710 C.3   110  HIS110      0.0759
     55  CG       -13.3500  -29.7150   -7.0680 C.ar  110  HIS110      0.0818
     56  ND1      -13.6630  -30.1300   -8.3390 N.ar  110  HIS110     -0.2268
     57  CD2      -12.2350  -28.9580   -7.1810 C.ar  110  HIS110      0.1154
     58  CE1      -12.7810  -29.6390   -9.1900 C.ar  110  HIS110      0.1986
     59  NE2      -11.9140  -28.9130   -8.5130 N.ar  110  HIS110     -0.2212
     60  N        -16.8490  -31.1920   -4.9190 N.am  111  ASN111     -0.1960
     61  CA       -17.4410  -32.0830   -3.9470 C.3   111  ASN111      0.1819
     62  C        -16.8190  -33.4490   -4.0760 C.2   111  ASN111      0.2621
     63  O        -16.2630  -33.7870   -5.1210 O.2   111  ASN111     -0.2715
     64  CB       -18.9230  -32.2050   -4.1830 C.3   111  ASN111      0.1195
     65  CG       -19.6520  -30.9660   -3.7970 C.2   111  ASN111      0.2630
     66  OD1      -20.0410  -30.1720   -4.6590 O.2   111  ASN111     -0.2716
     67  ND2      -19.8170  -30.7540   -2.4870 N.am  111  ASN111     -0.0877
     68  N        -16.9080  -34.2330   -3.0110 N.am  112  THR112     -0.1951
     69  CA       -16.3790  -35.5740   -3.0210 C.3   112  THR112      0.1897
     70  C        -17.3130  -36.5420   -2.2840 C.2   112  THR112      0.2313
     71  O        -18.0420  -36.1480   -1.3700 O.2   112  THR112     -0.2863
     72  CB       -14.9790  -35.6080   -2.3980 C.3   112  THR112      0.1794
     73  OG1      -14.3560  -36.8510   -2.7200 O.3   112  THR112     -0.2208
     74  CG2      -15.0630  -35.5040   -0.8910 C.3   112  THR112      0.0378
     75  N         -7.3600  -28.2550   -1.6760 N.3   121  ILE121     -0.1245
     76  CA        -6.2850  -28.9050   -2.4280 C.3   121  ILE121      0.1561
     77  C         -5.4240  -27.8610   -3.1270 C.2   121  ILE121      0.2260
     78  O         -5.9450  -27.0050   -3.8280 O.2   121  ILE121     -0.2867
     79  CB        -6.8090  -29.9110   -3.4710 C.3   121  ILE121      0.0252
     80  CG1       -7.5130  -31.0820   -2.7890 C.3   121  ILE121      0.0019
     81  CG2       -5.6710  -30.4540   -4.2800 C.3   121  ILE121      0.0019
     82  CD1       -9.0020  -31.2090   -3.1160 C.3   121  ILE121      0.0001
     83  N         -1.6890  -27.0600   -5.3940 N.3   123  GLU123     -0.1245
     84  CA        -0.7290  -27.7570   -6.2390 C.3   123  GLU123      0.1567
     85  C          0.6960  -27.3000   -6.0380 C.2   123  GLU123      0.2260
     86  O          1.6070  -27.7970   -6.6890 O.2   123  GLU123     -0.2867
     87  CB        -1.1270  -27.6740   -7.7070 C.3   123  GLU123      0.0388
     88  CG        -1.7590  -28.9630   -8.2460 C.3   123  GLU123      0.1160
     89  CD        -2.5430  -28.7480   -9.5320 C.2   123  GLU123      0.3649
     90  OE1       -3.5570  -28.0180   -9.4650 O.co2 123  GLU123     -0.2457
     91  OE2       -2.1600  -29.3070  -10.5970 O.co2 123  GLU123     -0.2457
     92  N         -4.5100  -30.3060    1.5140 N.3   148  PHE148     -0.1241
     93  CA        -3.8880  -31.4140    0.8290 C.3   148  PHE148      0.1605
     94  C         -2.9030  -30.8800   -0.1900 C.2   148  PHE148      0.2264
     95  O         -3.2930  -30.1920   -1.1150 O.2   148  PHE148     -0.2867
     96  CB        -4.9260  -32.3030    0.1430 C.3   148  PHE148      0.0534
     97  CG        -4.3330  -33.5630   -0.4580 C.ar  148  PHE148     -0.0203
     98  CD1       -3.7710  -34.5340    0.3450 C.ar  148  PHE148     -0.0042
     99  CD2       -4.3250  -33.7710   -1.8180 C.ar  148  PHE148     -0.0042
    100  CE1       -3.2120  -35.6910   -0.2080 C.ar  148  PHE148     -0.0003
    101  CE2       -3.7740  -34.9400   -2.3660 C.ar  148  PHE148     -0.0003
    102  CZ        -3.2150  -35.8870   -1.5650 C.ar  148  PHE148     -0.0000
    103  N         -0.6700  -31.3720   -3.2720 N.3   150  TYR150     -0.1241
    104  CA        -0.4750  -32.2560   -4.3970 C.3   150  TYR150      0.1605
    105  C          0.4000  -31.5480   -5.4410 C.2   150  TYR150      0.2264
    106  O         -0.0970  -31.0750   -6.4590 O.2   150  TYR150     -0.2867
    107  CB        -1.8460  -32.6000   -4.9830 C.3   150  TYR150      0.0534
    108  CG        -1.9160  -33.8230   -5.8920 C.ar  150  TYR150     -0.0201
    109  CD1       -1.1160  -33.9340   -7.0240 C.ar  150  TYR150     -0.0009
    110  CD2       -2.8240  -34.8540   -5.6340 C.ar  150  TYR150     -0.0009
    111  CE1       -1.1990  -35.0630   -7.8550 C.ar  150  TYR150      0.0417
    112  CE2       -2.9150  -35.9750   -6.4560 C.ar  150  TYR150      0.0417
    113  CZ        -2.1060  -36.0760   -7.5640 C.ar  150  TYR150      0.1957
    114  OH        -2.2020  -37.1880   -8.3830 O.3   150  TYR150     -0.2866
    115  N         -4.8070  -29.0000  -14.0700 N.3   159  SER159     -0.1217
    116  CA        -6.0790  -28.5850  -13.5070 C.3   159  SER159      0.1889
    117  C         -6.5340  -27.2110  -13.9630 C.2   159  SER159      0.2288
    118  O         -5.7650  -26.4360  -14.5340 O.2   159  SER159     -0.2866
    119  CB        -5.9740  -28.5800  -12.0050 C.3   159  SER159      0.2089
    120  OG        -4.8530  -27.8230  -11.6430 O.3   159  SER159     -0.2183
    121  N         -7.4740  -24.5760  -12.0950 N.3   161  GLU161     -0.1245
    122  CA        -6.8400  -23.4900  -11.3640 C.3   161  GLU161      0.1567
    123  C         -5.3920  -23.2990  -11.7840 C.2   161  GLU161      0.2260
    124  O         -4.7970  -22.2530  -11.5020 O.2   161  GLU161     -0.2867
    125  CB        -6.8790  -23.7710   -9.8780 C.3   161  GLU161      0.0388
    126  CG        -6.4570  -25.1810   -9.5340 C.3   161  GLU161      0.1160
    127  CD        -5.4250  -25.1990   -8.4430 C.2   161  GLU161      0.3649
    128  OE1       -4.7430  -24.1660   -8.2860 O.co2 161  GLU161     -0.2457
    129  OE2       -5.3030  -26.2350   -7.7420 O.co2 161  GLU161     -0.2457
    130  N         -8.2720  -25.4890   -5.0010 N.3   169  CYS169     -0.1235
    131  CA        -9.5900  -26.1190   -5.0130 C.3   169  CYS169      0.1677
    132  C        -10.1480  -26.1630   -3.6130 C.2   169  CYS169      0.2270
    133  O         -9.4370  -26.4950   -2.6680 O.2   169  CYS169     -0.2867
    134  CB        -9.5550  -27.5440   -5.5750 C.3   169  CYS169      0.0956
    135  SG        -8.5690  -27.7400   -7.0620 S.3   169  CYS169     -0.0801
    136  N        -12.5980  -28.3830   -1.7580 N.3   171  ALA171     -0.1245
    137  CA       -13.2410  -29.6820   -1.8590 C.3   171  ALA171      0.1562
    138  C        -14.0540  -29.9740   -0.6080 C.2   171  ALA171      0.2260
    139  O        -13.5840  -29.7530    0.5010 O.2   171  ALA171     -0.2867
    140  CB       -12.2000  -30.7310   -2.0580 C.3   171  ALA171      0.0290
    141  N         -9.3000  -39.0940    0.3800 N.3   275  PHE275     -0.1241
    142  CA       -10.2060  -39.4320   -0.7170 C.3   275  PHE275      0.1605
    143  C        -10.4260  -40.9320   -0.8020 C.2   275  PHE275      0.2264
    144  O        -10.2700  -41.5460   -1.8510 O.2   275  PHE275     -0.2867
    145  CB        -9.7070  -38.8490   -2.0410 C.3   275  PHE275      0.0534
    146  CG        -9.5940  -37.3600   -2.0200 C.ar  275  PHE275     -0.0203
    147  CD1      -10.7290  -36.5660   -2.1180 C.ar  275  PHE275     -0.0042
    148  CD2       -8.3650  -36.7470   -1.8640 C.ar  275  PHE275     -0.0042
    149  CE1      -10.6440  -35.1850   -2.0740 C.ar  275  PHE275     -0.0003
    150  CE2       -8.2680  -35.3610   -1.8180 C.ar  275  PHE275     -0.0003
    151  CZ        -9.4120  -34.5760   -1.9240 C.ar  275  PHE275     -0.0000
    152  N        -13.7850  -42.6270   -3.4070 N.3   278  GLU278     -0.1245
    153  CA       -14.4220  -41.6180   -4.2570 C.3   278  GLU278      0.1567
    154  C        -14.9450  -42.2370   -5.5730 C.2   278  GLU278      0.2260
    155  O        -14.2020  -42.8820   -6.3060 O.2   278  GLU278     -0.2867
    156  CB       -13.4440  -40.4700   -4.5460 C.3   278  GLU278      0.0388
    157  CG       -13.7930  -39.6270   -5.7500 C.3   278  GLU278      0.1160
    158  CD       -15.1210  -38.8840   -5.5920 C.2   278  GLU278      0.3649
    159  OE1      -15.3850  -38.3760   -4.4820 O.co2 278  GLU278     -0.2457
    160  OE2      -15.9050  -38.7980   -6.5710 O.co2 278  GLU278     -0.2457
    161  N        -12.9240  -41.9510   -8.7790 N.3   281  TYR281     -0.1241
    162  CA       -11.5710  -42.4710   -8.8470 C.3   281  TYR281      0.1605
    163  C        -11.5060  -43.9550   -9.1520 C.2   281  TYR281      0.2264
    164  O        -10.4210  -44.5380   -9.1630 O.2   281  TYR281     -0.2867
    165  CB       -10.8360  -42.2170   -7.5420 C.3   281  TYR281      0.0534
    166  CG       -10.4890  -40.7800   -7.3160 C.ar  281  TYR281     -0.0201
    167  CD1      -10.7980  -39.8020   -8.2670 C.ar  281  TYR281     -0.0009
    168  CD2       -9.8390  -40.3910   -6.1510 C.ar  281  TYR281     -0.0009
    169  CE1      -10.4830  -38.4670   -8.0440 C.ar  281  TYR281      0.0417
    170  CE2       -9.5120  -39.0680   -5.9210 C.ar  281  TYR281      0.0417
    171  CZ        -9.8350  -38.1090   -6.8610 C.ar  281  TYR281      0.1957
    172  OH        -9.4940  -36.8040   -6.5940 O.3   281  TYR281     -0.2866
    173  N         -5.8090  -42.1420   -1.4710 N.3   289  LEU289     -0.1245
    174  CA        -4.5070  -41.5020   -1.6780 C.3   289  LEU289      0.1561
    175  C         -3.7000  -41.5310   -0.3940 C.2   289  LEU289      0.2260
    176  O         -4.2600  -41.4290    0.7000 O.2   289  LEU289     -0.2867
    177  CB        -4.6780  -40.0550   -2.1340 C.3   289  LEU289      0.0270
    178  CG        -4.9750  -39.7490   -3.5990 C.3   289  LEU289      0.0019
    179  CD1       -5.1610  -38.2640   -3.7160 C.3   289  LEU289      0.0001
    180  CD2       -3.8420  -40.2240   -4.5070 C.3   289  LEU289      0.0001
@<TRIPOS>BOND
     1    42    41    2
     2    41    40    1
     3    40    43    1
     4    40    39    1
     5    43    44    1
     6    39    33   am
     7    31    32    1
     8    22    23    2
     9    22    21    1
    10    44    45    1
    11    33    32    1
    12    33    34    2
    13    20    21    1
    14    32    35    1
    15   118   117    2
    16    21    24    1
    17   115   116    1
    18   117   116    1
    19    45    46    1
    20    24    25    1
    21   116   119    1
    22    25    26    1
    23    35    36    1
    24     8    10   ar
    25     8     6   ar
    26     2     3    1
    27     2     1    1
    28     2     5    1
    29    26    27    1
    30     3     4    2
    31    46    47    2
    32    27    28    2
    33    10     9   ar
    34    37    36    2
    35    36    38   am
    36   121   122    1
    37   119   120    1
    38     6     5    1
    39     6     7   ar
    40   123   124    2
    41   123   122    1
    42    48    47    1
    43    47    49    1
    44   122   125    1
    45    28    30    1
    46    28    29    1
    47     9     7   ar
    48    91    89   ar
    49   125   126    1
    50   126   127    1
    51    89    90   ar
    52    89    88    1
    53    11    12    1
    54    58    59   ar
    55    58    56   ar
    56   164   163    2
    57   163   162    1
    58   162   161    1
    59   162   165    1
    60    59    57   ar
    61   127   128   ar
    62   127   129   ar
    63   114   113    1
    64    19    17   ar
    65    14    13    2
    66    56    55   ar
    67   167   169   ar
    68   167   166   ar
    69    16    17    1
    70    16    15    1
    71    88    87    1
    72    17    18   ar
    73    12    15    1
    74    12    13    1
    75   169   171   ar
    76   111   113   ar
    77   111   109   ar
    78    87    84    1
    79   113   112   ar
    80   165   166    1
    81   166   168   ar
    82    57    55   ar
    83    55    54    1
    84   135   134    1
    85   109   108   ar
    86   171   172    1
    87   171   170   ar
    88    86    85    2
    89   160   158   ar
    90   106   105    2
    91   112   110   ar
    92   155   154    2
    93    84    85    1
    94    84    83    1
    95   168   170   ar
    96   108   110   ar
    97   108   107    1
    98    54    51    1
    99   157   158    1
   100   157   156    1
   101    51    50    1
   102    51    52    1
   103   158   159   ar
   104   134   131    1
   105   154   153    1
   106   105   104    1
   107    63    62    2
   108   131   130    1
   109   131   132    1
   110   107   104    1
   111    60    52   am
   112    60    61    1
   113    66    65    2
   114    52    53    2
   115   156   153    1
   116   180   178    1
   117   104   103    1
   118    81    79    1
   119   153   152    1
   120    64    61    1
   121    64    65    1
   122    62    61    1
   123    62    68   am
   124    78    77    2
   125    65    67   am
   126   179   178    1
   127   132   133    2
   128   178   177    1
   129    79    80    1
   130    79    76    1
   131    77    76    1
   132    82    80    1
   133    69    68    1
   134    69    72    1
   135    69    70    1
   136    73    72    1
   137    76    75    1
   138    72    74    1
   139   101    99   ar
   140   101   102   ar
   141    70    71    2
   142   177   174    1
   143   147   149   ar
   144   147   146   ar
   145   149   151   ar
   146   140   137    1
   147   145   146    1
   148   145   142    1
   149   146   148   ar
   150   151   150   ar
   151   148   150   ar
   152   137   136    1
   153   137   138    1
   154   144   143    2
   155    99    97   ar
   156   174   173    1
   157   174   175    1
   158   102   100   ar
   159    95    94    2
   160   143   142    1
   161   142   141    1
   162   138   139    2
   163    97    96    1
   164    97    98   ar
   165   175   176    2
   166   100    98   ar
   167    94    93    1
   168    96    93    1
   169    93    92    1
