@<TRIPOS>MOLECULE
tmp/3nh9A00.pdb
 116 111 0 0 0
SMALL
GASTEIGER

@<TRIPOS>ATOM
      1  N        -12.1810  -33.3360   16.1700 N.3    44  TYR44      -0.1227
      2  CA       -13.2730  -33.0290   17.0830 C.3    44  TYR44       0.1736
      3  C        -13.6370  -34.2530   17.9290 C.2    44  TYR44       0.2595
      4  O        -13.5940  -34.1930   19.1480 O.2    44  TYR44      -0.2718
      5  CB       -14.5100  -32.5350   16.3450 C.3    44  TYR44       0.0548
      6  CG       -14.4450  -31.1040   15.9350 C.ar   44  TYR44      -0.0200
      7  CD1      -14.5170  -30.0840   16.8880 C.ar   44  TYR44      -0.0009
      8  CD2      -14.3030  -30.7600   14.5970 C.ar   44  TYR44      -0.0009
      9  CE1      -14.4650  -28.7210   16.5170 C.ar   44  TYR44       0.0417
     10  CE2      -14.2410  -29.4330   14.1990 C.ar   44  TYR44       0.0417
     11  CZ       -14.3170  -28.3960   15.1630 C.ar   44  TYR44       0.1957
     12  OH       -14.2620  -27.0530   14.7530 O.3    44  TYR44      -0.2866
     13  N        -14.0070  -35.3600   17.3150 N.am   45  ALA45      -0.1980
     14  CA       -14.5960  -36.4180   18.1600 C.3    45  ALA45       0.1597
     15  C        -13.8040  -37.7180   18.1590 C.2    45  ALA45       0.2287
     16  O        -14.3680  -38.7860   18.4690 O.2    45  ALA45      -0.2864
     17  CB       -16.0940  -36.6550   17.8340 C.3    45  ALA45       0.0319
     18  N        -11.7630  -38.9290   13.2580 N.3    48  ARG48      -0.1245
     19  CA       -11.2530  -38.4770   11.9550 C.3    48  ARG48       0.1563
     20  C        -10.6730  -37.0600   11.9870 C.2    48  ARG48       0.2260
     21  O        -11.1570  -36.1780   12.7070 O.2    48  ARG48      -0.2867
     22  CB       -12.3840  -38.4670   10.9350 C.3    48  ARG48       0.0307
     23  CG       -13.6430  -37.7610   11.4710 C.3    48  ARG48       0.0489
     24  CD       -14.7120  -37.6030   10.4140 C.3    48  ARG48       0.2205
     25  NE       -14.7180  -36.2390    9.8850 N.pl3  48  ARG48      -0.0865
     26  CZ       -15.4710  -35.8470    8.8570 C.cat  48  ARG48       0.5346
     27  NH1      -15.4320  -34.5780    8.4400 N.pl3  48  ARG48       0.1354
     28  NH2      -16.2670  -36.7280    8.2470 N.pl3  48  ARG48       0.1354
     29  N         -9.8370  -33.5120   11.3430 N.3    50  THR50      -0.1218
     30  CA       -10.4680  -32.3340   10.8170 C.3    50  THR50       0.1862
     31  C         -9.4220  -31.3430   10.3210 C.2    50  THR50       0.2287
     32  O         -9.6550  -30.6470    9.3350 O.2    50  THR50      -0.2866
     33  CB       -11.5900  -31.8140   11.7700 C.3    50  THR50       0.1770
     34  OG1      -11.6740  -30.3790   11.7820 O.3    50  THR50      -0.2211
     35  CG2      -11.3850  -32.3360   13.1400 C.3    50  THR50       0.0375
     36  N        -16.8700  -26.5520    1.7120 N.3    70  SER70      -0.1202
     37  CA       -17.5240  -26.8980    2.9630 C.3    70  SER70       0.2020
     38  C        -16.7590  -27.9850    3.6960 C.2    70  SER70       0.2619
     39  O        -16.0770  -28.8120    3.0720 O.2    70  SER70      -0.2717
     40  CB       -18.9710  -27.3390    2.6890 C.3    70  SER70       0.2103
     41  OG       -19.7750  -26.2070    2.4020 O.3    70  SER70      -0.2182
     42  N        -16.8060  -27.9080    5.0180 N.am   71  GLY71      -0.1942
     43  CA       -16.2080  -28.8900    5.8930 C.3    71  GLY71       0.2014
     44  C        -14.6850  -28.9560    5.8990 C.2    71  GLY71       0.2639
     45  O        -14.1160  -29.9500    6.3260 O.2    71  GLY71      -0.2714
     46  N        -14.0280  -27.8920    5.4690 N.am   72  ALA72      -0.1963
     47  CA       -12.5900  -27.9450    5.2700 C.3    72  ALA72       0.1728
     48  C        -11.7580  -27.7960    6.5500 C.2    72  ALA72       0.2617
     49  O        -10.6380  -28.3540    6.6170 O.2    72  ALA72      -0.2715
     50  CB       -12.1830  -26.9560    4.1970 C.3    72  ALA72       0.0334
     51  N        -12.3340  -27.1380    7.5800 N.am   73  GLY73      -0.1940
     52  CA       -11.6280  -26.8370    8.8310 C.3    73  GLY73       0.2014
     53  C        -11.3750  -25.3280    9.0310 C.2    73  GLY73       0.2639
     54  O        -10.5590  -24.9090    9.8790 O.2    73  GLY73      -0.2714
     55  N        -12.0500  -24.4790    8.2510 N.am   74  LYS74      -0.1963
     56  CA       -11.7290  -23.0110    8.3390 C.3    74  LYS74       0.1728
     57  C        -12.0860  -22.3890    9.6750 C.2    74  LYS74       0.2617
     58  O        -11.2470  -21.7880   10.3310 O.2    74  LYS74      -0.2715
     59  CB       -12.3850  -22.2750    7.1890 C.3    74  LYS74       0.0311
     60  CG       -11.9420  -22.8130    5.8320 C.3    74  LYS74       0.0038
     61  CD       -12.7610  -22.1950    4.7330 C.3    74  LYS74       0.0206
     62  CE       -13.3420  -23.2210    3.7580 C.3    74  LYS74       0.1093
     63  NZ       -14.6650  -23.7090    4.2100 N.3    74  LYS74      -0.1314
     64  N        -13.3420  -22.5080   10.0640 N.am   75  SER75      -0.1936
     65  CA       -13.8060  -22.0800   11.3800 C.3    75  SER75       0.2055
     66  C        -13.0980  -22.8120   12.4840 C.2    75  SER75       0.2643
     67  O        -12.8870  -22.2340   13.5130 O.2    75  SER75      -0.2714
     68  CB       -15.3200  -22.3450   11.5490 C.3    75  SER75       0.2130
     69  OG       -16.0460  -21.5380   10.6630 O.3    75  SER75      -0.2179
     70  N        -12.8440  -24.1110   12.3080 N.am   76  THR76      -0.1950
     71  CA       -11.9750  -24.8590   13.2180 C.3    76  THR76       0.1897
     72  C        -10.6640  -24.1040   13.5360 C.2    76  THR76       0.2313
     73  O        -10.2610  -23.9870   14.6950 O.2    76  THR76      -0.2863
     74  CB       -11.7020  -26.2820   12.6460 C.3    76  THR76       0.1794
     75  OG1      -12.9490  -26.9640   12.5120 O.3    76  THR76      -0.2208
     76  CG2      -10.8140  -27.1170   13.5720 C.3    76  THR76       0.0378
     77  N        -11.4670  -21.5160   16.0430 N.3    79  ARG79      -0.1245
     78  CA       -11.8540  -22.0380   17.3430 C.3    79  ARG79       0.1563
     79  C        -10.6020  -22.4950   18.0500 C.2    79  ARG79       0.2260
     80  O        -10.5130  -22.4500   19.3010 O.2    79  ARG79      -0.2867
     81  CB       -12.8500  -23.2020   17.2140 C.3    79  ARG79       0.0307
     82  CG       -14.1590  -22.7240   16.5330 C.3    79  ARG79       0.0489
     83  CD       -15.3500  -23.6450   16.7110 C.3    79  ARG79       0.2205
     84  NE       -15.5060  -24.5120   15.5710 N.pl3  79  ARG79      -0.0865
     85  CZ       -16.3400  -24.3310   14.5460 C.cat  79  ARG79       0.5346
     86  NH1      -17.1910  -23.3260   14.4870 N.pl3  79  ARG79       0.1354
     87  NH2      -16.3350  -25.2210   13.5820 N.pl3  79  ARG79       0.1354
     88  N        -10.6700  -25.6970   21.8500 N.3    85  TYR85      -0.1241
     89  CA       -10.2040  -27.0810   22.0770 C.3    85  TYR85       0.1605
     90  C         -8.6920  -27.1090   22.1380 C.2    85  TYR85       0.2264
     91  O         -8.0530  -26.1880   21.6860 O.2    85  TYR85      -0.2867
     92  CB       -10.6690  -28.0400   20.9740 C.3    85  TYR85       0.0534
     93  CG       -12.1250  -27.9530   20.6700 C.ar   85  TYR85      -0.0201
     94  CD1      -13.0190  -28.7950   21.2900 C.ar   85  TYR85      -0.0009
     95  CD2      -12.6130  -27.0140   19.7740 C.ar   85  TYR85      -0.0009
     96  CE1      -14.3700  -28.7060   21.0360 C.ar   85  TYR85       0.0417
     97  CE2      -13.9660  -26.9180   19.5190 C.ar   85  TYR85       0.0417
     98  CZ       -14.8260  -27.7800   20.1550 C.ar   85  TYR85       0.1957
     99  OH       -16.1660  -27.7110   19.9370 O.3    85  TYR85      -0.2866
    100  N        -12.5280  -16.1840    7.8810 N.3   226  VAL226     -0.1245
    101  CA       -13.2000  -17.2560    7.1270 C.3   226  VAL226      0.1561
    102  C        -14.0520  -16.4720    6.1260 C.2   226  VAL226      0.2260
    103  O        -15.1310  -15.9690    6.4530 O.2   226  VAL226     -0.2867
    104  CB       -14.0790  -18.1810    8.0270 C.3   226  VAL226      0.0252
    105  CG1      -14.7850  -19.2580    7.1720 C.3   226  VAL226      0.0019
    106  CG2      -13.2230  -18.8210    9.1600 C.3   226  VAL226      0.0019
    107  N        -16.1990  -15.2560    2.8080 N.3   228  HIS228     -0.1241
    108  CA       -17.1690  -15.6060    1.7700 C.3   228  HIS228      0.1621
    109  C        -17.1790  -14.6290    0.6300 C.2   228  HIS228      0.2264
    110  O        -17.5170  -14.9900   -0.5330 O.2   228  HIS228     -0.2867
    111  CB       -18.5460  -15.8380    2.3670 C.3   228  HIS228      0.0745
    112  CG       -18.5910  -17.0330    3.2580 C.ar  228  HIS228      0.0817
    113  ND1      -18.9420  -18.2930    2.7990 N.ar  228  HIS228     -0.2268
    114  CD2      -18.2970  -17.1740    4.5780 C.ar  228  HIS228      0.1154
    115  CE1      -18.8720  -19.1480    3.8060 C.ar  228  HIS228      0.1986
    116  NE2      -18.4720  -18.4990    4.8850 N.ar  228  HIS228     -0.2212
@<TRIPOS>BOND
     1   110   109    2
     2   109   108    1
     3    36    37    1
     4   108   111    1
     5   108   107    1
     6   111   112    1
     7    41    40    1
     8    40    37    1
     9   113   112   ar
    10   113   115   ar
    11    37    38    1
    12    39    38    2
    13   112   114   ar
    14    38    42   am
    15    62    63    1
    16    62    61    1
    17   115   116   ar
    18    50    47    1
    19   114   116   ar
    20    61    60    1
    21    42    43    1
    22    47    46    1
    23    47    48    1
    24    46    44   am
    25    60    59    1
    26    43    44    1
    27    44    45    2
    28   102   103    2
    29   102   101    1
    30    48    49    2
    31    48    51   am
    32   101   100    1
    33   101   104    1
    34   105   104    1
    35    59    56    1
    36    51    52    1
    37   104   106    1
    38    28    26    1
    39    55    56    1
    40    55    53   am
    41    56    57    1
    42    27    26    1
    43    52    53    1
    44    26    25    2
    45    53    54    2
    46    32    31    2
    47    57    64   am
    48    57    58    2
    49    25    24    1
    50    64    65    1
    51    31    30    1
    52    24    23    1
    53    69    68    1
    54    30    29    1
    55    30    33    1
    56    22    23    1
    57    22    19    1
    58    65    68    1
    59    65    66    1
    60    33    34    1
    61    33    35    1
    62    19    20    1
    63    19    18    1
    64    20    21    2
    65    70    66   am
    66    70    71    1
    67    66    67    2
    68    75    74    1
    69    74    71    1
    70    74    76    1
    71    71    72    1
    72    72    73    2
    73    87    85    1
    74    10     8   ar
    75    10    11   ar
    76    86    85    1
    77    85    84    2
    78     8     6   ar
    79    12    11    1
    80    11     9   ar
    81    84    83    1
    82     6     5    1
    83     6     7   ar
    84    77    78    1
    85     1     2    1
    86     5     2    1
    87     9     7   ar
    88    82    83    1
    89    82    81    1
    90     2     3    1
    91    81    78    1
    92    13     3   am
    93    13    14    1
    94    78    79    1
    95    17    14    1
    96     3     4    2
    97    79    80    2
    98    15    14    1
    99    15    16    2
   100    97    95   ar
   101    97    98   ar
   102    95    93   ar
   103    99    98    1
   104    98    96   ar
   105    93    92    1
   106    93    94   ar
   107    92    89    1
   108    96    94   ar
   109    91    90    2
   110    88    89    1
   111    89    90    1
