@<TRIPOS>MOLECULE
tmp/3nhaA00.pdb
 106 101 0 0 0
SMALL
GASTEIGER

@<TRIPOS>ATOM
      1  N         21.2140   -8.6160  -21.5560 N.3    50  TYR50      -0.1227
      2  CA        22.4250   -7.8670  -21.8510 C.3    50  TYR50       0.1736
      3  C         22.7710   -7.9800  -23.3370 C.2    50  TYR50       0.2595
      4  O         22.9770   -6.9620  -23.9760 O.2    50  TYR50      -0.2718
      5  CB        23.6170   -8.3660  -21.0600 C.3    50  TYR50       0.0548
      6  CG        23.5050   -8.1290  -19.5930 C.ar   50  TYR50      -0.0200
      7  CD1       23.8290   -6.8930  -19.0340 C.ar   50  TYR50      -0.0009
      8  CD2       23.1070   -9.1480  -18.7460 C.ar   50  TYR50      -0.0009
      9  CE1       23.7320   -6.6740  -17.6420 C.ar   50  TYR50       0.0417
     10  CE2       22.9920   -8.9320  -17.3690 C.ar   50  TYR50       0.0417
     11  CZ        23.2960   -7.6930  -16.8350 C.ar   50  TYR50       0.1957
     12  OH        23.2050   -7.5270  -15.4760 O.3    50  TYR50      -0.2866
     13  N         22.8100   -9.2110  -23.8640 N.am   51  ALA51      -0.1980
     14  CA        23.2740   -9.4870  -25.2480 C.3    51  ALA51       0.1597
     15  C         22.3500  -10.3610  -26.1310 C.2    51  ALA51       0.2287
     16  O         21.2200  -10.6810  -25.7350 O.2    51  ALA51      -0.2864
     17  CB        24.7070  -10.0590  -25.2270 C.3    51  ALA51       0.0319
     18  N         21.0340  -15.3610  -25.3820 N.3    53  ARG53      -0.1245
     19  CA        20.3970  -15.7320  -24.1190 C.3    53  ARG53       0.1563
     20  C         19.6350  -14.5460  -23.5220 C.2    53  ARG53       0.2260
     21  O         20.1440  -13.4070  -23.4570 O.2    53  ARG53      -0.2867
     22  CB        21.4370  -16.2680  -23.1130 C.3    53  ARG53       0.0307
     23  CG        20.8340  -17.0730  -21.9360 C.3    53  ARG53       0.0489
     24  CD        21.9010  -17.6880  -21.0080 C.3    53  ARG53       0.2205
     25  NE        22.6640  -16.7010  -20.2280 N.pl3  53  ARG53      -0.0865
     26  CZ        22.2140  -16.0580  -19.1450 C.cat  53  ARG53       0.5346
     27  NH1       20.9800  -16.2790  -18.6900 N.pl3  53  ARG53       0.1354
     28  NH2       23.0100  -15.2070  -18.4900 N.pl3  53  ARG53       0.1354
     29  N         18.7040  -12.8640  -20.2890 N.3    55  THR55      -0.1218
     30  CA        19.2930  -12.9480  -18.9620 C.3    55  THR55       0.1862
     31  C         18.2180  -13.2700  -17.9280 C.2    55  THR55       0.2287
     32  O         18.4750  -14.0510  -16.9920 O.2    55  THR55      -0.2866
     33  CB        19.9460  -11.6260  -18.5730 C.3    55  THR55       0.1770
     34  OG1       20.7070  -11.1490  -19.6870 O.3    55  THR55      -0.2211
     35  CG2       20.8170  -11.7860  -17.3350 C.3    55  THR55       0.0375
     36  N         25.5930  -19.2600   -9.6020 N.3    75  SER75      -0.1202
     37  CA        26.2220  -18.1130  -10.2180 C.3    75  SER75       0.2020
     38  C         25.7100  -17.9300  -11.6330 C.2    75  SER75       0.2619
     39  O         25.5990  -18.9050  -12.3840 O.2    75  SER75      -0.2717
     40  CB        27.7340  -18.3070  -10.3090 C.3    75  SER75       0.2103
     41  OG        28.2780  -18.9990   -9.1920 O.3    75  SER75      -0.2182
     42  N         25.4590  -16.6740  -12.0090 N.am   76  GLY76      -0.1942
     43  CA        25.0190  -16.3670  -13.3570 C.3    76  GLY76       0.2014
     44  C         23.5240  -16.4940  -13.5770 C.2    76  GLY76       0.2639
     45  O         23.0480  -16.3070  -14.6920 O.2    76  GLY76      -0.2714
     46  N         22.7850  -16.8210  -12.5220 N.am   77  ALA77      -0.1963
     47  CA        21.3550  -17.0470  -12.6390 C.3    77  ALA77       0.1728
     48  C         20.5890  -15.7740  -12.9410 C.2    77  ALA77       0.2617
     49  O         19.5520  -15.8140  -13.5930 O.2    77  ALA77      -0.2715
     50  CB        20.8080  -17.7060  -11.3470 C.3    77  ALA77       0.0334
     51  N         21.0940  -14.6440  -12.4580 N.am   78  GLY78      -0.1940
     52  CA        20.4890  -13.3660  -12.7300 C.3    78  GLY78       0.2014
     53  C         20.0480  -12.6330  -11.4960 C.2    78  GLY78       0.2639
     54  O         19.2750  -11.6760  -11.5830 O.2    78  GLY78      -0.2714
     55  N         20.5340  -13.0750  -10.3260 N.am   79  LYS79      -0.1963
     56  CA        20.2200  -12.4130   -9.0560 C.3    79  LYS79       0.1728
     57  C         20.5890  -10.9260   -9.0170 C.2    79  LYS79       0.2617
     58  O         19.7320  -10.0950   -8.6930 O.2    79  LYS79      -0.2715
     59  CB        20.8430  -13.1700   -7.8550 C.3    79  LYS79       0.0311
     60  CG        20.5900  -14.7760   -7.8950 C.3    79  LYS79       0.0038
     61  CD        21.1440  -15.4980   -6.6580 C.3    79  LYS79       0.0206
     62  CE        22.6780  -15.3820   -6.6080 C.3    79  LYS79       0.1093
     63  NZ        23.2850  -16.1470   -7.7250 N.3    79  LYS79      -0.1314
     64  N         21.8490  -10.6080   -9.3400 N.am   80  SER80      -0.1936
     65  CA        22.3640   -9.2390   -9.2160 C.3    80  SER80       0.2055
     66  C         21.7020   -8.3570  -10.2160 C.2    80  SER80       0.2643
     67  O         21.5510   -7.1800   -9.9770 O.2    80  SER80      -0.2714
     68  CB        23.8950   -9.1550   -9.5080 C.3    80  SER80       0.2130
     69  OG        24.5900  -10.0240   -8.6450 O.3    80  SER80      -0.2179
     70  N         21.4060   -8.9160  -11.3780 N.am   81  THR81      -0.1950
     71  CA        20.6650   -8.2450  -12.4230 C.3    81  THR81       0.1897
     72  C         19.3150   -7.7290  -11.9210 C.2    81  THR81       0.2313
     73  O         18.9020   -6.6180  -12.2420 O.2    81  THR81      -0.2863
     74  CB        20.4810   -9.1790  -13.6390 C.3    81  THR81       0.1794
     75  OG1       21.7880   -9.5940  -14.1030 O.3    81  THR81      -0.2208
     76  CG2       19.6950   -8.4750  -14.7510 C.3    81  THR81       0.0378
     77  N         19.8420   -4.5250  -10.1390 N.3    84  ARG84      -0.1245
     78  CA        20.1800   -3.5350  -11.1550 C.3    84  ARG84       0.1563
     79  C         18.9870   -2.9600  -11.8660 C.2    84  ARG84       0.2260
     80  O         18.9400   -1.7410  -12.1000 O.2    84  ARG84      -0.2867
     81  CB        21.1970   -4.0840  -12.1900 C.3    84  ARG84       0.0307
     82  CG        22.5600   -4.3920  -11.5220 C.3    84  ARG84       0.0489
     83  CD        23.5750   -4.8130  -12.5880 C.3    84  ARG84       0.2205
     84  NE        24.8030   -5.3240  -11.9900 N.pl3  84  ARG84      -0.0865
     85  CZ        25.3160   -6.5510  -12.1310 C.cat  84  ARG84       0.5346
     86  NH1       24.7410   -7.4790  -12.8930 N.pl3  84  ARG84       0.1354
     87  NH2       26.4680   -6.8410  -11.5120 N.pl3  84  ARG84       0.1354
     88  N         19.5780   -0.4780  -15.9910 N.3    90  TYR90      -0.1241
     89  CA        19.1730   -0.8070  -17.3700 C.3    90  TYR90       0.1605
     90  C         17.6490   -0.7960  -17.5010 C.2    90  TYR90       0.2264
     91  O         16.9400   -0.8950  -16.5050 O.2    90  TYR90      -0.2867
     92  CB        19.6790   -2.1940  -17.8250 C.3    90  TYR90       0.0534
     93  CG        21.1290   -2.5160  -17.4840 C.ar   90  TYR90      -0.0201
     94  CD1       22.1690   -2.0930  -18.3000 C.ar   90  TYR90      -0.0009
     95  CD2       21.4470   -3.2910  -16.3420 C.ar   90  TYR90      -0.0009
     96  CE1       23.4970   -2.4110  -17.9840 C.ar   90  TYR90       0.0417
     97  CE2       22.7710   -3.5950  -16.0190 C.ar   90  TYR90       0.0417
     98  CZ        23.7770   -3.1610  -16.8290 C.ar   90  TYR90       0.1957
     99  OH        25.0950   -3.4820  -16.5010 O.3    90  TYR90      -0.2866
    100  N         20.5940  -10.1950   -2.5330 N.3   231  VAL231     -0.1245
    101  CA        21.2390  -11.3280   -3.1760 C.3   231  VAL231      0.1561
    102  C         21.9440  -12.0330   -2.0190 C.2   231  VAL231      0.2260
    103  O         22.9520  -11.5600   -1.5210 O.2   231  VAL231     -0.2867
    104  CB        22.2530  -10.8760   -4.2450 C.3   231  VAL231      0.0252
    105  CG1       23.0040  -12.0680   -4.8280 C.3   231  VAL231      0.0019
    106  CG2       21.5130  -10.0760   -5.3840 C.3   231  VAL231      0.0019
@<TRIPOS>BOND
     1    15    16    2
     2    15    14    1
     3    18    19    1
     4    14    17    1
     5    14    13    1
     6    19    20    1
     7    19    22    1
     8     4     3    2
     9    13     3   am
    10    20    21    2
    11     3     2    1
    12    22    23    1
    13    23    24    1
    14     2     1    1
    15     2     5    1
    16     5     6    1
    17    24    25    1
    18    29    30    1
    19    25    26    2
    20    34    33    1
    21     6     7   ar
    22     6     8   ar
    23    26    27    1
    24    26    28    1
    25     7     9   ar
    26    30    33    1
    27    30    31    1
    28     8    10   ar
    29    33    35    1
    30    94    96   ar
    31    94    93   ar
    32    96    98   ar
    33    31    32    2
    34    92    93    1
    35    92    89    1
    36     9    11   ar
    37    90    89    1
    38    90    91    2
    39    93    95   ar
    40    89    88    1
    41    10    11   ar
    42    11    12    1
    43    98    99    1
    44    98    97   ar
    45    95    97   ar
    46    76    74    1
    47    45    44    2
    48    75    74    1
    49    74    71    1
    50    49    48    2
    51    44    43    1
    52    44    46   am
    53    43    42    1
    54    48    47    1
    55    48    51   am
    56    86    85    1
    57    52    51    1
    58    52    53    1
    59    47    46    1
    60    47    50    1
    61    83    84    1
    62    83    82    1
    63    71    72    1
    64    71    70    1
    65    39    38    2
    66    73    72    2
    67    81    82    1
    68    81    78    1
    69    85    84    2
    70    85    87    1
    71    80    79    2
    72    42    38   am
    73    79    78    1
    74    38    37    1
    75    54    53    2
    76    53    55   am
    77    70    66   am
    78    78    77    1
    79    55    56    1
    80    40    37    1
    81    40    41    1
    82    37    36    1
    83    66    67    2
    84    66    65    1
    85    68    65    1
    86    68    69    1
    87    64    65    1
    88    64    57   am
    89    56    57    1
    90    56    59    1
    91    57    58    2
    92    60    59    1
    93    60    61    1
    94    63    62    1
    95    61    62    1
    96   106   104    1
    97   105   104    1
    98   104   101    1
    99   101   100    1
   100   101   102    1
   101   102   103    2
