@<TRIPOS>MOLECULE
tmp/3nhiA00.pdb
 252 248 0 0 0
SMALL
GASTEIGER

@<TRIPOS>ATOM
      1  N          0.5830   -3.2180   16.1200 N.3    12  LEU12      -0.1245
      2  CA         0.8310   -2.3960   17.3070 C.3    12  LEU12       0.1561
      3  C          1.5200   -1.0870   16.9330 C.2    12  LEU12       0.2260
      4  O          1.2020   -0.0200   17.4850 O.2    12  LEU12      -0.2867
      5  CB         1.6570   -3.1650   18.3400 C.3    12  LEU12       0.0270
      6  CG         1.6410   -2.5580   19.7500 C.3    12  LEU12       0.0019
      7  CD1        0.2470   -2.5960   20.3830 C.3    12  LEU12       0.0001
      8  CD2        2.6370   -3.2670   20.6470 C.3    12  LEU12       0.0001
      9  N         -1.1530    1.2480   15.5910 N.3    15  TYR15      -0.1241
     10  CA        -1.9830    1.8210   16.6520 C.3    15  TYR15       0.1605
     11  C         -1.2260    2.9060   17.4180 C.2    15  TYR15       0.2264
     12  O         -1.7480    4.0070   17.6140 O.2    15  TYR15      -0.2867
     13  CB        -2.5050    0.7470   17.6200 C.3    15  TYR15       0.0534
     14  CG        -3.2930   -0.3700   16.9480 C.ar   15  TYR15      -0.0201
     15  CD1       -4.3000   -0.0860   16.0180 C.ar   15  TYR15      -0.0009
     16  CD2       -3.0370   -1.7040   17.2510 C.ar   15  TYR15      -0.0009
     17  CE1       -5.0160   -1.1000   15.3980 C.ar   15  TYR15       0.0417
     18  CE2       -3.7520   -2.7340   16.6310 C.ar   15  TYR15       0.0417
     19  CZ        -4.7410   -2.4160   15.7140 C.ar   15  TYR15       0.1957
     20  OH        -5.4540   -3.4010   15.0800 O.3    15  TYR15      -0.2866
     21  N         -1.9090    6.9430   17.6000 N.3    19  TYR19      -0.1241
     22  CA        -2.1260    7.6410   18.8720 C.3    19  TYR19       0.1605
     23  C         -1.1880    8.8420   18.9800 C.2    19  TYR19       0.2264
     24  O         -1.6130    9.9450   19.3160 O.2    19  TYR19      -0.2867
     25  CB        -1.8920    6.7110   20.0690 C.3    19  TYR19       0.0534
     26  CG        -3.0700    5.8810   20.5420 C.ar   19  TYR19      -0.0201
     27  CD1       -3.6600    6.1250   21.7810 C.ar   19  TYR19      -0.0009
     28  CD2       -3.5510    4.8140   19.7850 C.ar   19  TYR19      -0.0009
     29  CE1       -4.7180    5.3500   22.2420 C.ar   19  TYR19       0.0417
     30  CE2       -4.6100    4.0280   20.2400 C.ar   19  TYR19       0.0417
     31  CZ        -5.1850    4.3080   21.4650 C.ar   19  TYR19       0.1957
     32  OH        -6.2280    3.5350   21.9050 O.3    19  TYR19      -0.2866
     33  N        -10.8010    5.4820   22.6440 N.3    36  TRP36      -0.1227
     34  CA       -10.0960    4.7480   21.5970 C.3    36  TRP36       0.1737
     35  C         -9.5240    3.4230   22.1050 C.2    36  TRP36       0.2595
     36  O         -9.5230    2.4380   21.3700 O.2    36  TRP36      -0.2718
     37  CB        -8.9930    5.5990   20.9510 C.3    36  TRP36       0.0564
     38  CG        -9.4660    6.8780   20.3150 C.ar   36  TRP36       0.0003
     39  CD1      -10.7600    7.2630   20.0710 C.ar   36  TRP36       0.0946
     40  CD2       -8.6330    7.9330   19.8200 C.ar   36  TRP36       0.0152
     41  NE1      -10.7780    8.5010   19.4680 N.ar   36  TRP36      -0.2442
     42  CE2       -9.4880    8.9340   19.3050 C.ar   36  TRP36       0.0810
     43  CE3       -7.2450    8.1350   19.7750 C.ar   36  TRP36       0.0012
     44  CZ2       -9.0010   10.1160   18.7400 C.ar   36  TRP36       0.0191
     45  CZ3       -6.7590    9.3150   19.2150 C.ar   36  TRP36       0.0001
     46  CH2       -7.6360   10.2900   18.7090 C.ar   36  TRP36       0.0015
     47  N         -9.0310    3.4030   23.3460 N.am   37  ASN37      -0.1974
     48  CA        -8.5450    2.1680   23.9680 C.3    37  ASN37       0.1688
     49  C         -9.6400    1.1070   24.0110 C.2    37  ASN37       0.2292
     50  O         -9.3590   -0.0910   23.9130 O.2    37  ASN37      -0.2864
     51  CB        -8.0440    2.4200   25.3970 C.3    37  ASN37       0.1181
     52  CG        -6.6390    3.0050   25.4520 C.2    37  ASN37       0.2629
     53  OD1       -5.9750    3.1880   24.4320 O.2    37  ASN37      -0.2716
     54  ND2       -6.1770    3.2940   26.6640 N.am   37  ASN37      -0.0877
     55  N        -11.8210    0.8170   21.7490 N.3    39  TRP39      -0.1227
     56  CA       -12.2030    0.6260   20.3420 C.3    39  TRP39       0.1737
     57  C        -13.5620    1.2610   20.0100 C.2    39  TRP39       0.2595
     58  O        -14.3670    0.7160   19.2510 O.2    39  TRP39      -0.2718
     59  CB       -12.1070   -0.8560   19.9290 C.3    39  TRP39       0.0564
     60  CG       -10.6860   -1.2910   19.6740 C.ar   39  TRP39       0.0003
     61  CD1       -9.6750   -1.3820   20.5910 C.ar   39  TRP39       0.0946
     62  CD2      -10.1290   -1.6880   18.4190 C.ar   39  TRP39       0.0152
     63  NE1       -8.5190   -1.8150   19.9810 N.ar   39  TRP39      -0.2442
     64  CE2       -8.7680   -2.0090   18.6450 C.ar   39  TRP39       0.0810
     65  CE3      -10.6460   -1.8020   17.1200 C.ar   39  TRP39       0.0012
     66  CZ2       -7.9170   -2.4420   17.6150 C.ar   39  TRP39       0.0191
     67  CZ3       -9.7980   -2.2350   16.0920 C.ar   39  TRP39       0.0001
     68  CH2       -8.4480   -2.5460   16.3500 C.ar   39  TRP39       0.0015
     69  N        -13.7950    2.4210   20.6120 N.am   40  ARG40      -0.1966
     70  CA       -14.9650    3.2220   20.3000 C.3    40  ARG40       0.1729
     71  C        -14.5210    4.3780   19.4210 C.2    40  ARG40       0.2616
     72  O        -13.6220    5.1360   19.7900 O.2    40  ARG40      -0.2715
     73  CB       -15.6230    3.7270   21.5820 C.3    40  ARG40       0.0348
     74  CG       -16.2630    2.6100   22.3980 C.3    40  ARG40       0.0492
     75  CD       -16.7450    3.1020   23.7500 C.3    40  ARG40       0.2205
     76  NE       -17.8910    3.9980   23.6200 N.pl3  40  ARG40      -0.0865
     77  CZ       -18.5110    4.5850   24.6400 C.cat  40  ARG40       0.5346
     78  NH1      -18.1010    4.3820   25.8890 N.pl3  40  ARG40       0.1354
     79  NH2      -19.5450    5.3830   24.4060 N.pl3  40  ARG40       0.1354
     80  N        -15.1370    4.4940   18.2480 N.am   41  LEU41      -0.1977
     81  CA       -14.8120    5.5800   17.3210 C.3    41  LEU41       0.1596
     82  C        -15.5920    6.8410   17.6840 C.2    41  LEU41       0.2287
     83  O        -16.4570    7.3130   16.9400 O.2    41  LEU41      -0.2864
     84  CB       -15.0230    5.1520   15.8650 C.3    41  LEU41       0.0297
     85  CG       -14.0090    4.1580   15.2920 C.3    41  LEU41       0.0022
     86  CD1      -14.3830    3.8060   13.8590 C.3    41  LEU41       0.0001
     87  CD2      -12.6040    4.7370   15.3500 C.3    41  LEU41       0.0001
     88  N         -7.8900   10.1780   13.2640 N.3    51  TYR51      -0.1227
     89  CA        -7.3620    8.9860   13.9110 C.3    51  TYR51       0.1736
     90  C         -7.8270    7.7190   13.1810 C.2    51  TYR51       0.2595
     91  O         -7.0180    6.8370   12.8690 O.2    51  TYR51      -0.2718
     92  CB        -7.7380    8.9430   15.3960 C.3    51  TYR51       0.0548
     93  CG        -7.3520    7.6440   16.0530 C.ar   51  TYR51      -0.0200
     94  CD1       -6.0160    7.3520   16.3260 C.ar   51  TYR51      -0.0009
     95  CD2       -8.3270    6.7170   16.4170 C.ar   51  TYR51      -0.0009
     96  CE1       -5.6580    6.1530   16.9380 C.ar   51  TYR51       0.0417
     97  CE2       -7.9840    5.5200   17.0180 C.ar   51  TYR51       0.0417
     98  CZ        -6.6560    5.2460   17.2680 C.ar   51  TYR51       0.1957
     99  OH        -6.3320    4.0530   17.8680 O.3    51  TYR51      -0.2866
    100  N         -9.1190    7.6530   12.8730 N.am   52  ALA52      -0.1980
    101  CA        -9.6720    6.5270   12.1220 C.3    52  ALA52       0.1597
    102  C         -8.9920    6.3710   10.7600 C.2    52  ALA52       0.2287
    103  O         -8.6050    5.2630   10.3800 O.2    52  ALA52      -0.2864
    104  CB       -11.1730    6.6810   11.9610 C.3    52  ALA52       0.0319
    105  N         -5.5150    4.8550   11.2060 N.3    55  VAL55      -0.1231
    106  CA        -5.4740    3.4220   11.4780 C.3    55  VAL55       0.1692
    107  C         -5.8750    2.6070   10.2490 C.2    55  VAL55       0.2591
    108  O         -5.2290    1.6070    9.9340 O.2    55  VAL55      -0.2718
    109  CB        -6.3160    3.0450   12.6980 C.3    55  VAL55       0.0266
    110  CG1       -6.3390    1.5250   12.9130 C.3    55  VAL55       0.0020
    111  CG2       -5.7680    3.7350   13.9390 C.3    55  VAL55       0.0020
    112  N         -6.9130    3.0530    9.5390 N.am   56  LEU56      -0.1980
    113  CA        -7.3230    2.3690    8.3160 C.3    56  LEU56       0.1596
    114  C         -6.1840    2.3480    7.2900 C.2    56  LEU56       0.2287
    115  O         -5.9600    1.3350    6.6070 O.2    56  LEU56      -0.2864
    116  CB        -8.5850    3.0140    7.7170 C.3    56  LEU56       0.0297
    117  CG        -9.8880    2.8040    8.4950 C.3    56  LEU56       0.0022
    118  CD1      -10.9280    3.8260    8.0890 C.3    56  LEU56       0.0001
    119  CD2      -10.4290    1.3960    8.2890 C.3    56  LEU56       0.0001
    120  N         -3.2060   -0.0210    8.7430 N.3    59  LEU59      -0.1245
    121  CA        -3.5410   -1.4400    8.6090 C.3    59  LEU59       0.1561
    122  C         -3.7580   -1.8400    7.1530 C.2    59  LEU59       0.2260
    123  O         -3.9660   -3.0210    6.8520 O.2    59  LEU59      -0.2867
    124  CB        -4.7690   -1.7970    9.4520 C.3    59  LEU59       0.0270
    125  CG        -4.6470   -1.5810   10.9640 C.3    59  LEU59       0.0019
    126  CD1       -5.9580   -1.9800   11.6170 C.3    59  LEU59       0.0001
    127  CD2       -3.4950   -2.3780   11.5820 C.3    59  LEU59       0.0001
    128  N         -6.1670   -1.3040    5.1910 N.3    61  ILE61      -0.1245
    129  CA        -7.5670   -1.5050    4.8400 C.3    61  ILE61       0.1561
    130  C         -8.0120   -0.4470    3.8170 C.2    61  ILE61       0.2260
    131  O         -8.8140   -0.7300    2.9150 O.2    61  ILE61      -0.2867
    132  CB        -8.4430   -1.4640    6.1240 C.3    61  ILE61       0.0252
    133  CG1       -8.0570   -2.6050    7.0680 C.3    61  ILE61       0.0019
    134  CG2       -9.9370   -1.5350    5.8010 C.3    61  ILE61       0.0019
    135  CD1       -8.6810   -2.4920    8.4460 C.3    61  ILE61       0.0001
    136  N        -17.5100   -9.2650    6.6550 N.3    95  TYR95      -0.1241
    137  CA       -16.6940   -8.0620    6.8600 C.3    95  TYR95       0.1605
    138  C        -16.1390   -7.5460    5.5280 C.2    95  TYR95       0.2264
    139  O        -16.2580   -6.3640    5.2130 O.2    95  TYR95      -0.2867
    140  CB       -15.5790   -8.4080    7.8480 C.3    95  TYR95       0.0534
    141  CG       -14.6600   -7.3020    8.3200 C.ar   95  TYR95      -0.0201
    142  CD1      -15.0220   -5.9520    8.2950 C.ar   95  TYR95      -0.0009
    143  CD2      -13.4060   -7.6360    8.8410 C.ar   95  TYR95      -0.0009
    144  CE1      -14.1380   -4.9740    8.7730 C.ar   95  TYR95       0.0417
    145  CE2      -12.5340   -6.6710    9.3030 C.ar   95  TYR95       0.0417
    146  CZ       -12.8970   -5.3490    9.2600 C.ar   95  TYR95       0.1957
    147  OH       -12.0050   -4.4180    9.7430 O.3    95  TYR95      -0.2866
    148  N        -16.6540    4.0600    7.1940 N.3   116  TYR116     -0.1241
    149  CA       -16.2120    2.9210    7.9780 C.3   116  TYR116      0.1605
    150  C        -17.0190    2.7030    9.2580 C.2   116  TYR116      0.2264
    151  O        -17.1180    1.5750    9.7390 O.2   116  TYR116     -0.2867
    152  CB       -14.7000    2.9720    8.2660 C.3   116  TYR116      0.0534
    153  CG       -14.1960    1.6690    8.8450 C.ar  116  TYR116     -0.0201
    154  CD1      -14.0830    0.5330    8.0450 C.ar  116  TYR116     -0.0009
    155  CD2      -13.8830    1.5620   10.2040 C.ar  116  TYR116     -0.0009
    156  CE1      -13.6560   -0.6800    8.5830 C.ar  116  TYR116      0.0417
    157  CE2      -13.4500    0.3630   10.7510 C.ar  116  TYR116      0.0417
    158  CZ       -13.3430   -0.7470    9.9370 C.ar  116  TYR116      0.1957
    159  OH       -12.9300   -1.9430   10.4890 O.3   116  TYR116     -0.2866
    160  N        -17.3240   -0.7570   11.3090 N.3   120  HIS120     -0.1241
    161  CA       -16.7280   -0.8690   12.6340 C.3   120  HIS120      0.1621
    162  C        -17.7460   -1.3160   13.6740 C.2   120  HIS120      0.2264
    163  O        -17.4890   -2.2440   14.4560 O.2   120  HIS120     -0.2867
    164  CB       -16.1140    0.4670   13.0420 C.3   120  HIS120      0.0745
    165  CG       -15.5340    0.4630   14.4200 C.ar  120  HIS120      0.0817
    166  ND1      -14.2800   -0.0370   14.6980 N.ar  120  HIS120     -0.2268
    167  CD2      -16.0410    0.8930   15.5980 C.ar  120  HIS120      0.1154
    168  CE1      -14.0390    0.0920   15.9920 C.ar  120  HIS120      0.1986
    169  NE2      -15.0920    0.6510   16.5610 N.ar  120  HIS120     -0.2212
    170  N        -12.6530   -7.4950   13.8370 N.3   127  SER127     -0.1202
    171  CA       -11.5160   -6.7060   13.3850 C.3   127  SER127      0.2020
    172  C        -10.3680   -6.7460   14.3910 C.2   127  SER127      0.2618
    173  O         -9.2000   -6.7730   14.0050 O.2   127  SER127     -0.2717
    174  CB       -11.9370   -5.2650   13.0760 C.3   127  SER127      0.2103
    175  OG       -12.1050   -4.4700   14.2470 O.3   127  SER127     -0.2182
    176  N        -10.7060   -6.7720   15.6800 N.am  128  ARG128     -0.1979
    177  CA        -9.6950   -6.8620   16.7210 C.3   128  ARG128      0.1597
    178  C         -9.0180   -8.2230   16.7510 C.2   128  ARG128      0.2287
    179  O         -7.8400   -8.3240   17.1160 O.2   128  ARG128     -0.2864
    180  CB       -10.2850   -6.5350   18.0930 C.3   128  ARG128      0.0334
    181  CG       -10.7830   -5.1110   18.1730 C.3   128  ARG128      0.0492
    182  CD       -11.3690   -4.7900   19.5340 C.3   128  ARG128      0.2205
    183  NE       -10.3250   -4.7090   20.5540 N.pl3 128  ARG128     -0.0865
    184  CZ       -10.5170   -4.3550   21.8200 C.cat 128  ARG128      0.5346
    185  NH1      -11.7310   -4.0450   22.2590 N.pl3 128  ARG128      0.1354
    186  NH2       -9.4840   -4.3100   22.6480 N.pl3 128  ARG128      0.1354
    187  N         -6.7540   -8.1140   13.2200 N.3   131  TYR131     -0.1227
    188  CA        -5.6670   -7.1380   13.2110 C.3   131  TYR131      0.1736
    189  C         -4.9780   -6.9650   14.5660 C.2   131  TYR131      0.2595
    190  O         -4.3900   -5.9140   14.8520 O.2   131  TYR131     -0.2718
    191  CB        -6.1550   -5.7900   12.6480 C.3   131  TYR131      0.0548
    192  CG        -6.4950   -5.8540   11.1700 C.ar  131  TYR131     -0.0200
    193  CD1       -5.5050   -5.6880   10.1940 C.ar  131  TYR131     -0.0009
    194  CD2       -7.8050   -6.1040   10.7390 C.ar  131  TYR131     -0.0009
    195  CE1       -5.8140   -5.7640    8.8250 C.ar  131  TYR131      0.0417
    196  CE2       -8.1150   -6.1770    9.3810 C.ar  131  TYR131      0.0417
    197  CZ        -7.1270   -6.0050    8.4310 C.ar  131  TYR131      0.1957
    198  OH        -7.4420   -6.0880    7.0960 O.3   131  TYR131     -0.2866
    199  N         -5.0380   -8.0050   15.3930 N.am  132  HIS132     -0.1961
    200  CA        -4.2080   -8.0850   16.6080 C.3   132  HIS132      0.1787
    201  C         -4.4510   -6.9020   17.5350 C.2   132  HIS132      0.2621
    202  O         -3.5180   -6.2770   18.0550 O.2   132  HIS132     -0.2715
    203  CB        -2.7260   -8.2440   16.2270 C.3   132  HIS132      0.0785
    204  CG        -2.5180   -9.1770   15.0730 C.ar  132  HIS132      0.0821
    205  ND1       -2.9860  -10.4750   15.0730 N.ar  132  HIS132     -0.2267
    206  CD2       -1.9130   -8.9930   13.8770 C.ar  132  HIS132      0.1154
    207  CE1       -2.6810  -11.0500   13.9230 C.ar  132  HIS132      0.1986
    208  NE2       -2.0150  -10.1780   13.1860 N.ar  132  HIS132     -0.2212
    209  N         -5.7330   -6.6090   17.7220 N.am  133  GLY133     -0.1940
    210  CA        -6.1800   -5.4720   18.5150 C.3   133  GLY133      0.2014
    211  C         -6.6860   -5.8040   19.9100 C.2   133  GLY133      0.2640
    212  O         -7.3830   -4.9890   20.5200 O.2   133  GLY133     -0.2714
    213  N         -6.3400   -6.9860   20.4200 N.am  134  THR134     -0.1936
    214  CA        -6.5580   -7.3170   21.8340 C.3   134  THR134      0.2028
    215  C         -5.2340   -7.7560   22.4350 C.2   134  THR134      0.2642
    216  O         -4.4140   -8.3680   21.7520 O.2   134  THR134     -0.2714
    217  CB        -7.5940   -8.4520   22.0340 C.3   134  THR134      0.1808
    218  OG1       -7.0540   -9.7020   21.5780 O.3   134  THR134     -0.2208
    219  CG2       -8.9120   -8.1370   21.3000 C.3   134  THR134      0.0379
    220  N         -5.0260   -7.4500   23.7100 N.am  135  VAL135     -0.1977
    221  CA        -3.8040   -7.8690   24.4020 C.3   135  VAL135      0.1596
    222  C         -3.6570   -9.3990   24.3810 C.2   135  VAL135      0.2287
    223  O         -2.5950   -9.9280   24.0390 O.2   135  VAL135     -0.2864
    224  CB        -3.7670   -7.3160   25.8520 C.3   135  VAL135      0.0276
    225  CG1       -2.5890   -7.8940   26.6350 C.3   135  VAL135      0.0022
    226  CG2       -3.6810   -5.7940   25.8310 C.3   135  VAL135      0.0022
    227  N         -3.1300  -10.7620   20.6700 N.3   138  ALA138     -0.1245
    228  CA        -1.7700  -10.4640   20.2080 C.3   138  ALA138      0.1562
    229  C         -0.7450  -11.3560   20.9140 C.2   138  ALA138      0.2260
    230  O          0.2070  -11.8160   20.2840 O.2   138  ALA138     -0.2867
    231  CB        -1.4390   -9.0030   20.3870 C.3   138  ALA138      0.0290
    232  N          2.4360  -13.5760   19.2920 N.3   142  TYR142     -0.1241
    233  CA         3.8490  -13.5480   19.6870 C.3   142  TYR142      0.1605
    234  C          4.3170  -14.9260   20.1380 C.2   142  TYR142      0.2264
    235  O          5.4160  -15.3530   19.7790 O.2   142  TYR142     -0.2867
    236  CB         4.1020  -12.5530   20.8120 C.3   142  TYR142      0.0534
    237  CG         3.8810  -11.1050   20.4480 C.ar  142  TYR142     -0.0201
    238  CD1        4.7000  -10.4500   19.5140 C.ar  142  TYR142     -0.0009
    239  CD2        2.8730  -10.3710   21.0630 C.ar  142  TYR142     -0.0009
    240  CE1        4.4940   -9.1080   19.1970 C.ar  142  TYR142      0.0417
    241  CE2        2.6560   -9.0310   20.7570 C.ar  142  TYR142      0.0417
    242  CZ         3.4640   -8.4020   19.8190 C.ar  142  TYR142      0.1957
    243  OH         3.2590   -7.0730   19.5100 O.3   142  TYR142     -0.2866
    244  N          6.8950   -7.1320   22.6900 N.3   151  LYS151     -0.1245
    245  CA         6.7490   -5.9550   23.5370 C.3   151  LYS151      0.1561
    246  C          7.8010   -6.0430   24.6390 C.2   151  LYS151      0.2260
    247  O          8.0280   -7.1170   25.2010 O.2   151  LYS151     -0.2867
    248  CB         5.3590   -5.8980   24.1660 C.3   151  LYS151      0.0271
    249  CG         4.2380   -5.7610   23.1540 C.3   151  LYS151      0.0035
    250  CD         2.8660   -6.0280   23.7630 C.3   151  LYS151      0.0206
    251  CE         2.3390   -4.8120   24.5030 C.3   151  LYS151      0.1093
    252  NZ         0.9600   -5.0410   25.0250 N.3   151  LYS151     -0.1314
@<TRIPOS>BOND
     1   131   130    2
     2   130   129    1
     3   129   128    1
     4   129   132    1
     5   139   138    2
     6   138   137    1
     7   134   132    1
     8   132   133    1
     9   115   114    2
    10   136   137    1
    11   123   122    2
    12   137   140    1
    13   133   135    1
    14   198   197    1
    15   122   121    1
    16   148   149    1
    17   114   113    1
    18   116   113    1
    19   116   117    1
    20   140   141    1
    21   149   152    1
    22   149   150    1
    23   154   156   ar
    24   154   153   ar
    25   118   117    1
    26   152   153    1
    27   119   117    1
    28   142   141   ar
    29   142   144   ar
    30   113   112    1
    31   141   143   ar
    32   197   195   ar
    33   197   196   ar
    34   156   158   ar
    35   121   120    1
    36   121   124    1
    37   144   146   ar
    38   195   193   ar
    39   143   145   ar
    40   153   155   ar
    41   150   151    2
    42   146   145   ar
    43   146   147    1
    44   196   194   ar
    45   124   125    1
    46   112   107   am
    47   108   107    2
    48   158   159    1
    49   158   157   ar
    50   193   192   ar
    51   155   157   ar
    52   107   106    1
    53   103   102    2
    54   194   192   ar
    55   102   101    1
    56   125   127    1
    57   125   126    1
    58   192   191    1
    59   105   106    1
    60   160   161    1
    61   106   109    1
    62   104   101    1
    63   101   100    1
    64   161   164    1
    65   161   162    1
    66   191   188    1
    67   109   110    1
    68   109   111    1
    69    91    90    2
    70   100    90   am
    71   164   165    1
    72   174   171    1
    73   174   175    1
    74    90    89    1
    75   208   206   ar
    76   208   207   ar
    77   188   187    1
    78   188   189    1
    79    88    89    1
    80   171   170    1
    81   171   172    1
    82   162   163    2
    83    86    85    1
    84   206   204   ar
    85    89    92    1
    86   207   205   ar
    87   173   172    2
    88   172   176   am
    89   165   166   ar
    90   165   167   ar
    91   189   190    2
    92   189   199   am
    93   166   168   ar
    94   205   204   ar
    95   204   203    1
    96    20    19    1
    97    85    87    1
    98    85    84    1
    99   199   200    1
   100    92    93    1
   101    17    19   ar
   102    17    15   ar
   103     9    10    1
   104   167   169   ar
   105   176   177    1
   106    19    18   ar
   107    84    81    1
   108   168   169   ar
   109    15    14   ar
   110    93    94   ar
   111    93    95   ar
   112    67    68   ar
   113    67    65   ar
   114     1     2    1
   115   203   200    1
   116    94    96   ar
   117    68    66   ar
   118    95    97   ar
   119   200   201    1
   120    18    16   ar
   121    10    11    1
   122    10    13    1
   123   177   178    1
   124   177   180    1
   125   178   179    2
   126     3     2    1
   127     3     4    2
   128    96    98   ar
   129    83    82    2
   130    14    16   ar
   131    14    13    1
   132    97    98   ar
   133    65    62   ar
   134    98    99    1
   135     2     5    1
   136    81    82    1
   137    81    80    1
   138    11    12    2
   139   201   209   am
   140   201   202    2
   141    21    22    1
   142    66    64   ar
   143   209   210    1
   144   180   181    1
   145   181   182    1
   146    80    71   am
   147     5     6    1
   148    62    64   ar
   149    62    60   ar
   150   210   211    1
   151    64    63   ar
   152    46    44   ar
   153    46    45   ar
   154    44    42   ar
   155    22    23    1
   156    22    25    1
   157    23    24    2
   158   240   238   ar
   159   240   242   ar
   160    45    43   ar
   161    58    57    2
   162   232   233    1
   163    42    41   ar
   164    42    40   ar
   165    71    72    2
   166    71    70    1
   167    41    39   ar
   168   243   242    1
   169   238   237   ar
   170   182   183    1
   171    60    59    1
   172    60    61   ar
   173   233   234    1
   174   233   236    1
   175     6     7    1
   176     6     8    1
   177    43    40   ar
   178   235   234    2
   179    28    30   ar
   180    28    26   ar
   181   242   241   ar
   182    40    38   ar
   183   211   213   am
   184   211   212    2
   185    59    56    1
   186    63    61   ar
   187    57    56    1
   188    57    69   am
   189    25    26    1
   190    39    38   ar
   191   228   231    1
   192   228   227    1
   193   228   229    1
   194    30    31   ar
   195   230   229    2
   196    70    69    1
   197    70    73    1
   198    38    37    1
   199    56    55    1
   200   213   214    1
   201   237   236    1
   202   237   239   ar
   203    26    27   ar
   204   183   184    2
   205   241   239   ar
   206    37    34    1
   207   219   217    1
   208    36    35    2
   209    31    32    1
   210    31    29   ar
   211   218   217    1
   212    73    74    1
   213    34    35    1
   214    34    33    1
   215   216   215    2
   216    27    29   ar
   217   184   185    1
   218   184   186    1
   219   214   217    1
   220   214   215    1
   221    35    47   am
   222    74    75    1
   223   215   220   am
   224   244   245    1
   225   249   250    1
   226   249   248    1
   227    47    48    1
   228   245   248    1
   229   245   246    1
   230    76    75    1
   231    76    77    2
   232   220   221    1
   233   250   251    1
   234    50    49    2
   235    48    49    1
   236    48    51    1
   237   223   222    2
   238   222   221    1
   239   221   224    1
   240    79    77    1
   241    53    52    2
   242   251   252    1
   243   246   247    2
   244    77    78    1
   245    51    52    1
   246    52    54   am
   247   226   224    1
   248   224   225    1
