@<TRIPOS>MOLECULE
tmp/3nhoA00.pdb
 152 153 0 0 0
SMALL
GASTEIGER

@<TRIPOS>ATOM
      1  N        -45.7560   23.0240   70.9130 N.3    59  TYR59      -0.1241
      2  CA       -45.8960   22.3830   72.2080 C.3    59  TYR59       0.1605
      3  C        -44.6790   22.6350   73.0700 C.2    59  TYR59       0.2264
      4  O        -43.5540   22.5370   72.6120 O.2    59  TYR59      -0.2867
      5  CB       -46.0950   20.8830   72.0470 C.3    59  TYR59       0.0534
      6  CG       -47.3270   20.4940   71.2880 C.ar   59  TYR59      -0.0201
      7  CD1      -48.5690   20.5370   71.8820 C.ar   59  TYR59      -0.0009
      8  CD2      -47.2470   20.0600   69.9850 C.ar   59  TYR59      -0.0009
      9  CE1      -49.6920   20.1730   71.1950 C.ar   59  TYR59       0.0417
     10  CE2      -48.3680   19.6970   69.2890 C.ar   59  TYR59       0.0417
     11  CZ       -49.5890   19.7550   69.8980 C.ar   59  TYR59       0.1957
     12  OH       -50.7110   19.3910   69.2000 O.3    59  TYR59      -0.2866
     13  N        -44.2830    6.3490   67.2770 N.3   163  TRP163     -0.1241
     14  CA       -43.9160    7.5990   67.9080 C.3   163  TRP163      0.1605
     15  C        -42.5660    8.1020   67.3900 C.2   163  TRP163      0.2264
     16  O        -42.3570    9.3030   67.2720 O.2   163  TRP163     -0.2867
     17  CB       -43.9240    7.4840   69.4360 C.3   163  TRP163      0.0550
     18  CG       -45.2740    7.6870   70.0600 C.ar  163  TRP163      0.0003
     19  CD1      -46.0520    6.7520   70.7400 C.ar  163  TRP163      0.0946
     20  CD2      -46.0110    8.9030   70.0780 C.ar  163  TRP163      0.0152
     21  NE1      -47.2140    7.3450   71.1870 N.ar  163  TRP163     -0.2442
     22  CE2      -47.2200    8.6540   70.7800 C.ar  163  TRP163      0.0810
     23  CE3      -45.7730   10.1810   69.5580 C.ar  163  TRP163      0.0012
     24  CZ2      -48.1740    9.6300   70.9560 C.ar  163  TRP163      0.0191
     25  CZ3      -46.7110   11.1410   69.7350 C.ar  163  TRP163      0.0001
     26  CH2      -47.9000   10.8670   70.4270 C.ar  163  TRP163      0.0015
     27  N        -43.2020    9.9090   64.0890 N.3   166  ASN166     -0.1225
     28  CA       -43.7910   11.1610   64.3940 C.3   166  ASN166      0.1785
     29  C        -42.6990   12.1290   64.8740 C.2   166  ASN166      0.2597
     30  O        -42.5460   13.2160   64.3330 O.2   166  ASN166     -0.2718
     31  CB       -44.8510   10.9010   65.4540 C.3   166  ASN166      0.1169
     32  CG       -45.3420   12.1450   66.1210 C.2   166  ASN166      0.2627
     33  OD1      -44.5690   12.9080   66.6820 O.2   166  ASN166     -0.2716
     34  ND2      -46.6380   12.3430   66.1050 N.am  166  ASN166     -0.0877
     35  N        -41.9280   11.7370   65.8800 N.am  167  MET167     -0.1965
     36  CA       -40.9530   12.6320   66.4630 C.3   167  MET167      0.1736
     37  C        -39.8420   13.0130   65.5150 C.2   167  MET167      0.2616
     38  O        -39.4770   14.1740   65.4220 O.2   167  MET167     -0.2715
     39  CB       -40.3580   12.0040   67.7260 C.3   167  MET167      0.0427
     40  CG       -41.3530   12.0570   68.8410 C.3   167  MET167      0.0599
     41  SD       -41.5340   13.7600   69.3960 S.3   167  MET167     -0.1393
     42  CE       -43.2180   13.7500   69.9080 C.3   167  MET167      0.0692
     43  N        -39.2630   12.0390   64.8440 N.am  168  LEU168     -0.1977
     44  CA       -38.0980   12.3320   64.0230 C.3   168  LEU168      0.1596
     45  C        -38.5200   12.8810   62.6760 C.2   168  LEU168      0.2287
     46  O        -37.7470   13.5690   62.0080 O.2   168  LEU168     -0.2864
     47  CB       -37.2160   11.0920   63.8460 C.3   168  LEU168      0.0297
     48  CG       -36.2330   10.7970   64.9960 C.3   168  LEU168      0.0022
     49  CD1      -36.8540   10.9090   66.3830 C.3   168  LEU168      0.0001
     50  CD2      -35.6150    9.4510   64.8090 C.3   168  LEU168      0.0001
     51  N        -29.7470    9.1230   66.7680 N.3   179  TRP179     -0.1241
     52  CA       -30.4890   10.3220   66.9970 C.3   179  TRP179      0.1605
     53  C        -31.7310   10.1230   67.9140 C.2   179  TRP179      0.2264
     54  O        -32.0720   10.9830   68.7430 O.2   179  TRP179     -0.2867
     55  CB       -30.8280   10.9390   65.6750 C.3   179  TRP179      0.0550
     56  CG       -31.5190   12.2390   65.8250 C.ar  179  TRP179      0.0003
     57  CD1      -32.8350   12.4860   65.6000 C.ar  179  TRP179      0.0946
     58  CD2      -30.9330   13.4700   66.2130 C.ar  179  TRP179      0.0152
     59  NE1      -33.1190   13.8040   65.8230 N.ar  179  TRP179     -0.2442
     60  CE2      -31.9640   14.4410   66.1990 C.ar  179  TRP179      0.0810
     61  CE3      -29.6320   13.8660   66.5540 C.ar  179  TRP179      0.0012
     62  CZ2      -31.7290   15.7920   66.5330 C.ar  179  TRP179      0.0191
     63  CZ3      -29.4010   15.1810   66.9020 C.ar  179  TRP179      0.0001
     64  CH2      -30.4380   16.1290   66.8900 C.ar  179  TRP179      0.0015
     65  N        -32.4940   12.0790   71.5740 N.3   183  LEU183     -0.1245
     66  CA       -33.7000   12.6610   72.1120 C.3   183  LEU183      0.1561
     67  C        -34.0470   12.0650   73.4350 C.2   183  LEU183      0.2260
     68  O        -34.5570   12.7590   74.3010 O.2   183  LEU183     -0.2867
     69  CB       -34.8600   12.5100   71.1510 C.3   183  LEU183      0.0270
     70  CG       -34.7110   13.3190   69.8540 C.3   183  LEU183      0.0019
     71  CD1      -36.0140   13.2480   69.0960 C.3   183  LEU183      0.0001
     72  CD2      -34.2920   14.7710   70.1080 C.3   183  LEU183      0.0001
     73  N        -44.6980   17.1570   75.1290 N.3   198  LEU198     -0.1245
     74  CA       -45.7040   17.8950   74.4020 C.3   198  LEU198      0.1561
     75  C        -46.8540   17.9200   75.3570 C.2   198  LEU198      0.2260
     76  O        -47.6510   17.0350   75.4510 O.2   198  LEU198     -0.2867
     77  CB       -45.9540   17.2890   73.0190 C.3   198  LEU198      0.0270
     78  CG       -46.7730   16.0130   72.8170 C.3   198  LEU198      0.0019
     79  CD1      -48.1190   16.2780   72.1540 C.3   198  LEU198      0.0001
     80  CD2      -45.9750   15.0330   71.9900 C.3   198  LEU198      0.0001
     81  N        -54.3180   12.7490   66.1240 N.3   311  TYR311     -0.1241
     82  CA       -55.0770   13.0230   67.3420 C.3   311  TYR311      0.1605
     83  C        -55.7160   14.4100   67.3740 C.2   311  TYR311      0.2264
     84  O        -55.4050   15.2940   66.5610 O.2   311  TYR311     -0.2867
     85  CB       -54.2050   12.7990   68.5850 C.3   311  TYR311      0.0534
     86  CG       -52.9080   13.5830   68.5710 C.ar  311  TYR311     -0.0201
     87  CD1      -52.8980   14.9560   68.7670 C.ar  311  TYR311     -0.0009
     88  CD2      -51.6890   12.9440   68.3440 C.ar  311  TYR311     -0.0009
     89  CE1      -51.7360   15.6720   68.7220 C.ar  311  TYR311      0.0417
     90  CE2      -50.4860   13.6530   68.3150 C.ar  311  TYR311      0.0417
     91  CZ       -50.5120   15.0200   68.4980 C.ar  311  TYR311      0.1957
     92  OH       -49.3000   15.7580   68.4740 O.3   311  TYR311     -0.2866
     93  N        -49.1980   13.7260   62.1130 N.3   326  PHE326     -0.1241
     94  CA       -47.8340   13.8170   61.6720 C.3   326  PHE326      0.1605
     95  C        -47.4180   12.6490   60.8220 C.2   326  PHE326      0.2264
     96  O        -47.9940   11.5750   60.9340 O.2   326  PHE326     -0.2867
     97  CB       -46.8980   13.8540   62.8640 C.3   326  PHE326      0.0534
     98  CG       -46.9220   15.1510   63.5950 C.ar  326  PHE326     -0.0203
     99  CD1      -47.8990   15.4170   64.5180 C.ar  326  PHE326     -0.0042
    100  CD2      -45.9790   16.1090   63.3420 C.ar  326  PHE326     -0.0042
    101  CE1      -47.9250   16.5970   65.1680 C.ar  326  PHE326     -0.0003
    102  CE2      -46.0080   17.2880   63.9940 C.ar  326  PHE326     -0.0003
    103  CZ       -46.9790   17.5320   64.9090 C.ar  326  PHE326     -0.0000
    104  N        -38.1230   20.3840   61.1980 N.3   371  TRP371     -0.1227
    105  CA       -37.2110   20.2290   62.2710 C.3   371  TRP371      0.1737
    106  C        -35.9990   19.4230   61.8700 C.2   371  TRP371      0.2595
    107  O        -36.1350   18.6570   60.9220 O.2   371  TRP371     -0.2718
    108  CB       -37.7320   19.8570   63.6480 C.3   371  TRP371      0.0564
    109  CG       -38.3330   18.5030   63.6150 C.ar  371  TRP371      0.0003
    110  CD1      -37.7280   17.3410   63.9350 C.ar  371  TRP371      0.0946
    111  CD2      -39.6700   18.1710   63.2520 C.ar  371  TRP371      0.0152
    112  NE1      -38.5910   16.3050   63.7870 N.ar  371  TRP371     -0.2442
    113  CE2      -39.7960   16.7890   63.3670 C.ar  371  TRP371      0.0810
    114  CE3      -40.7700   18.9110   62.8290 C.ar  371  TRP371      0.0012
    115  CZ2      -40.9730   16.1290   63.0810 C.ar  371  TRP371      0.0191
    116  CZ3      -41.9320   18.2540   62.5510 C.ar  371  TRP371      0.0001
    117  CH2      -42.0280   16.8810   62.6760 C.ar  371  TRP371      0.0015
    118  N        -34.8730   19.5480   62.5890 N.am  372  VAL372     -0.1966
    119  CA       -33.6580   18.8410   62.2190 C.3   372  VAL372      0.1727
    120  C        -33.7600   17.3630   62.5760 C.2   372  VAL372      0.2616
    121  O        -34.3650   17.0070   63.6100 O.2   372  VAL372     -0.2715
    122  CB       -32.4780   19.4470   62.9720 C.3   372  VAL372      0.0290
    123  CG1      -32.8590   19.6540   64.4270 C.3   372  VAL372      0.0023
    124  CG2      -31.1890   18.5900   62.8230 C.3   372  VAL372      0.0023
    125  N        -33.1780   16.5080   61.7380 N.am  373  ALA373     -0.1977
    126  CA       -32.9250   15.1070   62.0810 C.3   373  ALA373      0.1597
    127  C        -31.8510   14.6370   61.1390 C.2   373  ALA373      0.2287
    128  O        -32.0150   14.7350   59.9250 O.2   373  ALA373     -0.2864
    129  CB       -34.1680   14.2630   61.9030 C.3   373  ALA373      0.0319
    130  N        -31.9460   19.6050   71.2100 N.3   405  PRO405     -0.2102
    131  CA       -31.9530   19.6850   69.7590 C.3   405  PRO405      0.1504
    132  C        -33.3510   19.5500   69.2200 C.2   405  PRO405      0.2576
    133  O        -34.0130   18.5690   69.4840 O.2   405  PRO405     -0.2718
    134  CB       -31.1080   18.4910   69.3440 C.3   405  PRO405      0.0282
    135  CG       -31.0200   17.6420   70.5280 C.3   405  PRO405      0.0208
    136  CD       -31.0560   18.5430   71.6770 C.3   405  PRO405      0.0893
    137  N        -33.7950   20.5360   68.4620 N.am  406  GLY406     -0.1943
    138  CA       -35.0710   20.4420   67.8150 C.3   406  GLY406      0.2014
    139  C        -36.1360   21.3410   68.3940 C.2   406  GLY406      0.2638
    140  O        -37.0790   21.6340   67.6990 O.2   406  GLY406     -0.2714
    141  N        -36.0140   21.7810   69.6460 N.am  407  TYR407     -0.1973
    142  CA       -37.1180   22.4850   70.3210 C.3   407  TYR407      0.1639
    143  C        -36.9350   23.9800   70.4250 C.2   407  TYR407      0.2290
    144  O        -35.8300   24.4610   70.5740 O.2   407  TYR407     -0.2864
    145  CB       -37.2690   21.9700   71.7540 C.3   407  TYR407      0.0560
    146  CG       -37.6540   20.5210   71.8580 C.ar  407  TYR407     -0.0198
    147  CD1      -36.7610   19.4930   71.4750 C.ar  407  TYR407     -0.0009
    148  CD2      -38.9220   20.1710   72.3400 C.ar  407  TYR407     -0.0009
    149  CE1      -37.1410   18.1540   71.5380 C.ar  407  TYR407      0.0417
    150  CE2      -39.3150   18.8500   72.4390 C.ar  407  TYR407      0.0417
    151  CZ       -38.4310   17.8420   72.0350 C.ar  407  TYR407      0.1957
    152  OH       -38.8760   16.5230   72.1400 O.3   407  TYR407     -0.2866
@<TRIPOS>BOND
     1   128   127    2
     2    95    96    2
     3    95    94    1
     4   107   106    2
     5   127   126    1
     6   104   105    1
     7    94    93    1
     8    94    97    1
     9   125   126    1
    10   125   120   am
    11   106   105    1
    12   106   118   am
    13   129   126    1
    14    46    45    2
    15   119   120    1
    16   119   118    1
    17   119   122    1
    18   105   108    1
    19   116   117   ar
    20   116   114   ar
    21   120   121    2
    22   117   115   ar
    23    45    44    1
    24   124   122    1
    25   114   111   ar
    26    97    98    1
    27   122   123    1
    28   115   113   ar
    29   111   113   ar
    30   111   109   ar
    31   100    98   ar
    32   100   102   ar
    33   113   112   ar
    34    98    99   ar
    35   109   108    1
    36   109   110   ar
    37   112   110   ar
    38    47    44    1
    39    47    48    1
    40   102   103   ar
    41    44    43    1
    42    27    28    1
    43    30    29    2
    44    28    29    1
    45    28    31    1
    46    99   101   ar
    47    50    48    1
    48    43    37   am
    49    29    35   am
    50   103   101   ar
    51    48    49    1
    52    38    37    2
    53    31    32    1
    54    37    36    1
    55    57    59   ar
    56    57    56   ar
    57    55    56    1
    58    55    52    1
    59    59    60   ar
    60    56    58   ar
    61    35    36    1
    62    34    32   am
    63    32    33    2
    64    81    82    1
    65    60    58   ar
    66    60    62   ar
    67    58    61   ar
    68    36    39    1
    69    62    64   ar
    70    61    63   ar
    71    84    83    2
    72    51    52    1
    73    64    63   ar
    74    52    53    1
    75    16    15    2
    76    13    14    1
    77    82    83    1
    78    82    85    1
    79    15    14    1
    80   140   139    2
    81    39    40    1
    82   138   139    1
    83   138   137    1
    84    14    17    1
    85    53    54    2
    86    90    88   ar
    87    90    91   ar
    88    88    86   ar
    89   139   141   am
    90   137   132   am
    91    92    91    1
    92    91    89   ar
    93    86    85    1
    94    86    87   ar
    95    89    87   ar
    96    40    41    1
    97    71    70    1
    98    12    11    1
    99   132   133    2
   100   132   131    1
   101    10    11   ar
   102    10     8   ar
   103   134   131    1
   104   134   135    1
   105    41    42    1
   106    17    18    1
   107    23    25   ar
   108    23    20   ar
   109   141   142    1
   110    25    26   ar
   111   131   130    1
   112    70    72    1
   113    70    69    1
   114    11     9   ar
   115     8     6   ar
   116    18    20   ar
   117    18    19   ar
   118    20    22   ar
   119   142   143    1
   120   142   145    1
   121   143   144    2
   122    26    24   ar
   123   135   136    1
   124    19    21   ar
   125    22    24   ar
   126    22    21   ar
   127     1     2    1
   128    69    66    1
   129     9     7   ar
   130   130   136    1
   131     6     7   ar
   132     6     5    1
   133   147   149   ar
   134   147   146   ar
   135   149   151   ar
   136    65    66    1
   137   145   146    1
   138   146   148   ar
   139    80    78    1
   140   151   152    1
   141   151   150   ar
   142     5     2    1
   143    66    67    1
   144    79    78    1
   145     2     3    1
   146   148   150   ar
   147     4     3    2
   148    78    77    1
   149    77    74    1
   150    67    68    2
   151    74    73    1
   152    74    75    1
   153    75    76    2
