@<TRIPOS>MOLECULE
tmp/3nhtA00.pdb
 228 221 0 0 0
SMALL
GASTEIGER

@<TRIPOS>ATOM
      1  N          0.5570   -3.3580   16.2310 N.3    12  LEU12      -0.1245
      2  CA         0.8010   -2.5280   17.4120 C.3    12  LEU12       0.1561
      3  C          1.5020   -1.2250   17.0320 C.2    12  LEU12       0.2260
      4  O          1.1980   -0.1610   17.5870 O.2    12  LEU12      -0.2867
      5  CB         1.6170   -3.2960   18.4560 C.3    12  LEU12       0.0270
      6  CG         1.6350   -2.6930   19.8660 C.3    12  LEU12       0.0019
      7  CD1        0.2410   -2.7250   20.5060 C.3    12  LEU12       0.0001
      8  CD2        2.6300   -3.4250   20.7540 C.3    12  LEU12       0.0001
      9  N         -1.1320    1.1770   15.6160 N.3    15  TYR15      -0.1227
     10  CA        -1.9720    1.7800   16.6470 C.3    15  TYR15       0.1736
     11  C         -1.2150    2.8460   17.4240 C.2    15  TYR15       0.2595
     12  O         -1.7370    3.9370   17.6440 O.2    15  TYR15      -0.2718
     13  CB        -2.5480    0.7340   17.6210 C.3    15  TYR15       0.0548
     14  CG        -3.3300   -0.3970   16.9640 C.ar   15  TYR15      -0.0200
     15  CD1       -4.3520   -0.1300   16.0390 C.ar   15  TYR15      -0.0009
     16  CD2       -3.0660   -1.7290   17.2870 C.ar   15  TYR15      -0.0009
     17  CE1       -5.0560   -1.1640   15.4280 C.ar   15  TYR15       0.0417
     18  CE2       -3.7770   -2.7740   16.6840 C.ar   15  TYR15       0.0417
     19  CZ        -4.7690   -2.4740   15.7620 C.ar   15  TYR15       0.1957
     20  OH        -5.4750   -3.4790   15.1470 O.3    15  TYR15      -0.2866
     21  N          0.0180    2.5460   17.8210 N.am   16  LYS16      -0.1980
     22  CA         0.7560    3.4880   18.6660 C.3    16  LYS16       0.1596
     23  C          1.1680    4.7360   17.9000 C.2    16  LYS16       0.2287
     24  O          1.0910    5.8420   18.4440 O.2    16  LYS16      -0.2864
     25  CB         1.9390    2.8340   19.3950 C.3    16  LYS16       0.0298
     26  CG         3.1320    2.4290   18.5340 C.3    16  LYS16       0.0038
     27  CD         4.3000    3.4130   18.6750 C.3    16  LYS16       0.0206
     28  CE         5.5220    2.9010   17.9070 C.3    16  LYS16       0.1093
     29  NZ         6.6920    3.8130   18.0270 N.3    16  LYS16      -0.1314
     30  N         -1.9150    6.8620   17.6390 N.3    19  TYR19      -0.1241
     31  CA        -2.1190    7.5760   18.9080 C.3    19  TYR19       0.1605
     32  C         -1.1750    8.7740   19.0000 C.2    19  TYR19       0.2264
     33  O         -1.5950    9.8850   19.3270 O.2    19  TYR19      -0.2867
     34  CB        -1.8940    6.6510   20.1140 C.3    19  TYR19       0.0534
     35  CG        -3.1070    5.8880   20.6270 C.ar   19  TYR19      -0.0201
     36  CD1       -3.3240    5.7520   21.9920 C.ar   19  TYR19      -0.0009
     37  CD2       -4.0160    5.2900   19.7550 C.ar   19  TYR19      -0.0009
     38  CE1       -4.4160    5.0510   22.4890 C.ar   19  TYR19       0.0417
     39  CE2       -5.1240    4.5880   20.2520 C.ar   19  TYR19       0.0417
     40  CZ        -5.3040    4.4770   21.6140 C.ar   19  TYR19       0.1957
     41  OH        -6.3880    3.7850   22.0820 O.3    19  TYR19      -0.2866
     42  N        -10.8000    5.3750   22.5140 N.3    36  TRP36      -0.1227
     43  CA       -10.0730    4.6240   21.4940 C.3    36  TRP36       0.1737
     44  C         -9.5030    3.3100   22.0460 C.2    36  TRP36       0.2595
     45  O         -9.4500    2.3190   21.3210 O.2    36  TRP36      -0.2718
     46  CB        -8.9720    5.4730   20.8450 C.3    36  TRP36       0.0564
     47  CG        -9.4420    6.7600   20.2120 C.ar   36  TRP36       0.0003
     48  CD1      -10.7320    7.1600   19.9810 C.ar   36  TRP36       0.0946
     49  CD2       -8.6020    7.8120   19.7340 C.ar   36  TRP36       0.0152
     50  NE1      -10.7420    8.4020   19.3830 N.ar   36  TRP36      -0.2442
     51  CE2       -9.4460    8.8220   19.2200 C.ar   36  TRP36       0.0810
     52  CE3       -7.2140    7.9970   19.6830 C.ar   36  TRP36       0.0012
     53  CZ2       -8.9450   10.0060   18.6680 C.ar   36  TRP36       0.0191
     54  CZ3       -6.7170    9.1690   19.1250 C.ar   36  TRP36       0.0001
     55  CH2       -7.5840   10.1640   18.6400 C.ar   36  TRP36       0.0015
     56  N         -9.0960    3.2930   23.3180 N.am   37  ASN37      -0.1974
     57  CA        -8.6630    2.0460   23.9620 C.3    37  ASN37       0.1688
     58  C         -9.7600    0.9780   23.9270 C.2    37  ASN37       0.2292
     59  O         -9.4800   -0.2200   23.8330 O.2    37  ASN37      -0.2864
     60  CB        -8.2730    2.2860   25.4240 C.3    37  ASN37       0.1181
     61  CG        -6.9100    2.9340   25.5950 C.2    37  ASN37       0.2629
     62  OD1       -6.1530    3.1220   24.6510 O.2    37  ASN37      -0.2716
     63  ND2       -6.5900    3.2730   26.8460 N.am   37  ASN37      -0.0877
     64  N        -11.9040    0.7140   21.5600 N.3    39  TRP39      -0.1241
     65  CA       -12.3080    0.5490   20.1530 C.3    39  TRP39       0.1605
     66  C        -13.6570    1.2240   19.8560 C.2    39  TRP39       0.2264
     67  O        -14.4860    0.7170   19.0970 O.2    39  TRP39      -0.2867
     68  CB       -12.2780   -0.9380   19.7390 C.3    39  TRP39       0.0550
     69  CG       -10.8710   -1.4310   19.5290 C.ar   39  TRP39       0.0003
     70  CD1       -9.8970   -1.5390   20.4790 C.ar   39  TRP39       0.0946
     71  CD2      -10.2860   -1.8700   18.2980 C.ar   39  TRP39       0.0152
     72  NE1       -8.7370   -2.0260   19.9200 N.ar   39  TRP39      -0.2442
     73  CE2       -8.9480   -2.2330   18.5810 C.ar   39  TRP39       0.0810
     74  CE3      -10.7580   -1.9860   16.9790 C.ar   39  TRP39       0.0012
     75  CZ2       -8.0750   -2.7040   17.5960 C.ar   39  TRP39       0.0191
     76  CZ3       -9.8830   -2.4660   15.9960 C.ar   39  TRP39       0.0001
     77  CH2       -8.5560   -2.8130   16.3140 C.ar   39  TRP39       0.0015
     78  N        -15.1060    4.5280   18.1510 N.3    41  LEU41      -0.1245
     79  CA       -14.7450    5.6220   17.2390 C.3    41  LEU41       0.1561
     80  C        -15.5490    6.8660   17.5960 C.2    41  LEU41       0.2260
     81  O        -16.4210    7.3120   16.8490 O.2    41  LEU41      -0.2867
     82  CB       -14.9280    5.2140   15.7720 C.3    41  LEU41       0.0270
     83  CG       -13.9600    4.1450   15.2500 C.3    41  LEU41       0.0019
     84  CD1      -14.2610    3.7920   13.7940 C.3    41  LEU41       0.0001
     85  CD2      -12.5240    4.6040   15.4110 C.3    41  LEU41       0.0001
     86  N         -7.9000   10.1340   13.1910 N.3    51  TYR51      -0.1227
     87  CA        -7.3890    8.9450   13.8630 C.3    51  TYR51       0.1736
     88  C         -7.8460    7.6810   13.1240 C.2    51  TYR51       0.2595
     89  O         -7.0330    6.8010   12.8190 O.2    51  TYR51      -0.2718
     90  CB        -7.7990    8.8990   15.3440 C.3    51  TYR51       0.0548
     91  CG        -7.4820    7.5550   15.9630 C.ar   51  TYR51      -0.0200
     92  CD1       -6.1600    7.1550   16.1500 C.ar   51  TYR51      -0.0009
     93  CD2       -8.5030    6.6830   16.3410 C.ar   51  TYR51      -0.0009
     94  CE1       -5.8580    5.9220   16.6960 C.ar   51  TYR51       0.0417
     95  CE2       -8.2190    5.4450   16.8960 C.ar   51  TYR51       0.0417
     96  CZ        -6.8900    5.0770   17.0550 C.ar   51  TYR51       0.1957
     97  OH        -6.5650    3.8500   17.5680 O.3    51  TYR51      -0.2866
     98  N         -9.1380    7.6110   12.8080 N.am   52  ALA52      -0.1980
     99  CA        -9.6830    6.4740   12.0690 C.3    52  ALA52       0.1597
    100  C         -8.9960    6.3100   10.7140 C.2    52  ALA52       0.2287
    101  O         -8.6040    5.1970   10.3520 O.2    52  ALA52      -0.2864
    102  CB       -11.1900    6.6020   11.9030 C.3    52  ALA52       0.0319
    103  N         -5.5380    4.7600   11.1910 N.3    55  VAL55      -0.1231
    104  CA        -5.4980    3.3350   11.4780 C.3    55  VAL55       0.1692
    105  C         -5.8820    2.5270   10.2420 C.2    55  VAL55       0.2591
    106  O         -5.2240    1.5280    9.9350 O.2    55  VAL55      -0.2718
    107  CB        -6.3530    2.9610   12.6980 C.3    55  VAL55       0.0266
    108  CG1       -6.3370    1.4540   12.9340 C.3    55  VAL55       0.0020
    109  CG2       -5.8520    3.6870   13.9430 C.3    55  VAL55       0.0020
    110  N         -6.9160    2.9690    9.5240 N.am   56  LEU56      -0.1980
    111  CA        -7.3160    2.2950    8.2890 C.3    56  LEU56       0.1596
    112  C         -6.1700    2.2570    7.2750 C.2    56  LEU56       0.2287
    113  O         -5.9610    1.2460    6.5950 O.2    56  LEU56      -0.2864
    114  CB        -8.5680    2.9380    7.6720 C.3    56  LEU56       0.0297
    115  CG        -9.8670    2.7780    8.4710 C.3    56  LEU56       0.0022
    116  CD1      -10.9200    3.7810    8.0280 C.3    56  LEU56       0.0001
    117  CD2      -10.4010    1.3640    8.3520 C.3    56  LEU56       0.0001
    118  N         -3.2680   -0.1430    8.7890 N.3    59  LEU59      -0.1245
    119  CA        -3.6380   -1.5550    8.6470 C.3    59  LEU59       0.1561
    120  C         -3.8260   -1.9580    7.1850 C.2    59  LEU59       0.2260
    121  O         -4.0150   -3.1400    6.8810 O.2    59  LEU59      -0.2867
    122  CB        -4.9060   -1.8730    9.4440 C.3    59  LEU59       0.0270
    123  CG        -4.8360   -1.6870   10.9640 C.3    59  LEU59       0.0019
    124  CD1       -6.1600   -2.0870   11.5820 C.3    59  LEU59       0.0001
    125  CD2       -3.6890   -2.4580   11.5980 C.3    59  LEU59       0.0001
    126  N         -6.2200   -1.4010    5.2130 N.3    61  ILE61      -0.1245
    127  CA        -7.6240   -1.5800    4.8560 C.3    61  ILE61       0.1561
    128  C         -8.0260   -0.5250    3.8120 C.2    61  ILE61       0.2260
    129  O         -8.8060   -0.8020    2.8860 O.2    61  ILE61      -0.2867
    130  CB        -8.5150   -1.5130    6.1270 C.3    61  ILE61       0.0252
    131  CG1       -8.2060   -2.6870    7.0530 C.3    61  ILE61       0.0019
    132  CG2       -9.9950   -1.5220    5.7580 C.3    61  ILE61       0.0019
    133  CD1       -8.7950   -2.5340    8.4430 C.3    61  ILE61       0.0001
    134  N        -16.6030    3.9430    7.1040 N.3   116  TYR116     -0.1241
    135  CA       -16.1760    2.8030    7.8950 C.3   116  TYR116      0.1605
    136  C        -16.9850    2.6000    9.1700 C.2   116  TYR116      0.2264
    137  O        -17.0860    1.4770    9.6520 O.2   116  TYR116     -0.2867
    138  CB       -14.6760    2.8800    8.2130 C.3   116  TYR116      0.0534
    139  CG       -14.1470    1.5960    8.8100 C.ar  116  TYR116     -0.0201
    140  CD1      -14.0520    0.4390    8.0430 C.ar  116  TYR116     -0.0009
    141  CD2      -13.7700    1.5360   10.1510 C.ar  116  TYR116     -0.0009
    142  CE1      -13.5880   -0.7460    8.5960 C.ar  116  TYR116      0.0417
    143  CE2      -13.3030    0.3580   10.7140 C.ar  116  TYR116      0.0417
    144  CZ       -13.2250   -0.7800    9.9260 C.ar  116  TYR116      0.1957
    145  OH       -12.7680   -1.9560   10.4780 O.3   116  TYR116     -0.2866
    146  N        -17.2740   -0.8690   11.1690 N.3   120  HIS120     -0.1241
    147  CA       -16.6640   -0.9830   12.4850 C.3   120  HIS120      0.1621
    148  C        -17.6670   -1.4190   13.5510 C.2   120  HIS120      0.2264
    149  O        -17.4000   -2.3360   14.3250 O.2   120  HIS120     -0.2867
    150  CB       -16.0780    0.3680   12.8770 C.3   120  HIS120      0.0745
    151  CG       -15.5290    0.3980   14.2650 C.ar  120  HIS120      0.0817
    152  ND1      -14.2740   -0.0780   14.5860 N.ar  120  HIS120     -0.2268
    153  CD2      -16.0660    0.8620   15.4170 C.ar  120  HIS120      0.1154
    154  CE1      -14.0710    0.0780   15.8830 C.ar  120  HIS120      0.1986
    155  NE2      -15.1360    0.6580   16.4070 N.ar  120  HIS120     -0.2212
    156  N        -10.7580   -6.8850   15.6880 N.3   128  ARG128     -0.1245
    157  CA        -9.7680   -6.9940   16.7510 C.3   128  ARG128      0.1563
    158  C         -9.0720   -8.3470   16.7650 C.2   128  ARG128      0.2260
    159  O         -7.9060   -8.4440   17.1560 O.2   128  ARG128     -0.2867
    160  CB       -10.3860   -6.6870   18.1190 C.3   128  ARG128      0.0307
    161  CG       -10.9470   -5.2720   18.2210 C.3   128  ARG128      0.0489
    162  CD       -11.5040   -4.9560   19.6050 C.3   128  ARG128      0.2205
    163  NE       -10.4290   -4.8690   20.5850 N.pl3 128  ARG128     -0.0865
    164  CZ       -10.5680   -4.4460   21.8350 C.cat 128  ARG128      0.5346
    165  NH1      -11.7540   -4.0720   22.2900 N.pl3 128  ARG128      0.1354
    166  NH2       -9.5070   -4.3990   22.6290 N.pl3 128  ARG128      0.1354
    167  N         -5.0450   -8.1280   15.4110 N.3   132  HIS132     -0.1226
    168  CA        -4.2150   -8.2240   16.6180 C.3   132  HIS132      0.1752
    169  C         -4.4680   -7.0460   17.5440 C.2   132  HIS132      0.2597
    170  O         -3.5450   -6.3960   18.0470 O.2   132  HIS132     -0.2718
    171  CB        -2.7350   -8.3670   16.2230 C.3   132  HIS132      0.0759
    172  CG        -2.5270   -9.3130   15.0810 C.ar  132  HIS132      0.0818
    173  ND1       -3.0220  -10.6020   15.0900 N.ar  132  HIS132     -0.2268
    174  CD2       -1.9220   -9.1440   13.8830 C.ar  132  HIS132      0.1154
    175  CE1       -2.7070  -11.1930   13.9500 C.ar  132  HIS132      0.1986
    176  NE2       -2.0290  -10.3350   13.2070 N.ar  132  HIS132     -0.2212
    177  N         -5.7530   -6.7900   17.7550 N.am  133  GLY133     -0.1942
    178  CA        -6.2190   -5.6780   18.5730 C.3   133  GLY133      0.2014
    179  C         -6.7630   -6.0620   19.9390 C.2   133  GLY133      0.2640
    180  O         -7.5910   -5.3430   20.4970 O.2   133  GLY133     -0.2714
    181  N         -6.3090   -7.1940   20.4750 N.am  134  THR134     -0.1936
    182  CA        -6.5800   -7.5630   21.8680 C.3   134  THR134      0.2028
    183  C         -5.2790   -8.0150   22.4850 C.2   134  THR134      0.2642
    184  O         -4.4290   -8.5960   21.8020 O.2   134  THR134     -0.2714
    185  CB        -7.6150   -8.7120   22.0120 C.3   134  THR134      0.1808
    186  OG1       -7.0620   -9.9470   21.5210 O.3   134  THR134     -0.2208
    187  CG2       -8.9220   -8.3880   21.2840 C.3   134  THR134      0.0379
    188  N         -5.1350   -7.7950   23.7860 N.am  135  VAL135     -0.1977
    189  CA        -3.9330   -8.2370   24.4980 C.3   135  VAL135      0.1596
    190  C         -3.7760   -9.7700   24.4140 C.2   135  VAL135      0.2287
    191  O         -2.7000  -10.2690   24.0760 O.2   135  VAL135     -0.2864
    192  CB        -3.9200   -7.7240   25.9710 C.3   135  VAL135      0.0276
    193  CG1       -2.7180   -8.2770   26.7530 C.3   135  VAL135      0.0022
    194  CG2       -3.9210   -6.1940   26.0020 C.3   135  VAL135      0.0022
    195  N         -3.0810  -10.9670   20.6770 N.3   138  ALA138     -0.1245
    196  CA        -1.7050  -10.6500   20.2720 C.3   138  ALA138      0.1562
    197  C         -0.7050  -11.5670   20.9750 C.2   138  ALA138      0.2260
    198  O          0.2670  -12.0120   20.3540 O.2   138  ALA138     -0.2867
    199  CB        -1.3700   -9.1800   20.5140 C.3   138  ALA138      0.0290
    200  N          2.4550  -13.7620   19.3130 N.3   142  TYR142     -0.1241
    201  CA         3.8660  -13.7530   19.7190 C.3   142  TYR142      0.1605
    202  C          4.3490  -15.1350   20.1250 C.2   142  TYR142      0.2264
    203  O          5.4560  -15.5370   19.7710 O.2   142  TYR142     -0.2867
    204  CB         4.1190  -12.7770   20.8690 C.3   142  TYR142      0.0534
    205  CG         3.9100  -11.3270   20.5130 C.ar  142  TYR142     -0.0201
    206  CD1        4.7160  -10.6960   19.5590 C.ar  142  TYR142     -0.0009
    207  CD2        2.9340  -10.5720   21.1550 C.ar  142  TYR142     -0.0009
    208  CE1        4.5260   -9.3670   19.2310 C.ar  142  TYR142      0.0417
    209  CE2        2.7400   -9.2320   20.8470 C.ar  142  TYR142      0.0417
    210  CZ         3.5370   -8.6310   19.8810 C.ar  142  TYR142      0.1957
    211  OH         3.3600   -7.3030   19.5480 O.3   142  TYR142     -0.2866
    212  N          6.9870   -7.2800   22.7830 N.3   151  LYS151     -0.1245
    213  CA         6.8730   -6.1150   23.6580 C.3   151  LYS151      0.1561
    214  C          7.9770   -6.2390   24.7070 C.2   151  LYS151      0.2260
    215  O          8.2960   -7.3440   25.1600 O.2   151  LYS151     -0.2867
    216  CB         5.5150   -6.0580   24.3670 C.3   151  LYS151      0.0271
    217  CG         4.2970   -5.8220   23.4740 C.3   151  LYS151      0.0035
    218  CD         3.0600   -5.5440   24.3350 C.3   151  LYS151      0.0206
    219  CE         2.6530   -6.7730   25.1310 C.3   151  LYS151      0.1093
    220  NZ         1.6780   -6.4530   26.2180 N.3   151  LYS151     -0.1314
    221  N          2.4950    7.4870   24.9020 N.3   272  LEU272     -0.1245
    222  CA         1.0360    7.5510   24.7230 C.3   272  LEU272      0.1561
    223  C          0.2800    8.3140   25.8070 C.2   272  LEU272      0.2260
    224  O         -0.7460    8.9310   25.5150 O.2   272  LEU272     -0.2867
    225  CB         0.4390    6.1570   24.4970 C.3   272  LEU272      0.0270
    226  CG         0.9790    5.3530   23.2990 C.3   272  LEU272      0.0019
    227  CD1        0.0620    4.1820   22.9700 C.3   272  LEU272      0.0001
    228  CD2        1.2310    6.2030   22.0470 C.3   272  LEU272      0.0001
@<TRIPOS>BOND
     1   129   128    2
     2   128   127    1
     3   127   126    1
     4   127   130    1
     5   132   130    1
     6   130   131    1
     7   113   112    2
     8   121   120    2
     9   131   133    1
    10   134   135    1
    11   120   119    1
    12   112   111    1
    13   114   111    1
    14   114   115    1
    15   135   138    1
    16   135   136    1
    17   116   115    1
    18   140   142   ar
    19   140   139   ar
    20   138   139    1
    21   111   110    1
    22   117   115    1
    23   142   144   ar
    24   119   118    1
    25   119   122    1
    26   139   141   ar
    27   136   137    2
    28   122   123    1
    29   110   105   am
    30   144   145    1
    31   144   143   ar
    32   106   105    2
    33   141   143   ar
    34   105   104    1
    35   101   100    2
    36   100    99    1
    37   123   124    1
    38   123   125    1
    39   146   147    1
    40   103   104    1
    41   104   107    1
    42   102    99    1
    43    99    98    1
    44   147   150    1
    45   147   148    1
    46   107   108    1
    47   107   109    1
    48    98    88   am
    49    89    88    2
    50   150   151    1
    51    88    87    1
    52    86    87    1
    53   176   174   ar
    54   176   175   ar
    55   148   149    2
    56    84    83    1
    57    87    90    1
    58   174   172   ar
    59   175   173   ar
    60   151   152   ar
    61   151   153   ar
    62   152   154   ar
    63   172   173   ar
    64   172   171    1
    65    20    19    1
    66    83    85    1
    67    83    82    1
    68    90    91    1
    69   167   168    1
    70   153   155   ar
    71    17    19   ar
    72    17    15   ar
    73     9    10    1
    74   156   157    1
    75    19    18   ar
    76    82    79    1
    77   154   155   ar
    78    91    92   ar
    79    91    93   ar
    80    76    77   ar
    81    76    74   ar
    82    15    14   ar
    83    92    94   ar
    84   171   168    1
    85     1     2    1
    86    77    75   ar
    87    93    95   ar
    88   168   169    1
    89    10    11    1
    90    10    13    1
    91    18    16   ar
    92    94    96   ar
    93   157   158    1
    94   157   160    1
    95   158   159    2
    96    81    80    2
    97    95    96   ar
    98    14    16   ar
    99    14    13    1
   100    74    71   ar
   101     3     2    1
   102     3     4    2
   103    96    97    1
   104    79    80    1
   105    79    78    1
   106     2     5    1
   107    11    12    2
   108    11    21   am
   109   169   177   am
   110   169   170    2
   111    75    73   ar
   112    30    31    1
   113   177   178    1
   114    21    22    1
   115    23    24    2
   116    23    22    1
   117    28    29    1
   118    28    27    1
   119   160   161    1
   120   161   162    1
   121    71    73   ar
   122    71    69   ar
   123     5     6    1
   124    26    27    1
   125    26    25    1
   126   178   179    1
   127    73    72   ar
   128    55    53   ar
   129    55    54   ar
   130    22    25    1
   131    53    51   ar
   132    31    32    1
   133    31    34    1
   134    32    33    2
   135    67    66    2
   136    54    52   ar
   137    51    50   ar
   138    51    49   ar
   139   208   206   ar
   140   208   210   ar
   141   200   201    1
   142    50    48   ar
   143    69    68    1
   144    69    70   ar
   145   211   210    1
   146   206   205   ar
   147   162   163    1
   148    52    49   ar
   149   201   202    1
   150   201   204    1
   151    49    47   ar
   152    68    65    1
   153    37    39   ar
   154    37    35   ar
   155   203   202    2
   156    66    65    1
   157     6     7    1
   158     6     8    1
   159   210   209   ar
   160    72    70   ar
   161   179   181   am
   162   179   180    2
   163    48    47   ar
   164    34    35    1
   165    65    64    1
   166    47    46    1
   167    39    40   ar
   168   196   199    1
   169   196   195    1
   170   196   197    1
   171   198   197    2
   172   181   182    1
   173   205   204    1
   174   205   207   ar
   175   163   164    2
   176    35    36   ar
   177    46    43    1
   178   209   207   ar
   179   187   185    1
   180    45    44    2
   181    43    44    1
   182    43    42    1
   183   186   185    1
   184    40    41    1
   185    40    38   ar
   186   184   183    2
   187   164   165    1
   188   164   166    1
   189   182   185    1
   190   182   183    1
   191    36    38   ar
   192    44    56   am
   193   228   226    1
   194   183   188   am
   195   212   213    1
   196   227   226    1
   197   226   225    1
   198    56    57    1
   199   217   218    1
   200   217   216    1
   201   213   216    1
   202   213   214    1
   203   188   189    1
   204    59    58    2
   205    58    57    1
   206    57    60    1
   207   191   190    2
   208   218   219    1
   209   190   189    1
   210   225   222    1
   211   189   192    1
   212    62    61    2
   213   214   215    2
   214   222   221    1
   215   222   223    1
   216   219   220    1
   217    60    61    1
   218   224   223    2
   219    61    63   am
   220   192   194    1
   221   192   193    1
