@<TRIPOS>MOLECULE
tmp/3ni2A01.pdb
 107 103 0 0 0
SMALL
GASTEIGER

@<TRIPOS>ATOM
      1  N        -22.4610   27.1370  -14.3380 N.3   108  GLU108     -0.1245
      2  CA       -21.4320   26.1030  -14.3880 C.3   108  GLU108      0.1567
      3  C        -20.5220   26.1690  -13.1670 C.2   108  GLU108      0.2260
      4  O        -20.1700   25.1410  -12.5910 O.2   108  GLU108     -0.2867
      5  CB       -20.5970   26.2500  -15.6620 C.3   108  GLU108      0.0388
      6  CG       -21.3910   26.0500  -16.9420 C.3   108  GLU108      0.1160
      7  CD       -20.5720   26.3370  -18.1810 C.2   108  GLU108      0.3649
      8  OE1      -19.8560   27.3600  -18.1830 O.co2 108  GLU108     -0.2457
      9  OE2      -20.6510   25.5520  -19.1550 O.co2 108  GLU108     -0.2457
     10  N        -22.3890   24.8300  -10.0330 N.3   111  LYS111     -0.1231
     11  CA       -22.5400   23.3870  -10.1200 C.3   111  LYS111      0.1693
     12  C        -21.2030   22.7060   -9.8150 C.2   111  LYS111      0.2592
     13  O        -21.1580   21.7000   -9.1090 O.2   111  LYS111     -0.2718
     14  CB       -23.0220   23.0000  -11.5170 C.3   111  LYS111      0.0285
     15  CG       -24.4180   23.4820  -11.8640 C.3   111  LYS111      0.0035
     16  CD       -24.7640   23.1890  -13.3190 C.3   111  LYS111      0.0206
     17  CE       -24.8430   21.6900  -13.5860 C.3   111  LYS111      0.1093
     18  NZ       -25.9120   21.0320  -12.7700 N.3   111  LYS111     -0.1314
     19  N        -20.1190   23.2700  -10.3430 N.am  112  HIS112     -0.1976
     20  CA       -18.7810   22.7190  -10.1370 C.3   112  HIS112      0.1656
     21  C        -18.3900   22.7940   -8.6610 C.2   112  HIS112      0.2291
     22  O        -17.9210   21.8130   -8.0840 O.2   112  HIS112     -0.2864
     23  CB       -17.7690   23.4920  -10.9960 C.3   112  HIS112      0.0771
     24  CG       -16.4250   22.8370  -11.0990 C.ar  112  HIS112      0.0820
     25  ND1      -15.7850   22.6470  -12.3050 N.ar  112  HIS112     -0.2267
     26  CD2      -15.5860   22.3610  -10.1480 C.ar  112  HIS112      0.1154
     27  CE1      -14.6090   22.0820  -12.0920 C.ar  112  HIS112      0.1986
     28  NE2      -14.4640   21.8990  -10.7920 N.ar  112  HIS112     -0.2212
     29  N        -20.6590   20.2510   -6.6140 N.3   115  ALA115     -0.1245
     30  CA       -20.3420   18.8510   -6.8580 C.3   115  ALA115      0.1562
     31  C        -19.0030   18.4440   -6.2550 C.2   115  ALA115      0.2260
     32  O        -18.8540   17.3270   -5.7590 O.2   115  ALA115     -0.2867
     33  CB       -20.3340   18.5780   -8.3400 C.3   115  ALA115      0.0290
     34  N        -12.4070   17.6340  -14.0490 N.3   181  TYR181     -0.1227
     35  CA       -13.6780   17.0570  -14.4760 C.3   181  TYR181      0.1736
     36  C        -13.6060   16.5410  -15.9030 C.2   181  TYR181      0.2596
     37  O        -12.9220   17.1190  -16.7520 O.2   181  TYR181     -0.2718
     38  CB       -14.8220   18.0640  -14.3000 C.3   181  TYR181      0.0548
     39  CG       -15.4130   17.9980  -12.9140 C.ar  181  TYR181     -0.0200
     40  CD1      -14.6600   18.3640  -11.8000 C.ar  181  TYR181     -0.0009
     41  CD2      -16.6840   17.4540  -12.7000 C.ar  181  TYR181     -0.0009
     42  CE1      -15.1450   18.1800  -10.5090 C.ar  181  TYR181      0.0417
     43  CE2      -17.1800   17.2650  -11.4070 C.ar  181  TYR181      0.0417
     44  CZ       -16.4000   17.6250  -10.3190 C.ar  181  TYR181      0.1957
     45  OH       -16.8470   17.3950   -9.0380 O.3   181  TYR181     -0.2866
     46  N        -14.3090   15.4380  -16.1490 N.am  182  SER182     -0.1952
     47  CA       -14.3330   14.7850  -17.4540 C.3   182  SER182      0.1924
     48  C        -15.6080   13.9530  -17.6050 C.2   182  SER182      0.2314
     49  O        -16.1140   13.4080  -16.6260 O.2   182  SER182     -0.2863
     50  CB       -13.1130   13.8680  -17.5870 C.3   182  SER182      0.2116
     51  OG       -13.2250   13.0260  -18.7160 O.3   182  SER182     -0.2180
     52  N        -20.4050   15.1990  -17.0800 N.3   189  PRO189     -0.2116
     53  CA       -19.0820   15.4870  -16.5320 C.3   189  PRO189      0.1372
     54  C        -19.0140   14.9000  -15.1240 C.2   189  PRO189      0.2244
     55  O        -19.9810   14.9940  -14.3560 O.2   189  PRO189     -0.2868
     56  CB       -19.0480   17.0050  -16.5190 C.3   189  PRO189      0.0268
     57  CG       -19.8440   17.3510  -17.7500 C.3   189  PRO189      0.0207
     58  CD       -21.0200   16.4180  -17.6370 C.3   189  PRO189      0.0892
     59  N         -6.9230   22.1730  -17.1440 N.3   230  HIS230     -0.1241
     60  CA        -7.1790   20.8990  -17.7990 C.3   230  HIS230      0.1621
     61  C         -5.9070   20.0610  -17.6980 C.2   230  HIS230      0.2264
     62  O         -4.8010   20.6000  -17.5920 O.2   230  HIS230     -0.2867
     63  CB        -7.6420   21.0950  -19.2440 C.3   230  HIS230      0.0745
     64  CG        -9.0600   21.5670  -19.3450 C.ar  230  HIS230      0.0817
     65  ND1      -10.0890   20.9780  -18.6390 N.ar  230  HIS230     -0.2268
     66  CD2       -9.6170   22.5890  -20.0370 C.ar  230  HIS230      0.1154
     67  CE1      -11.2170   21.6210  -18.8870 C.ar  230  HIS230      0.1986
     68  NE2      -10.9580   22.6020  -19.7330 N.ar  230  HIS230     -0.2212
     69  N        -13.5640   19.3650  -24.0860 N.3   439  GLN439     -0.1245
     70  CA       -14.5930   18.3400  -24.0630 C.3   439  GLN439      0.1566
     71  C        -15.9620   18.9910  -24.1510 C.2   439  GLN439      0.2260
     72  O        -16.2140   20.0220  -23.5230 O.2   439  GLN439     -0.2867
     73  CB       -14.5510   17.5460  -22.7570 C.3   439  GLN439      0.0367
     74  CG       -13.6260   16.3560  -22.7410 C.3   439  GLN439      0.0905
     75  CD       -13.8270   15.5190  -21.4930 C.2   439  GLN439      0.2608
     76  OE1      -14.9510   15.3990  -20.9940 O.2   439  GLN439     -0.2717
     77  NE2      -12.7480   14.9260  -20.9890 N.am  439  GLN439     -0.0878
     78  N        -24.5890   16.4340  -21.4380 N.3   444  GLU444     -0.1245
     79  CA       -24.7300   17.6660  -20.6770 C.3   444  GLU444      0.1567
     80  C        -25.6600   18.6540  -21.3830 C.2   444  GLU444      0.2260
     81  O        -26.5640   19.2220  -20.7640 O.2   444  GLU444     -0.2867
     82  CB       -23.3560   18.3010  -20.4570 C.3   444  GLU444      0.0388
     83  CG       -23.4030   19.6520  -19.7710 C.3   444  GLU444      0.1160
     84  CD       -22.0200   20.1750  -19.4290 C.2   444  GLU444      0.3649
     85  OE1      -21.0900   19.9570  -20.2280 O.co2 444  GLU444     -0.2457
     86  OE2      -21.8670   20.8130  -18.3670 O.co2 444  GLU444     -0.2457
     87  N        -17.6160   27.6200  -25.8490 N.3   500  TYR500     -0.1227
     88  CA       -17.4150   26.5170  -26.7860 C.3   500  TYR500      0.1736
     89  C        -18.4730   25.4130  -26.7640 C.2   500  TYR500      0.2595
     90  O        -18.4410   24.5050  -27.5990 O.2   500  TYR500     -0.2718
     91  CB       -16.0200   25.9070  -26.6020 C.3   500  TYR500      0.0548
     92  CG       -15.7460   25.3090  -25.2410 C.ar  500  TYR500     -0.0200
     93  CD1      -16.2170   24.0390  -24.9020 C.ar  500  TYR500     -0.0009
     94  CD2      -14.9930   26.0070  -24.2980 C.ar  500  TYR500     -0.0009
     95  CE1      -15.9390   23.4780  -23.6540 C.ar  500  TYR500      0.0417
     96  CE2      -14.7100   25.4590  -23.0520 C.ar  500  TYR500      0.0417
     97  CZ       -15.1830   24.1980  -22.7360 C.ar  500  TYR500      0.1957
     98  OH       -14.8990   23.6680  -21.5020 O.3   500  TYR500     -0.2866
     99  N        -19.4100   25.4880  -25.8260 N.am  501  LYS501     -0.1980
    100  CA       -20.4660   24.4830  -25.7480 C.3   501  LYS501      0.1596
    101  C        -21.7540   24.9670  -26.4170 C.2   501  LYS501      0.2287
    102  O        -22.7690   24.2760  -26.3970 O.2   501  LYS501     -0.2864
    103  CB       -20.7360   24.0980  -24.2880 C.3   501  LYS501      0.0298
    104  CG       -19.5930   23.3020  -23.6560 C.3   501  LYS501      0.0038
    105  CD       -19.8710   22.9480  -22.1950 C.3   501  LYS501      0.0206
    106  CE       -18.7100   22.1540  -21.5950 C.3   501  LYS501      0.1093
    107  NZ       -18.9730   21.7240  -20.1840 N.3   501  LYS501     -0.1314
@<TRIPOS>BOND
     1    90    89    2
     2    88    89    1
     3    88    91    1
     4    88    87    1
     5    89    99   am
     6    91    92    1
     7   101   102    2
     8   101   100    1
     9    99   100    1
    10   100   103    1
    11    92    93   ar
    12    92    94   ar
    13    93    95   ar
    14    94    96   ar
    15   103   104    1
    16    71    70    1
    17    71    72    2
    18    69    70    1
    19    70    73    1
    20   104   105    1
    21    95    97   ar
    22    96    97   ar
    23    73    74    1
    24    74    75    1
    25    97    98    1
    26   105   106    1
    27   106   107    1
    28    75    76    2
    29    75    77   am
    30    78    79    1
    31    80    81    2
    32    80    79    1
    33    79    82    1
    34    82    83    1
    35    85    84   ar
    36    66    68   ar
    37    66    64   ar
    38    83    84    1
    39    68    67   ar
    40    84    86   ar
    41    64    63    1
    42    64    65   ar
    43    63    60    1
    44     9     7   ar
    45    67    65   ar
    46    51    50    1
    47     8     7   ar
    48     7     6    1
    49    60    61    1
    50    60    59    1
    51    57    58    1
    52    57    56    1
    53    61    62    2
    54    58    52    1
    55    48    47    1
    56    48    49    2
    57    50    47    1
    58    47    46    1
    59    52    53    1
    60     6     5    1
    61    37    36    2
    62    53    56    1
    63    53    54    1
    64    46    36   am
    65    36    35    1
    66     5     2    1
    67    54    55    2
    68    35    38    1
    69    35    34    1
    70     2     1    1
    71     2     3    1
    72    38    39    1
    73    17    16    1
    74    17    18    1
    75    16    15    1
    76     3     4    2
    77    39    41   ar
    78    39    40   ar
    79    41    43   ar
    80    25    27   ar
    81    25    24   ar
    82    27    28   ar
    83    15    14    1
    84    40    42   ar
    85    14    11    1
    86    43    44   ar
    87    24    23    1
    88    24    26   ar
    89    23    20    1
    90    28    26   ar
    91    42    44   ar
    92    19    20    1
    93    19    12   am
    94    44    45    1
    95    20    21    1
    96    11    10    1
    97    11    12    1
    98    12    13    2
    99    21    22    2
   100    33    30    1
   101    30    29    1
   102    30    31    1
   103    31    32    2
