@<TRIPOS>MOLECULE
tmp/3ni2A02.pdb
 108 100 0 0 0
SMALL
GASTEIGER

@<TRIPOS>ATOM
      1  N         -7.4120   17.2100    3.0360 N.3    70  GLY70      -0.1210
      2  CA        -8.5720   16.5450    2.4720 C.3    70  GLY70       0.1956
      3  C         -9.6240   17.4810    1.8990 C.2    70  GLY70       0.2612
      4  O        -10.4900   17.0380    1.1470 O.2    70  GLY70      -0.2717
      5  N         -9.5640   18.7670    2.2500 N.am   71  ASP71      -0.1959
      6  CA       -10.5320   19.7410    1.7390 C.3    71  ASP71       0.1840
      7  C        -10.2560   20.0710    0.2780 C.2    71  ASP71       0.2621
      8  O         -9.1070   20.0530   -0.1720 O.2    71  ASP71      -0.2715
      9  CB       -10.4850   21.0510    2.5370 C.3    71  ASP71       0.1450
     10  CG       -11.1520   20.9470    3.8950 C.2    71  ASP71       0.3671
     11  OD1      -11.8420   19.9380    4.1570 O.co2  71  ASP71      -0.2456
     12  OD2      -10.9950   21.8930    4.6990 O.co2  71  ASP71      -0.2456
     13  N        -11.3150   20.3870   -0.4550 N.am   72  VAL72      -0.1977
     14  CA       -11.1870   20.7400   -1.8610 C.3    72  VAL72       0.1596
     15  C        -11.1380   22.2580   -2.0410 C.2    72  VAL72       0.2287
     16  O        -11.9010   22.9950   -1.4150 O.2    72  VAL72      -0.2864
     17  CB       -12.3680   20.1700   -2.6840 C.3    72  VAL72       0.0276
     18  CG1      -12.3190   20.6870   -4.1220 C.3    72  VAL72       0.0022
     19  CG2      -12.3060   18.6420   -2.6760 C.3    72  VAL72       0.0022
     20  N         -6.8570   19.2700   -1.8470 N.3    96  ILE96      -0.1245
     21  CA        -7.1340   18.8500   -3.2130 C.3    96  ILE96       0.1561
     22  C         -7.5060   20.0400   -4.0850 C.2    96  ILE96       0.2260
     23  O         -8.2140   20.9460   -3.6470 O.2    96  ILE96      -0.2867
     24  CB        -8.3000   17.8420   -3.2400 C.3    96  ILE96       0.0252
     25  CG1       -7.9530   16.6430   -2.3590 C.3    96  ILE96       0.0019
     26  CG2       -8.5880   17.4070   -4.6740 C.3    96  ILE96       0.0019
     27  CD1       -9.1410   15.8000   -1.9880 C.3    96  ILE96       0.0001
     28  N        -18.0310   19.3500   -6.3000 N.3   116  SER116     -0.1202
     29  CA       -16.7030   19.0650   -5.7690 C.3   116  SER116      0.2020
     30  C        -16.5730   19.3660   -4.2740 C.2   116  SER116      0.2618
     31  O        -15.5650   19.0080   -3.6510 O.2   116  SER116     -0.2717
     32  CB       -15.6500   19.8720   -6.5410 C.3   116  SER116      0.2103
     33  OG       -15.8090   21.2670   -6.3200 O.3   116  SER116     -0.2182
     34  N        -17.5900   20.0140   -3.7070 N.am  117  ARG117     -0.1979
     35  CA       -17.5930   20.3960   -2.2930 C.3   117  ARG117      0.1597
     36  C        -16.4470   21.3490   -1.9680 C.2   117  ARG117      0.2287
     37  O        -15.8380   21.2610   -0.8990 O.2   117  ARG117     -0.2864
     38  CB       -17.4920   19.1650   -1.3810 C.3   117  ARG117      0.0334
     39  CG       -18.8280   18.5610   -0.9750 C.3   117  ARG117      0.0492
     40  CD       -19.5560   17.9350   -2.1440 C.3   117  ARG117      0.2205
     41  NE       -20.9110   17.5360   -1.7710 N.pl3 117  ARG117     -0.0865
     42  CZ       -21.7590   16.9150   -2.5840 C.cat 117  ARG117      0.5346
     43  NH1      -21.3930   16.6140   -3.8240 N.pl3 117  ARG117      0.1354
     44  NH2      -22.9770   16.6010   -2.1600 N.pl3 117  ARG117      0.1354
     45  N         -1.4700    7.4940   -1.9070 N.3   174  ASP174     -0.1225
     46  CA        -2.7980    7.1520   -2.4040 C.3   174  ASP174      0.1805
     47  C         -3.8620    8.2220   -2.1220 C.2   174  ASP174      0.2598
     48  O         -5.0370    8.0420   -2.4580 O.2   174  ASP174     -0.2718
     49  CB        -3.2350    5.7930   -1.8440 C.3   174  ASP174      0.1424
     50  CG        -2.4080    4.6440   -2.4030 C.2   174  ASP174      0.3668
     51  OD1       -2.1920    4.6110   -3.6370 O.co2 174  ASP174     -0.2456
     52  OD2       -1.9790    3.7740   -1.6180 O.co2 174  ASP174     -0.2456
     53  N         -3.4570    9.3320   -1.5080 N.am  175  ASP175     -0.1960
     54  CA        -4.3930   10.4260   -1.2390 C.3   175  ASP175      0.1840
     55  C         -4.6610   11.1680   -2.5480 C.2   175  ASP175      0.2621
     56  O         -3.7680   11.3100   -3.3820 O.2   175  ASP175     -0.2715
     57  CB        -3.8130   11.4340   -0.2380 C.3   175  ASP175      0.1450
     58  CG        -3.8180   10.9270    1.1960 C.2   175  ASP175      0.3671
     59  OD1       -4.4890    9.9160    1.4840 O.co2 175  ASP175     -0.2456
     60  OD2       -3.1550   11.5600    2.0420 O.co2 175  ASP175     -0.2456
     61  N         -5.8880   11.6420   -2.7250 N.am  176  VAL176     -0.1977
     62  CA        -6.2460   12.3930   -3.9250 C.3   176  VAL176      0.1596
     63  C         -5.6420   13.7950   -3.8230 C.2   176  VAL176      0.2287
     64  O         -5.5780   14.3740   -2.7350 O.2   176  VAL176     -0.2864
     65  CB        -7.7830   12.5130   -4.0720 C.3   176  VAL176      0.0276
     66  CG1       -8.1290   13.3910   -5.2680 C.3   176  VAL176      0.0022
     67  CG2       -8.3970   11.1340   -4.2380 C.3   176  VAL176      0.0022
     68  N         -8.5930   17.0380   -8.8950 N.3   179  LEU179     -0.1245
     69  CA        -9.9370   16.6090   -9.2510 C.3   179  LEU179      0.1561
     70  C        -10.4360   17.2620  -10.5380 C.2   179  LEU179      0.2260
     71  O        -11.3870   18.0550  -10.5180 O.2   179  LEU179     -0.2867
     72  CB       -10.8970   16.9380   -8.1080 C.3   179  LEU179      0.0270
     73  CG       -12.3050   16.3530   -8.1630 C.3   179  LEU179      0.0019
     74  CD1      -12.2510   14.8510   -7.8760 C.3   179  LEU179      0.0001
     75  CD2      -13.1820   17.0590   -7.1300 C.3   179  LEU179      0.0001
     76  N        -10.7530   11.4900   -9.7930 N.3   193  MET193     -0.1245
     77  CA        -9.8550   11.5020   -8.6450 C.3   193  MET193      0.1570
     78  C         -8.4550   11.0410   -9.0320 C.2   193  MET193      0.2261
     79  O         -8.2370    9.8570   -9.3150 O.2   193  MET193     -0.2867
     80  CB       -10.3950   10.5970   -7.5300 C.3   193  MET193      0.0387
     81  CG       -11.7970   10.9550   -7.0490 C.3   193  MET193      0.0595
     82  SD       -12.2770   10.0330   -5.5760 S.3   193  MET193     -0.1393
     83  CE       -12.5190    8.4040   -6.2680 C.3   193  MET193      0.0692
     84  N         -7.9220    6.9850   -9.5980 N.3   390  LYS390     -0.1245
     85  CA        -8.3900    6.1560   -8.4960 C.3   390  LYS390      0.1561
     86  C         -9.8320    5.7880   -8.8640 C.2   390  LYS390      0.2260
     87  O        -10.2830    4.6670   -8.6300 O.2   390  LYS390     -0.2867
     88  CB        -8.3730    6.9650   -7.1950 C.3   390  LYS390      0.0271
     89  CG        -9.0640    6.3100   -5.9940 C.3   390  LYS390      0.0035
     90  CD        -9.0940    7.2910   -4.8190 C.3   390  LYS390      0.0206
     91  CE        -9.8820    6.7680   -3.6170 C.3   390  LYS390      0.1093
     92  NZ        -9.2040    5.6310   -2.9280 N.3   390  LYS390     -0.1314
     93  N        -15.3780   10.6360   -8.6270 N.3   393  LEU393     -0.1231
     94  CA       -15.8680   11.1120   -7.3390 C.3   393  LEU393      0.1693
     95  C        -17.3530   10.7980   -7.1330 C.2   393  LEU393      0.2592
     96  O        -18.1910   11.1740   -7.9490 O.2   393  LEU393     -0.2718
     97  CB       -15.6520   12.6290   -7.2230 C.3   393  LEU393      0.0284
     98  CG       -16.2040   13.2900   -5.9560 C.3   393  LEU393      0.0019
     99  CD1      -15.4930   12.7280   -4.7330 C.3   393  LEU393      0.0001
    100  CD2      -16.0260   14.8090   -6.0430 C.3   393  LEU393      0.0001
    101  N        -17.6650   10.1140   -6.0330 N.am  394  ASN394     -0.1974
    102  CA       -19.0450    9.7580   -5.6890 C.3   394  ASN394      0.1688
    103  C        -19.8330    9.1040   -6.8200 C.2   394  ASN394      0.2292
    104  O        -21.0450    9.3030   -6.9310 O.2   394  ASN394     -0.2864
    105  CB       -19.8030   11.0030   -5.2140 C.3   394  ASN394      0.1181
    106  CG       -19.1670   11.6430   -3.9980 C.2   394  ASN394      0.2629
    107  OD1      -18.7620   10.9490   -3.0660 O.2   394  ASN394     -0.2716
    108  ND2      -19.0860   12.9710   -3.9930 N.am  394  ASN394     -0.0877
@<TRIPOS>BOND
     1    70    71    2
     2    70    69    1
     3    76    77    1
     4    84    85    1
     5    79    78    2
     6    69    68    1
     7    69    72    1
     8    78    77    1
     9    86    87    2
    10    86    85    1
    11    77    80    1
    12    93    94    1
    13    85    88    1
    14    73    72    1
    15    73    74    1
    16    73    75    1
    17    96    95    2
    18    80    81    1
    19    94    97    1
    20    94    95    1
    21    97    98    1
    22    88    89    1
    23    95   101   am
    24    81    82    1
    25   104   103    2
    26   103   102    1
    27    32    33    1
    28    32    29    1
    29    28    29    1
    30    83    82    1
    31   100    98    1
    32   101   102    1
    33    89    90    1
    34    98    99    1
    35    29    30    1
    36   102   105    1
    37    66    65    1
    38   105   106    1
    39    90    91    1
    40    26    24    1
    41    30    34   am
    42    30    31    2
    43    67    65    1
    44    18    17    1
    45    22    23    2
    46    22    21    1
    47    65    62    1
    48   106   108   am
    49   106   107    2
    50    62    63    1
    51    62    61    1
    52    43    42    1
    53    63    64    2
    54    34    35    1
    55    51    50   ar
    56    91    92    1
    57    56    55    2
    58    24    21    1
    59    24    25    1
    60    21    20    1
    61    61    55   am
    62    17    19    1
    63    17    14    1
    64    42    44    1
    65    42    41    2
    66    55    54    1
    67    48    47    2
    68    46    47    1
    69    46    45    1
    70    46    49    1
    71    50    49    1
    72    50    52   ar
    73    25    27    1
    74    35    36    1
    75    35    38    1
    76    40    41    1
    77    40    39    1
    78    47    53   am
    79    15    14    1
    80    15    16    2
    81    36    37    2
    82    14    13    1
    83    53    54    1
    84    38    39    1
    85    54    57    1
    86    13     7   am
    87    57    58    1
    88     8     7    2
    89     7     6    1
    90     4     3    2
    91    58    59   ar
    92    58    60   ar
    93     6     5    1
    94     6     9    1
    95     3     5   am
    96     3     2    1
    97     2     1    1
    98     9    10    1
    99    10    11   ar
   100    10    12   ar
