@<TRIPOS>MOLECULE
tmp/3ni2A00.pdb
 209 197 0 0 0
SMALL
GASTEIGER

@<TRIPOS>ATOM
      1  N        -14.3090   15.4380  -16.1490 N.3   182  SER182     -0.1217
      2  CA       -14.3330   14.7850  -17.4540 C.3   182  SER182      0.1889
      3  C        -15.6080   13.9530  -17.6050 C.2   182  SER182      0.2288
      4  O        -16.1140   13.4080  -16.6260 O.2   182  SER182     -0.2866
      5  CB       -13.1130   13.8680  -17.5870 C.3   182  SER182      0.2089
      6  OG       -13.2250   13.0260  -18.7160 O.3   182  SER182     -0.2183
      7  N         -6.9230   22.1730  -17.1440 N.3   230  HIS230     -0.1226
      8  CA        -7.1790   20.8990  -17.7990 C.3   230  HIS230      0.1752
      9  C         -5.9070   20.0610  -17.6980 C.2   230  HIS230      0.2596
     10  O         -4.8010   20.6000  -17.5920 O.2   230  HIS230     -0.2718
     11  CB        -7.6420   21.0950  -19.2440 C.3   230  HIS230      0.0759
     12  CG        -9.0600   21.5670  -19.3450 C.ar  230  HIS230      0.0818
     13  ND1      -10.0890   20.9780  -18.6390 N.ar  230  HIS230     -0.2268
     14  CD2       -9.6170   22.5890  -20.0370 C.ar  230  HIS230      0.1154
     15  CE1      -11.2170   21.6210  -18.8870 C.ar  230  HIS230      0.1986
     16  NE2      -10.9580   22.6020  -19.7330 N.ar  230  HIS230     -0.2212
     17  N         -6.0830   18.7460  -17.7220 N.am  231  ILE231     -0.1966
     18  CA        -5.0030   17.7830  -17.5390 C.3   231  ILE231      0.1727
     19  C         -3.7500   17.8440  -18.4210 C.2   231  ILE231      0.2616
     20  O         -2.6510   17.5750  -17.9400 O.2   231  ILE231     -0.2715
     21  CB        -5.5890   16.3380  -17.5610 C.3   231  ILE231      0.0290
     22  CG1       -4.6520   15.3880  -16.8170 C.3   231  ILE231      0.0022
     23  CG2       -5.8380   15.8830  -18.9940 C.3   231  ILE231      0.0023
     24  CD1       -4.4790   15.7420  -15.3340 C.3   231  ILE231      0.0001
     25  N         -3.8980   18.1930  -19.6950 N.am  232  TYR232     -0.1974
     26  CA        -2.7440   18.2660  -20.5930 C.3   232  TYR232      0.1639
     27  C         -1.6920   19.2200  -20.0070 C.2   232  TYR232      0.2290
     28  O         -0.5690   18.8140  -19.7000 O.2   232  TYR232     -0.2864
     29  CB        -3.2030   18.7590  -21.9750 C.3   232  TYR232      0.0560
     30  CG        -2.1690   18.7240  -23.0950 C.ar  232  TYR232     -0.0198
     31  CD1       -0.7980   18.6850  -22.8280 C.ar  232  TYR232     -0.0009
     32  CD2       -2.5740   18.8080  -24.4290 C.ar  232  TYR232     -0.0009
     33  CE1        0.1470   18.7360  -23.8700 C.ar  232  TYR232      0.0417
     34  CE2       -1.6470   18.8620  -25.4710 C.ar  232  TYR232      0.0417
     35  CZ        -0.2900   18.8280  -25.1890 C.ar  232  TYR232      0.1957
     36  OH         0.6180   18.9010  -26.2300 O.3   232  TYR232     -0.2866
     37  N          1.6510   17.3470  -18.2960 N.3   236  SER236     -0.1217
     38  CA         2.7360   17.4010  -19.2690 C.3   236  SER236      0.1889
     39  C          3.5230   18.7030  -19.3600 C.2   236  SER236      0.2288
     40  O          4.6530   18.7080  -19.8460 O.2   236  SER236     -0.2866
     41  CB         2.2040   17.0180  -20.6490 C.3   236  SER236      0.2089
     42  OG         1.7480   15.6700  -20.6490 O.3   236  SER236     -0.2183
     43  N          4.8760   19.5200  -29.8710 N.3   299  LYS299     -0.1245
     44  CA         4.0870   18.3500  -29.5170 C.3   299  LYS299      0.1561
     45  C          2.6060   18.6570  -29.6180 C.2   299  LYS299      0.2260
     46  O          2.1220   19.6190  -29.0270 O.2   299  LYS299     -0.2867
     47  CB         4.4040   17.8870  -28.0890 C.3   299  LYS299      0.0271
     48  CG         3.5120   16.7290  -27.6250 C.3   299  LYS299      0.0035
     49  CD         3.9410   16.1510  -26.2810 C.3   299  LYS299      0.0206
     50  CE         3.6630   17.0990  -25.1350 C.3   299  LYS299      0.1093
     51  NZ         3.9060   16.4320  -23.8250 N.3   299  LYS299     -0.1314
     52  N         -1.3330   17.2240  -29.0940 N.3   301  GLY301     -0.1210
     53  CA        -2.0860   16.2140  -28.3790 C.3   301  GLY301      0.1956
     54  C         -3.4890   16.7010  -28.0920 C.2   301  GLY301      0.2612
     55  O         -3.8260   17.8450  -28.4110 O.2   301  GLY301     -0.2717
     56  N         -4.3140   15.8310  -27.5120 N.am  302  GLY302     -0.1942
     57  CA        -5.6690   16.2170  -27.1510 C.3   302  GLY302      0.2014
     58  C         -6.7580   16.0310  -28.1870 C.2   302  GLY302      0.2639
     59  O         -7.9400   16.0030  -27.8450 O.2   302  GLY302     -0.2714
     60  N         -6.3740   15.9170  -29.4510 N.am  303  ALA303     -0.1963
     61  CA        -7.3440   15.7390  -30.5200 C.3   303  ALA303      0.1713
     62  C         -6.6270   15.2480  -31.7620 C.2   303  ALA303      0.2458
     63  O         -5.4010   15.3210  -31.8520 O.2   303  ALA303     -0.2730
     64  CB        -8.0640   17.0620  -30.8080 C.3   303  ALA303      0.0333
     65  N         -7.3820   14.7220  -32.7370 N.am  304  PRO304     -0.2727
     66  CA        -6.7920   14.2180  -33.9780 C.3   304  PRO304      0.1402
     67  C         -5.9950   15.2850  -34.7240 C.2   304  PRO304      0.2269
     68  O         -6.3870   16.4510  -34.7640 O.2   304  PRO304     -0.2865
     69  CB        -8.0130   13.7630  -34.7770 C.3   304  PRO304      0.0296
     70  CG        -8.9740   13.3500  -33.7160 C.3   304  PRO304      0.0237
     71  CD        -8.8330   14.4580  -32.7060 C.3   304  PRO304      0.0939
     72  N          3.4480   13.6320  -31.6030 N.3   324  GLN324     -0.1231
     73  CA         2.2000   13.6330  -30.8490 C.3   324  GLN324      0.1698
     74  C          2.2840   12.9520  -29.4920 C.2   324  GLN324      0.2593
     75  O          3.1960   12.1800  -29.2070 O.2   324  GLN324     -0.2718
     76  CB         1.0900   12.9310  -31.6330 C.3   324  GLN324      0.0381
     77  CG         0.6110   13.6420  -32.8750 C.3   324  GLN324      0.0905
     78  CD        -0.6990   13.0650  -33.3690 C.2   324  GLN324      0.2608
     79  OE1       -1.7180   13.1390  -32.6800 O.2   324  GLN324     -0.2717
     80  NE2       -0.6800   12.4760  -34.5570 N.am  324  GLN324     -0.0878
     81  N          1.2930   13.2570  -28.6710 N.am  325  GLY325     -0.1942
     82  CA         1.1670   12.6690  -27.3560 C.3   325  GLY325      0.2014
     83  C         -0.3050   12.3090  -27.2960 C.2   325  GLY325      0.2639
     84  O         -1.1410   13.0700  -27.7890 O.2   325  GLY325     -0.2714
     85  N         -0.6280   11.1530  -26.7280 N.am  326  TYR326     -0.1959
     86  CA        -2.0180   10.7150  -26.6160 C.3   326  TYR326      0.1771
     87  C         -2.3640   10.5420  -25.1470 C.2   326  TYR326      0.2620
     88  O         -1.7180    9.7680  -24.4390 O.2   326  TYR326     -0.2715
     89  CB        -2.2100    9.3970  -27.3750 C.3   326  TYR326      0.0574
     90  CG        -3.4400    8.5850  -27.0000 C.ar  326  TYR326     -0.0198
     91  CD1       -4.7000    9.1770  -26.8940 C.ar  326  TYR326     -0.0009
     92  CD2       -3.3460    7.2010  -26.8130 C.ar  326  TYR326     -0.0009
     93  CE1       -5.8440    8.4060  -26.6110 C.ar  326  TYR326      0.0417
     94  CE2       -4.4750    6.4240  -26.5370 C.ar  326  TYR326      0.0417
     95  CZ        -5.7180    7.0310  -26.4380 C.ar  326  TYR326      0.1957
     96  OH        -6.8280    6.2580  -26.1720 O.3   326  TYR326     -0.2866
     97  N         -3.3820   11.2710  -24.6960 N.am  327  GLY327     -0.1940
     98  CA        -3.7880   11.1900  -23.3080 C.3   327  GLY327      0.2014
     99  C         -5.2850   11.2920  -23.0820 C.2   327  GLY327      0.2639
    100  O         -6.0470   11.6740  -23.9710 O.2   327  GLY327     -0.2714
    101  N         -5.6980   10.9420  -21.8690 N.am  328  MET328     -0.1963
    102  CA        -7.1000   10.9810  -21.4670 C.3   328  MET328      0.1736
    103  C         -7.0720   11.2690  -19.9730 C.2   328  MET328      0.2617
    104  O         -6.2960   10.6550  -19.2430 O.2   328  MET328     -0.2715
    105  CB        -7.7560    9.6260  -21.7400 C.3   328  MET328      0.0427
    106  CG        -9.2070    9.5140  -21.2940 C.3   328  MET328      0.0599
    107  SD        -9.8460    7.8820  -21.7180 S.3   328  MET328     -0.1393
    108  CE       -11.4960    7.9450  -20.9980 C.3   328  MET328      0.0692
    109  N         -7.9040   12.2030  -19.5250 N.am  329  THR329     -0.1951
    110  CA        -7.9330   12.5860  -18.1140 C.3   329  THR329      0.1897
    111  C         -7.8900   11.4010  -17.1480 C.2   329  THR329      0.2313
    112  O         -7.0540   11.3570  -16.2440 O.2   329  THR329     -0.2863
    113  CB        -9.1750   13.4370  -17.7890 C.3   329  THR329      0.1794
    114  OG1       -9.2440   14.5450  -18.6940 O.3   329  THR329     -0.2208
    115  CG2       -9.0860   13.9740  -16.3620 C.3   329  THR329      0.0378
    116  N         -2.6280   11.7940  -17.3870 N.3   333  PRO333     -0.2102
    117  CA        -3.4310   11.3630  -18.5340 C.3   333  PRO333      0.1504
    118  C         -2.7230   10.6650  -19.6980 C.2   333  PRO333      0.2575
    119  O         -3.3840   10.1060  -20.5690 O.2   333  PRO333     -0.2718
    120  CB        -4.0090   12.6780  -19.0100 C.3   333  PRO333      0.0282
    121  CG        -2.7570   13.5540  -18.9610 C.3   333  PRO333      0.0208
    122  CD        -2.0610   13.1330  -17.6510 C.3   333  PRO333      0.0893
    123  N         -1.3970   10.6960  -19.7350 N.am  334  VAL334     -0.1980
    124  CA        -0.6890   10.1290  -20.8810 C.3   334  VAL334      0.1595
    125  C         -0.6850    8.6160  -21.0710 C.2   334  VAL334      0.2287
    126  O         -0.2590    7.8650  -20.1920 O.2   334  VAL334     -0.2864
    127  CB         0.7730   10.6280  -20.9220 C.3   334  VAL334      0.0276
    128  CG1        1.4580   10.1250  -22.1890 C.3   334  VAL334      0.0022
    129  CG2        0.7970   12.1600  -20.8820 C.3   334  VAL334      0.0022
    130  N          3.3480    8.3010  -26.0220 N.3   337  MET337     -0.1245
    131  CA         4.1620    9.4770  -26.3010 C.3   337  MET337      0.1570
    132  C          5.1620    9.2140  -27.4260 C.2   337  MET337      0.2261
    133  O          5.7980    8.1630  -27.4820 O.2   337  MET337     -0.2867
    134  CB         4.8980    9.8980  -25.0220 C.3   337  MET337      0.0387
    135  CG         5.7110   11.1940  -25.1170 C.3   337  MET337      0.0595
    136  SD         4.7030   12.6570  -25.4790 S.3   337  MET337     -0.1393
    137  CE         3.8140   12.8760  -23.9330 C.3   337  MET337      0.0692
    138  N          0.3320    8.3780  -32.9620 N.3   353  CYS353     -0.1235
    139  CA         0.1900    9.2170  -31.7840 C.3   353  CYS353      0.1677
    140  C          1.2040    8.8620  -30.7010 C.2   353  CYS353      0.2270
    141  O          1.0890    9.3150  -29.5610 O.2   353  CYS353     -0.2867
    142  CB        -1.2370    9.1340  -31.2270 C.3   353  CYS353      0.0956
    143  SG        -1.6960    7.5590  -30.4830 S.3   353  CYS353     -0.0801
    144  N        -11.7420    4.8160  -27.1720 N.3   413  ASP413     -0.1239
    145  CA       -11.0350    5.1550  -28.4100 C.3   413  ASP413      0.1674
    146  C        -10.6980    3.8870  -29.1840 C.2   413  ASP413      0.2266
    147  O        -10.3750    2.8570  -28.5880 O.2   413  ASP413     -0.2867
    148  CB        -9.7160    5.8840  -28.1250 C.3   413  ASP413      0.1410
    149  CG        -9.9100    7.2380  -27.4820 C.2   413  ASP413      0.3668
    150  OD1      -10.7820    8.0040  -27.9450 O.co2 413  ASP413     -0.2456
    151  OD2       -9.1700    7.5380  -26.5200 O.co2 413  ASP413     -0.2456
    152  N         -4.6920    6.0060  -33.7970 N.3   425  ILE425     -0.1245
    153  CA        -6.0770    6.1620  -33.3650 C.3   425  ILE425      0.1561
    154  C         -6.8860    6.4120  -34.6350 C.2   425  ILE425      0.2260
    155  O         -6.6200    7.3680  -35.3650 O.2   425  ILE425     -0.2867
    156  CB        -6.2080    7.3430  -32.3880 C.3   425  ILE425      0.0252
    157  CG1       -5.4040    7.0240  -31.1220 C.3   425  ILE425      0.0019
    158  CG2       -7.6780    7.6090  -32.0600 C.3   425  ILE425      0.0019
    159  CD1       -5.2750    8.1780  -30.1580 C.3   425  ILE425      0.0001
    160  N        -13.6580    6.6190  -32.7640 N.3   428  ARG428     -0.1245
    161  CA       -14.0730    6.8470  -31.3910 C.3   428  ARG428      0.1563
    162  C        -15.3600    6.0880  -31.1030 C.2   428  ARG428      0.2260
    163  O        -16.3540    6.2240  -31.8170 O.2   428  ARG428     -0.2867
    164  CB       -14.2760    8.3420  -31.1580 C.3   428  ARG428      0.0307
    165  CG       -14.4670    8.7330  -29.7060 C.3   428  ARG428      0.0489
    166  CD       -14.5890   10.2420  -29.5870 C.3   428  ARG428      0.2205
    167  NE       -13.4140   10.9220  -30.1300 N.pl3 428  ARG428     -0.0865
    168  CZ       -13.3780   12.2150  -30.4380 C.cat 428  ARG428      0.5346
    169  NH1      -14.4560   12.9710  -30.2610 N.pl3 428  ARG428      0.1354
    170  NH2      -12.2660   12.7530  -30.9290 N.pl3 428  ARG428      0.1354
    171  N        -16.8220    6.1640  -27.9420 N.3   430  LYS430     -0.1245
    172  CA       -17.5840    7.0620  -27.0780 C.3   430  LYS430      0.1561
    173  C        -18.2250    8.2500  -27.7940 C.2   430  LYS430      0.2260
    174  O        -17.8030    8.6550  -28.8790 O.2   430  LYS430     -0.2867
    175  CB       -16.6990    7.5660  -25.9370 C.3   430  LYS430      0.0271
    176  CG       -15.4460    8.2950  -26.3950 C.3   430  LYS430      0.0035
    177  CD       -14.5230    8.5550  -25.2140 C.3   430  LYS430      0.0206
    178  CE       -13.1590    9.0620  -25.6660 C.3   430  LYS430      0.1093
    179  NZ       -12.2170    9.1290  -24.5110 N.3   430  LYS430     -0.1314
    180  N        -18.2590   11.3700  -26.7900 N.3   432  LEU432     -0.1245
    181  CA       -17.5340   12.6260  -26.6050 C.3   432  LEU432      0.1561
    182  C        -17.3360   13.4670  -27.8700 C.2   432  LEU432      0.2260
    183  O        -16.9910   12.9500  -28.9330 O.2   432  LEU432     -0.2867
    184  CB       -16.1610   12.3510  -25.9820 C.3   432  LEU432      0.0270
    185  CG       -15.3130   13.5910  -25.6850 C.3   432  LEU432      0.0019
    186  CD1      -15.9610   14.3810  -24.5550 C.3   432  LEU432      0.0001
    187  CD2      -13.8900   13.1760  -25.3020 C.3   432  LEU432      0.0001
    188  N        -15.2930   16.8980  -29.3240 N.3   434  LYS434     -0.1245
    189  CA       -14.1510   17.7320  -28.9750 C.3   434  LYS434      0.1561
    190  C        -14.1080   18.9940  -29.8220 C.2   434  LYS434      0.2260
    191  O        -14.0010   18.9320  -31.0470 O.2   434  LYS434     -0.2867
    192  CB       -12.8390   16.9520  -29.1260 C.3   434  LYS434      0.0271
    193  CG       -12.7940   15.6620  -28.3090 C.3   434  LYS434      0.0035
    194  CD       -11.4520   15.4600  -27.6160 C.3   434  LYS434      0.0206
    195  CE       -11.2660   16.4450  -26.4660 C.3   434  LYS434      0.1093
    196  NZ       -10.0080   16.1930  -25.7000 N.3   434  LYS434     -0.1314
    197  N        -10.0180   20.9540  -28.7490 N.3   437  GLY437     -0.1225
    198  CA        -9.3780   20.2770  -27.6350 C.3   437  GLY437      0.1811
    199  C        -10.2150   20.1850  -26.3720 C.2   437  GLY437      0.2280
    200  O         -9.9200   19.3750  -25.4900 O.2   437  GLY437     -0.2866
    201  N        -13.5640   19.3650  -24.0860 N.3   439  GLN439     -0.1245
    202  CA       -14.5930   18.3400  -24.0630 C.3   439  GLN439      0.1566
    203  C        -15.9620   18.9910  -24.1510 C.2   439  GLN439      0.2260
    204  O        -16.2140   20.0220  -23.5230 O.2   439  GLN439     -0.2867
    205  CB       -14.5510   17.5460  -22.7570 C.3   439  GLN439      0.0367
    206  CG       -13.6260   16.3560  -22.7410 C.3   439  GLN439      0.0905
    207  CD       -13.8270   15.5190  -21.4930 C.2   439  GLN439      0.2608
    208  OE1      -14.9510   15.3990  -20.9940 O.2   439  GLN439     -0.2717
    209  NE2      -12.7480   14.9260  -20.9890 N.am  439  GLN439     -0.0878
@<TRIPOS>BOND
     1   155   154    2
     2    69    66    1
     3    69    70    1
     4    68    67    2
     5    67    66    1
     6   154   153    1
     7    80    78   am
     8    66    65    1
     9   152   153    1
    10    70    71    1
    11    78    77    1
    12    78    79    2
    13   153   156    1
    14   138   139    1
    15    77    76    1
    16   160   161    1
    17    65    71    1
    18    65    62   am
    19   156   158    1
    20   156   157    1
    21    63    62    2
    22   163   162    2
    23   139   142    1
    24   139   140    1
    25    62    61    1
    26    76    73    1
    27    72    73    1
    28   161   164    1
    29   161   162    1
    30   142   143    1
    31   164   165    1
    32   157   159    1
    33   191   190    2
    34   170   168    1
    35    73    74    1
    36    64    61    1
    37   140   141    2
    38    61    60    1
    39   168   169    1
    40   168   167    2
    41   167   166    1
    42    43    44    1
    43   190   189    1
    44   165   166    1
    45    45    44    1
    46    45    46    2
    47    44    47    1
    48    74    75    2
    49    74    81   am
    50    60    58   am
    51   188   189    1
    52   146   147    2
    53   146   145    1
    54   192   189    1
    55   192   193    1
    56    52    53    1
    57   183   182    2
    58   174   173    2
    59   197   198    1
    60    81    82    1
    61    55    54    2
    62   145   148    1
    63   145   144    1
    64    53    54    1
    65   193   194    1
    66    58    59    2
    67    58    57    1
    68   148   149    1
    69    54    56   am
    70    47    48    1
    71   150   149   ar
    72   171   172    1
    73   182   181    1
    74   173   172    1
    75    84    83    2
    76   198   199    1
    77    48    49    1
    78   194   195    1
    79    56    57    1
    80   149   151   ar
    81   133   132    2
    82   132   131    1
    83    89    90    1
    84    89    86    1
    85    82    83    1
    86    83    85   am
    87   172   175    1
    88    90    91   ar
    89    90    92   ar
    90    91    93   ar
    91    92    94   ar
    92   180   181    1
    93    85    86    1
    94    86    87    1
    95    93    95   ar
    96   181   184    1
    97    94    95   ar
    98   195   196    1
    99    95    96    1
   100   176   175    1
   101   176   177    1
   102   199   200    2
   103   131   130    1
   104   131   134    1
   105    49    50    1
   106    36    35    1
   107   184   185    1
   108   185   187    1
   109   185   186    1
   110   178   177    1
   111   178   179    1
   112   136   135    1
   113   136   137    1
   114    34    35   ar
   115    34    32   ar
   116    35    33   ar
   117    87    97   am
   118    87    88    2
   119    50    51    1
   120   135   134    1
   121    97    98    1
   122    32    30   ar
   123   203   202    1
   124   203   204    2
   125   201   202    1
   126   202   205    1
   127   100    99    2
   128    33    31   ar
   129    98    99    1
   130    30    31   ar
   131    30    29    1
   132    99   101   am
   133   205   206    1
   134   206   207    1
   135   128   127    1
   136    29    26    1
   137   101   102    1
   138   105   102    1
   139   105   106    1
   140   107   106    1
   141   107   108    1
   142   207   208    2
   143   207   209   am
   144   102   103    1
   145   125   124    1
   146   125   126    2
   147   127   129    1
   148   127   124    1
   149   124   123    1
   150    41    42    1
   151    41    38    1
   152    26    27    1
   153    26    25    1
   154   119   118    2
   155    14    16   ar
   156    14    12   ar
   157    27    28    2
   158   103   109   am
   159   103   104    2
   160    40    39    2
   161   123   118   am
   162    16    15   ar
   163   118   117    1
   164    25    19   am
   165   109   110    1
   166    39    38    1
   167    12    11    1
   168    12    13   ar
   169    38    37    1
   170    11     8    1
   171   120   121    1
   172   120   117    1
   173    23    21    1
   174   121   122    1
   175    15    13   ar
   176     6     5    1
   177   114   113    1
   178   117   116    1
   179    19    20    2
   180    19    18    1
   181   110   113    1
   182   110   111    1
   183     8     9    1
   184     8     7    1
   185   113   115    1
   186    17     9   am
   187    17    18    1
   188     9    10    2
   189   122   116    1
   190     3     2    1
   191     3     4    2
   192     5     2    1
   193    21    18    1
   194    21    22    1
   195     2     1    1
   196   111   112    2
   197    22    24    1
