@<TRIPOS>MOLECULE
tmp/3ni5A00.pdb
 179 173 0 0 0
SMALL
GASTEIGER

@<TRIPOS>ATOM
      1  N          9.6940    3.4400   18.7370 N.3    17  PHE17      -0.1241
      2  CA         8.5850    3.9060   19.5310 C.3    17  PHE17       0.1605
      3  C          8.7520    3.3640   20.9570 C.2    17  PHE17       0.2264
      4  O          8.2010    2.3050   21.2920 O.2    17  PHE17      -0.2867
      5  CB         7.2660    3.4740   18.8870 C.3    17  PHE17       0.0534
      6  CG         7.1600    3.8440   17.4140 C.ar   17  PHE17      -0.0203
      7  CD1        6.6450    5.0790   17.0290 C.ar   17  PHE17      -0.0042
      8  CD2        7.5970    2.9580   16.4180 C.ar   17  PHE17      -0.0042
      9  CE1        6.5470    5.4180   15.6690 C.ar   17  PHE17      -0.0003
     10  CE2        7.5230    3.3040   15.0510 C.ar   17  PHE17      -0.0003
     11  CZ         6.9960    4.5340   14.6890 C.ar   17  PHE17      -0.0000
     12  N         -8.1340    0.6380    5.9630 N.3    64  ASN64      -0.1240
     13  CA        -8.9980    1.6030    6.6100 C.3    64  ASN64       0.1653
     14  C        -10.1700    1.9670    5.7140 C.2    64  ASN64       0.2266
     15  O         -9.9950    2.3160    4.5340 O.2    64  ASN64      -0.2867
     16  CB        -8.2320    2.8860    6.9770 C.3    64  ASN64       0.1155
     17  CG        -7.1530    2.6430    8.0190 C.2    64  ASN64       0.2627
     18  OD1       -5.9940    2.9380    7.7970 O.2    64  ASN64      -0.2716
     19  ND2       -7.5330    2.0950    9.1480 N.am   64  ASN64      -0.0877
     20  N        -12.6350    4.9210    5.5620 N.3    66  GLU66      -0.1245
     21  CA       -12.4420    6.2850    5.9930 C.3    66  GLU66       0.1567
     22  C        -13.7600    7.0350    5.9180 C.2    66  GLU66       0.2260
     23  O        -14.5560    6.8100    4.9960 O.2    66  GLU66      -0.2867
     24  CB       -11.4270    6.9660    5.0900 C.3    66  GLU66       0.0388
     25  CG        -9.9860    6.6010    5.3450 C.3    66  GLU66       0.1160
     26  CD        -9.0790    7.0020    4.1690 C.2    66  GLU66       0.3649
     27  OE1       -9.5610    7.7320    3.2690 O.co2  66  GLU66      -0.2457
     28  OE2       -7.9000    6.5840    4.1190 O.co2  66  GLU66      -0.2457
     29  N        -13.7120    8.5700   12.7870 N.3    88  ILE88      -0.1231
     30  CA       -12.8010    8.8610   11.6740 C.3    88  ILE88       0.1692
     31  C        -12.5630    7.6700   10.7220 C.2    88  ILE88       0.2591
     32  O        -12.5490    7.8460    9.5000 O.2    88  ILE88      -0.2718
     33  CB       -11.4710    9.5590   12.1320 C.3    88  ILE88       0.0266
     34  CG1      -10.5240    9.8040   10.9390 C.3    88  ILE88       0.0019
     35  CG2      -10.7960    8.7930   13.2510 C.3    88  ILE88       0.0020
     36  CD1       -9.5220   10.9710   11.1240 C.3    88  ILE88       0.0001
     37  N        -12.4130    6.4610   11.2570 N.am   89  GLN89      -0.1979
     38  CA       -12.1000    5.3090   10.4060 C.3    89  GLN89       0.1601
     39  C        -12.3300    3.9830   11.1030 C.2    89  GLN89       0.2287
     40  O        -12.4210    3.9310   12.3310 O.2    89  GLN89      -0.2864
     41  CB       -10.6490    5.3980    9.8840 C.3    89  GLN89       0.0394
     42  CG        -9.5560    5.4080   10.9750 C.3    89  GLN89       0.0908
     43  CD        -8.9570    4.0420   11.1820 C.2    89  GLN89       0.2608
     44  OE1       -9.6710    3.0890   11.3900 O.2    89  GLN89      -0.2717
     45  NE2       -7.6390    3.9380   11.1080 N.am   89  GLN89      -0.0878
     46  N        -11.0690   -0.4580   10.7780 N.3    91  HIS91      -0.1241
     47  CA       -10.1180   -1.4110   10.2460 C.3    91  HIS91       0.1621
     48  C        -10.1450   -2.6470   11.1260 C.2    91  HIS91       0.2264
     49  O        -10.7990   -2.6540   12.1840 O.2    91  HIS91      -0.2867
     50  CB        -8.7040   -0.8190   10.2320 C.3    91  HIS91       0.0745
     51  CG        -8.1710   -0.5750   11.6000 C.ar   91  HIS91       0.0817
     52  ND1       -8.2130    0.6630   12.1950 N.ar   91  HIS91      -0.2268
     53  CD2       -7.6680   -1.4260   12.5220 C.ar   91  HIS91       0.1154
     54  CE1       -7.7280    0.5700   13.4170 C.ar   91  HIS91       0.1986
     55  NE2       -7.3820   -0.6850   13.6360 N.ar   91  HIS91      -0.2212
     56  N         -7.8850   -6.4910   12.4250 N.3    93  HIS93      -0.1241
     57  CA        -6.7170   -7.3750   12.5380 C.3    93  HIS93       0.1621
     58  C         -7.2360   -8.8000   12.5050 C.2    93  HIS93       0.2264
     59  O         -8.2780   -9.1040   13.1120 O.2    93  HIS93      -0.2867
     60  CB        -5.9580   -7.1170   13.8510 C.3    93  HIS93       0.0745
     61  CG        -5.8020   -5.6670   14.1730 C.ar   93  HIS93       0.0817
     62  ND1       -4.5840   -5.0260   14.1650 N.ar   93  HIS93      -0.2268
     63  CD2       -6.7190   -4.7270   14.4850 C.ar   93  HIS93       0.1154
     64  CE1       -4.7600   -3.7540   14.4650 C.ar   93  HIS93       0.1986
     65  NE2       -6.0480   -3.5480   14.6670 N.ar   93  HIS93      -0.2212
     66  N        -11.9000   -2.5830   14.9060 N.3   116  HIS116     -0.1241
     67  CA       -11.7040   -1.3320   15.6060 C.3   116  HIS116      0.1621
     68  C        -12.3270   -0.2200   14.8150 C.2   116  HIS116      0.2264
     69  O        -11.9260    0.0440   13.6770 O.2   116  HIS116     -0.2867
     70  CB       -10.2110   -1.0150   15.7030 C.3   116  HIS116      0.0745
     71  CG        -9.4550   -1.9850   16.5510 C.ar  116  HIS116      0.0817
     72  ND1       -8.0870   -2.1440   16.4750 N.ar  116  HIS116     -0.2268
     73  CD2       -9.8830   -2.8630   17.4840 C.ar  116  HIS116      0.1154
     74  CE1       -7.7080   -3.0550   17.3490 C.ar  116  HIS116      0.1986
     75  NE2       -8.7780   -3.5150   17.9620 N.ar  116  HIS116     -0.2212
     76  N        -12.5940    3.7410   15.1940 N.3   118  VAL118     -0.1245
     77  CA       -11.7190    4.7420   15.8000 C.3   118  VAL118      0.1561
     78  C        -12.3710    6.1390   15.7950 C.2   118  VAL118      0.2260
     79  O        -12.7830    6.6240   14.7230 O.2   118  VAL118     -0.2867
     80  CB       -10.3890    4.8060   15.0160 C.3   118  VAL118      0.0252
     81  CG1       -9.3560    5.7030   15.7300 C.3   118  VAL118      0.0019
     82  CG2       -9.8410    3.3990   14.7390 C.3   118  VAL118      0.0019
     83  N         -8.3970   15.6770   14.8170 N.3   127  PHE127     -0.1241
     84  CA        -7.8230   14.4060   15.1430 C.3   127  PHE127      0.1605
     85  C         -6.3670   14.5720   15.5980 C.2   127  PHE127      0.2264
     86  O         -5.9210   13.9500   16.5650 O.2   127  PHE127     -0.2867
     87  CB        -7.9040   13.5240   13.8850 C.3   127  PHE127      0.0534
     88  CG        -7.2950   12.1870   14.0630 C.ar  127  PHE127     -0.0203
     89  CD1       -5.9440   11.9850   13.7770 C.ar  127  PHE127     -0.0042
     90  CD2       -8.0530   11.1320   14.5610 C.ar  127  PHE127     -0.0042
     91  CE1       -5.3620   10.7520   13.9820 C.ar  127  PHE127     -0.0003
     92  CE2       -7.4810    9.8900   14.7530 C.ar  127  PHE127     -0.0003
     93  CZ        -6.1270    9.6970   14.4700 C.ar  127  PHE127     -0.0000
     94  N         -4.7860   13.4880   19.4810 N.3   131  VAL131     -0.1245
     95  CA        -3.7520   12.4640   19.7710 C.3   131  VAL131      0.1561
     96  C         -2.5320   13.0290   20.5210 C.2   131  VAL131      0.2260
     97  O         -1.5090   12.3680   20.6940 O.2   131  VAL131     -0.2867
     98  CB        -3.3550   11.6730   18.4940 C.3   131  VAL131      0.0252
     99  CG1       -4.5650   11.4070   17.7040 C.3   131  VAL131      0.0019
    100  CG2       -2.3710   12.4350   17.6430 C.3   131  VAL131      0.0019
    101  N         -8.6790    9.7830   22.1440 N.3   137  LEU137     -0.1245
    102  CA        -9.3410    8.7860   21.3080 C.3   137  LEU137      0.1561
    103  C        -10.2080    7.8280   22.1020 C.2   137  LEU137      0.2260
    104  O         -9.9490    7.5460   23.2700 O.2   137  LEU137     -0.2867
    105  CB        -8.3240    7.9840   20.4600 C.3   137  LEU137      0.0270
    106  CG        -7.2830    8.6750   19.5680 C.3   137  LEU137      0.0019
    107  CD1       -6.2230    7.6600   19.0740 C.3   137  LEU137      0.0001
    108  CD2       -7.8870    9.4530   18.3920 C.3   137  LEU137      0.0001
    109  N        -11.5680    3.9840   21.0330 N.3   139  VAL139     -0.1245
    110  CA       -11.7560    2.9080   20.0540 C.3   139  VAL139      0.1561
    111  C        -12.7800    1.8790   20.5520 C.2   139  VAL139      0.2260
    112  O        -12.7670    1.4730   21.7320 O.2   139  VAL139     -0.2867
    113  CB       -10.4320    2.2140   19.6000 C.3   139  VAL139      0.0252
    114  CG1      -10.7120    1.2070   18.4730 C.3   139  VAL139      0.0019
    115  CG2       -9.4110    3.2130   19.1300 C.3   139  VAL139      0.0019
    116  N         -3.7380    2.2730   24.4830 N.3   193  SER193     -0.1202
    117  CA        -3.0020    2.8800   23.3810 C.3   193  SER193      0.2020
    118  C         -3.5080    2.4740   21.9890 C.2   193  SER193      0.2619
    119  O         -4.4020    1.6250   21.8540 O.2   193  SER193     -0.2717
    120  CB        -1.5460    2.4610   23.5020 C.3   193  SER193      0.2103
    121  OG        -1.3570    1.1950   22.9040 O.3   193  SER193     -0.2182
    122  N         -2.9350    3.0960   20.9620 N.am  194  LEU194     -0.1965
    123  CA        -3.0000    2.5480   19.6180 C.3   194  LEU194      0.1728
    124  C         -2.2330    1.2130   19.6650 C.2   194  LEU194      0.2617
    125  O         -1.2580    1.0560   20.4350 O.2   194  LEU194     -0.2715
    126  CB        -2.3810    3.5140   18.6050 C.3   194  LEU194      0.0311
    127  CG        -3.0720    4.8690   18.3750 C.3   194  LEU194      0.0022
    128  CD1       -2.2790    5.6970   17.3560 C.3   194  LEU194      0.0001
    129  CD2       -4.5110    4.6370   17.9060 C.3   194  LEU194      0.0001
    130  N         -2.7020    0.2320   18.9070 N.am  195  THR195     -0.1937
    131  CA        -2.0470   -1.0670   18.9170 C.3   195  THR195      0.2028
    132  C         -1.0090   -1.1510   17.7780 C.2   195  THR195      0.2643
    133  O         -0.3860   -2.1740   17.5840 O.2   195  THR195     -0.2714
    134  CB        -3.0540   -2.2500   18.8470 C.3   195  THR195      0.1808
    135  OG1       -3.6730   -2.2750   17.5540 O.3   195  THR195     -0.2208
    136  CG2       -4.1280   -2.1620   19.9540 C.3   195  THR195      0.0379
    137  N         -0.8360   -0.0580   17.0380 N.am  196  THR196     -0.1937
    138  CA         0.1580    0.0120   15.9600 C.3   196  THR196      0.2013
    139  C          0.9850    1.2710   16.2070 C.2   196  THR196      0.2484
    140  O          0.4990    2.2220   16.8400 O.2   196  THR196     -0.2729
    141  CB        -0.5150    0.1030   14.5470 C.3   196  THR196      0.1807
    142  OG1       -1.2200    1.3340   14.4440 O.3   196  THR196     -0.2208
    143  CG2       -1.5010   -1.0270   14.3200 C.3   196  THR196      0.0379
    144  N          2.2570    1.2810   15.7570 N.am  197  PRO197     -0.2715
    145  CA         2.9610    2.5530   15.8880 C.3   197  PRO197      0.1521
    146  C          2.2350    3.7610   15.2610 C.2   197  PRO197      0.2440
    147  O          1.6520    3.6630   14.1700 O.2   197  PRO197     -0.2731
    148  CB         4.3050    2.2610   15.2480 C.3   197  PRO197      0.0310
    149  CG         4.4910    0.7870   15.4750 C.3   197  PRO197      0.0237
    150  CD         3.1430    0.2260   15.2360 C.3   197  PRO197      0.0939
    151  N          2.3020    4.9250   15.9250 N.am  198  PRO198     -0.2727
    152  CA         3.0980    5.2230   17.1040 C.3   198  PRO198      0.1402
    153  C          2.5890    4.8000   18.5030 C.2   198  PRO198      0.2269
    154  O          3.1330    5.2610   19.4990 O.2   198  PRO198     -0.2865
    155  CB         3.2910    6.7430   17.0180 C.3   198  PRO198      0.0296
    156  CG         2.3540    7.2370   15.9440 C.3   198  PRO198      0.0237
    157  CD         1.5740    6.1080   15.4290 C.3   198  PRO198      0.0939
    158  N          0.4380    5.5470   20.4830 N.3   200  LEU200     -0.1245
    159  CA         0.1190    6.6990   21.3340 C.3   200  LEU200      0.1561
    160  C         -0.9110    6.2750   22.3940 C.2   200  LEU200      0.2260
    161  O         -1.8070    5.4920   22.0960 O.2   200  LEU200     -0.2867
    162  CB        -0.3810    7.8810   20.4630 C.3   200  LEU200      0.0270
    163  CG         0.5140    8.2670   19.2710 C.3   200  LEU200      0.0019
    164  CD1       -0.1500    9.2700   18.2820 C.3   200  LEU200      0.0001
    165  CD2        1.8850    8.7880   19.7670 C.3   200  LEU200      0.0001
    166  N        -10.5250    2.3650   25.5720 N.3   205  TRP205     -0.1241
    167  CA       -10.9970    1.1830   24.8640 C.3   205  TRP205      0.1605
    168  C        -12.3510    0.8140   25.4100 C.2   205  TRP205      0.2264
    169  O        -12.6210    0.9290   26.5920 O.2   205  TRP205     -0.2867
    170  CB       -10.0220   -0.0060   25.0130 C.3   205  TRP205      0.0550
    171  CG        -8.8710    0.0610   24.0620 C.ar  205  TRP205      0.0003
    172  CD1       -7.6210    0.5080   24.3340 C.ar  205  TRP205      0.0946
    173  CD2       -8.8720   -0.3230   22.6630 C.ar  205  TRP205      0.0152
    174  NE1       -6.8380    0.4390   23.2000 N.ar  205  TRP205     -0.2442
    175  CE2       -7.5770   -0.0770   22.1650 C.ar  205  TRP205      0.0810
    176  CE3       -9.8490   -0.8470   21.7940 C.ar  205  TRP205      0.0012
    177  CZ2       -7.2140   -0.3430   20.8210 C.ar  205  TRP205      0.0191
    178  CZ3       -9.4990   -1.1260   20.4890 C.ar  205  TRP205      0.0001
    179  CH2       -8.1870   -0.8610   20.0020 C.ar  205  TRP205      0.0015
@<TRIPOS>BOND
     1    27    26   ar
     2    28    26   ar
     3    26    25    1
     4    15    14    2
     5    23    22    2
     6    24    25    1
     7    24    21    1
     8    20    21    1
     9    14    13    1
    10    22    21    1
    11    12    13    1
    12    13    16    1
    13    16    17    1
    14    18    17    2
    15    17    19   am
    16    32    31    2
    17    41    38    1
    18    41    42    1
    19    50    47    1
    20    50    51    1
    21    47    46    1
    22    47    48    1
    23    38    39    1
    24    38    37    1
    25    31    37   am
    26    31    30    1
    27    34    36    1
    28    34    33    1
    29    42    43    1
    30    39    40    2
    31    45    43   am
    32    48    49    2
    33    43    44    2
    34    51    52   ar
    35    51    53   ar
    36    30    33    1
    37    30    29    1
    38    33    35    1
    39    52    54   ar
    40    56    57    1
    41    58    57    1
    42    58    59    2
    43    53    55   ar
    44    57    60    1
    45    54    55   ar
    46    69    68    2
    47    89    91   ar
    48    89    88   ar
    49    60    61    1
    50    87    88    1
    51    87    84    1
    52    91    93   ar
    53    88    90   ar
    54    62    61   ar
    55    62    64   ar
    56   147   146    2
    57    61    63   ar
    58   143   141    1
    59   142   141    1
    60    64    65   ar
    61    93    92   ar
    62    63    65   ar
    63   141   138    1
    64    90    92   ar
    65    11    10   ar
    66    11     9   ar
    67    79    78    2
    68    82    80    1
    69    68    67    1
    70    83    84    1
    71    66    67    1
    72    80    81    1
    73    80    77    1
    74    10     8   ar
    75    84    85    1
    76    76    77    1
    77   150   149    1
    78   150   144    1
    79   148   149    1
    80   148   145    1
    81   146   145    1
    82   146   151   am
    83   157   151    1
    84   157   156    1
    85    85    86    2
    86    67    70    1
    87     9     7   ar
    88    70    71    1
    89   144   145    1
    90   144   139   am
    91    78    77    1
    92   151   152    1
    93   156   155    1
    94   138   139    1
    95   138   137    1
    96   139   140    2
    97     8     6   ar
    98    72    71   ar
    99    72    74   ar
   100    71    73   ar
   101   155   152    1
   102     7     6   ar
   103   137   132   am
   104   152   153    1
   105    74    75   ar
   106   128   127    1
   107     6     5    1
   108    73    75   ar
   109   135   134    1
   110   133   132    2
   111   100    98    1
   112    99    98    1
   113   132   131    1
   114   129   127    1
   115   164   163    1
   116   127   126    1
   117   108   106    1
   118   114   113    1
   119    98    95    1
   120   153   154    2
   121   126   123    1
   122     1     2    1
   123   134   131    1
   124   134   136    1
   125     5     2    1
   126   130   131    1
   127   130   124   am
   128   107   106    1
   129   115   113    1
   130   163   165    1
   131   163   162    1
   132    94    95    1
   133     2     3    1
   134   106   105    1
   135   113   110    1
   136   123   124    1
   137   123   122    1
   138   124   125    2
   139    95    96    1
   140   179   178   ar
   141   179   177   ar
   142   110   111    1
   143   110   109    1
   144   105   102    1
   145   162   159    1
   146   158   159    1
   147   178   176   ar
   148    96    97    2
   149   111   112    2
   150   177   175   ar
   151     3     4    2
   152   122   118   am
   153   102   103    1
   154   102   101    1
   155   159   160    1
   156   176   173   ar
   157   119   118    2
   158   118   117    1
   159   161   160    2
   160   103   104    2
   161   175   173   ar
   162   175   174   ar
   163   173   171   ar
   164   121   120    1
   165   174   172   ar
   166   117   120    1
   167   117   116    1
   168   171   172   ar
   169   171   170    1
   170   167   170    1
   171   167   168    1
   172   167   166    1
   173   168   169    2
