@<TRIPOS>MOLECULE
tmp/3niaA00.pdb
 93 88 0 0 0
SMALL
GASTEIGER

@<TRIPOS>ATOM
      1  N         10.0390  -21.6840   -2.4180 N.3    46  SER46      -0.1217
      2  CA        11.1030  -22.0420   -3.3630 C.3    46  SER46       0.1889
      3  C         12.5320  -21.9860   -2.8430 C.2    46  SER46       0.2288
      4  O         13.4520  -22.4220   -3.5370 O.2    46  SER46      -0.2866
      5  CB        11.0030  -21.2640   -4.6840 C.3    46  SER46       0.2089
      6  OG         9.8720  -21.6790   -5.4310 O.3    46  SER46      -0.2183
      7  N         14.7330  -25.1190   -3.0000 N.3    49  LYS49      -0.1245
      8  CA        15.2970  -25.6650   -4.2360 C.3    49  LYS49       0.1561
      9  C         16.8260  -25.6460   -4.2050 C.2    49  LYS49       0.2260
     10  O         17.4830  -26.3870   -4.9230 O.2    49  LYS49      -0.2867
     11  CB        14.7670  -24.8920   -5.4410 C.3    49  LYS49       0.0271
     12  CG        13.2550  -25.0340   -5.5870 C.3    49  LYS49       0.0035
     13  CD        12.6990  -24.1620   -6.7100 C.3    49  LYS49       0.0206
     14  CE        11.1840  -24.2520   -6.7640 C.3    49  LYS49       0.1093
     15  NZ        10.6340  -23.3820   -7.8710 N.3    49  LYS49      -0.1314
     16  N          2.2820  -24.4110  -12.6900 N.3    80  GLU80      -0.1231
     17  CA         2.4160  -22.9610  -12.8120 C.3    80  GLU80       0.1699
     18  C          3.8680  -22.5290  -12.6980 C.2    80  GLU80       0.2592
     19  O          4.5860  -22.9760  -11.8040 O.2    80  GLU80      -0.2718
     20  CB         1.6070  -22.2450  -11.7310 C.3    80  GLU80       0.0402
     21  CG         0.1120  -22.3700  -11.8880 C.3    80  GLU80       0.1161
     22  CD        -0.4430  -21.5390  -13.0360 C.2    80  GLU80       0.3649
     23  OE1        0.3040  -20.7380  -13.6430 O.co2  80  GLU80      -0.2457
     24  OE2       -1.6430  -21.6920  -13.3240 O.co2  80  GLU80      -0.2457
     25  N          4.2890  -21.6550  -13.6070 N.am   81  TRP81      -0.1976
     26  CA         5.6740  -21.1950  -13.6680 C.3    81  TRP81       0.1640
     27  C          6.6670  -22.3370  -13.8810 C.2    81  TRP81       0.2290
     28  O          7.3870  -22.7430  -12.9720 O.2    81  TRP81      -0.2864
     29  CB         6.0720  -20.3380  -12.4560 C.3    81  TRP81       0.0576
     30  CG         7.4090  -19.6980  -12.6720 C.ar   81  TRP81       0.0006
     31  CD1        8.5770  -20.0130  -12.0480 C.ar   81  TRP81       0.0946
     32  CD2        7.7290  -18.6750  -13.6270 C.ar   81  TRP81       0.0152
     33  NE1        9.6040  -19.2340  -12.5350 N.ar   81  TRP81      -0.2442
     34  CE2        9.1080  -18.4030  -13.5060 C.ar   81  TRP81       0.0810
     35  CE3        6.9800  -17.9540  -14.5670 C.ar   81  TRP81       0.0012
     36  CZ2        9.7560  -17.4410  -14.2850 C.ar   81  TRP81       0.0191
     37  CZ3        7.6260  -17.0000  -15.3430 C.ar   81  TRP81       0.0001
     38  CH2        9.0020  -16.7550  -15.1970 C.ar   81  TRP81       0.0015
     39  N         13.7280  -20.7990  -10.8150 N.3   107  SER107     -0.1217
     40  CA        12.7140  -21.3060   -9.8790 C.3   107  SER107      0.1889
     41  C         11.6100  -22.0700  -10.6090 C.2   107  SER107      0.2288
     42  O         10.4300  -22.0070  -10.2390 O.2   107  SER107     -0.2866
     43  CB        12.1110  -20.1790   -9.0430 C.3   107  SER107      0.2089
     44  OG        11.6950  -20.6610   -7.7680 O.3   107  SER107     -0.2183
     45  N          9.0990  -24.6240  -11.5170 N.3   109  ASN109     -0.1240
     46  CA         8.3960  -25.5520  -10.6320 C.3   109  ASN109      0.1653
     47  C          8.2270  -26.9530  -11.2070 C.2   109  ASN109      0.2266
     48  O          8.3160  -27.9550  -10.4920 O.2   109  ASN109     -0.2867
     49  CB         7.0540  -24.9460  -10.2160 C.3   109  ASN109      0.1155
     50  CG         7.2410  -23.7340   -9.3340 C.2   109  ASN109      0.2627
     51  OD1        7.9370  -23.8050   -8.3200 O.2   109  ASN109     -0.2716
     52  ND2        6.6370  -22.6140   -9.7160 N.am  109  ASN109     -0.0877
     53  N          5.3910  -29.1020   -5.6450 N.3   143  GLU143     -0.1231
     54  CA         4.8090  -27.8950   -6.2370 C.3   143  GLU143      0.1684
     55  C          3.4290  -28.2050   -6.8080 C.2   143  GLU143      0.2434
     56  O          3.2730  -29.2040   -7.5100 O.2   143  GLU143     -0.2733
     57  CB         5.7050  -27.3650   -7.3600 C.3   143  GLU143      0.0402
     58  CG         7.1600  -27.1460   -6.9520 C.3   143  GLU143      0.1161
     59  CD         7.3490  -25.9240   -6.0670 C.2   143  GLU143      0.3649
     60  OE1        8.5050  -25.6320   -5.7000 O.co2 143  GLU143     -0.2457
     61  OE2        6.3530  -25.2520   -5.7480 O.co2 143  GLU143     -0.2457
     62  N          2.4350  -27.3310   -6.5630 N.am  144  PRO144     -0.2729
     63  CA         2.4870  -26.0330   -5.8800 C.3   144  PRO144      0.1401
     64  C          2.0010  -26.0560   -4.4380 C.2   144  PRO144      0.2269
     65  O          2.0680  -25.0030   -3.7960 O.2   144  PRO144     -0.2865
     66  CB         1.4860  -25.2050   -6.6820 C.3   144  PRO144      0.0296
     67  CG         0.4180  -26.1970   -7.0040 C.3   144  PRO144      0.0237
     68  CD         1.1580  -27.4990   -7.2930 C.3   144  PRO144      0.0939
     69  N          3.5440  -24.4270   -1.2060 N.3   147  ASN147     -0.1240
     70  CA         3.6020  -22.9740   -1.0240 C.3   147  ASN147      0.1653
     71  C          2.3600  -22.3750   -0.3650 C.2   147  ASN147      0.2266
     72  O          2.2160  -21.1470   -0.3100 O.2   147  ASN147     -0.2867
     73  CB         3.8320  -22.2850   -2.3690 C.3   147  ASN147      0.1155
     74  CG         5.0270  -22.8400   -3.1030 C.2   147  ASN147      0.2627
     75  OD1        6.1050  -22.9880   -2.5320 O.2   147  ASN147     -0.2716
     76  ND2        4.8460  -23.1470   -4.3810 N.am  147  ASN147     -0.0877
     77  N         12.0820  -17.2020   -2.7090 N.3   213  GLY213     -0.1210
     78  CA        10.8230  -17.9170   -2.6260 C.3   213  GLY213      0.1956
     79  C          9.6540  -16.9640   -2.5300 C.2   213  GLY213      0.2613
     80  O          9.8070  -15.8300   -2.0530 O.2   213  GLY213     -0.2717
     81  N          8.4890  -17.4300   -2.9790 N.am  214  THR214     -0.1938
     82  CA         7.2330  -16.6850   -2.8730 C.3   214  THR214      0.2028
     83  C          6.1460  -17.6570   -2.4180 C.2   214  THR214      0.2642
     84  O          5.9840  -18.7190   -3.0140 O.2   214  THR214     -0.2714
     85  CB         6.8350  -16.0720   -4.2220 C.3   214  THR214      0.1808
     86  OG1        7.9470  -15.3590   -4.7720 O.3   214  THR214     -0.2208
     87  CG2        5.6610  -15.1210   -4.0530 C.3   214  THR214      0.0379
     88  N          5.4420  -17.3020   -1.3380 N.am  215  CYS215     -0.1967
     89  CA         4.4220  -18.1550   -0.7260 C.3   215  CYS215      0.1712
     90  C          3.0770  -17.4440   -0.7680 C.2   215  CYS215      0.2296
     91  O          3.0160  -16.2110   -0.7780 O.2   215  CYS215     -0.2864
     92  CB         4.7610  -18.4310    0.7560 C.3   215  CYS215      0.0983
     93  SG         6.4110  -19.0610    1.0870 S.3   215  CYS215     -0.0798
@<TRIPOS>BOND
     1    37    38   ar
     2    37    35   ar
     3    38    36   ar
     4    35    32   ar
     5    36    34   ar
     6    27    26    1
     7    27    28    2
     8    26    25    1
     9    26    29    1
    10    23    22   ar
    11    32    34   ar
    12    32    30   ar
    13    25    18   am
    14    34    33   ar
    15    24    22   ar
    16    22    21    1
    17    17    18    1
    18    17    16    1
    19    17    20    1
    20    18    19    2
    21    30    29    1
    22    30    31   ar
    23    33    31   ar
    24    21    20    1
    25    45    46    1
    26    47    46    1
    27    47    48    2
    28    39    40    1
    29    46    49    1
    30    41    42    2
    31    41    40    1
    32    49    50    1
    33    40    43    1
    34    52    50   am
    35    50    51    2
    36    43    44    1
    37    15    14    1
    38    56    55    2
    39    57    58    1
    40    57    54    1
    41    68    67    1
    42    68    62    1
    43    67    66    1
    44    58    59    1
    45    55    62   am
    46    55    54    1
    47    14    13    1
    48    13    12    1
    49    66    63    1
    50    62    63    1
    51    54    53    1
    52    59    61   ar
    53    59    60   ar
    54    63    64    1
    55    12    11    1
    56    11     8    1
    57     6     5    1
    58    10     9    2
    59    86    85    1
    60     5     2    1
    61    64    65    2
    62    76    74   am
    63     8     9    1
    64     8     7    1
    65    85    87    1
    66    85    82    1
    67     4     3    2
    68     2     3    1
    69     2     1    1
    70    74    75    2
    71    74    73    1
    72    84    83    2
    73    81    82    1
    74    81    79   am
    75    82    83    1
    76    77    78    1
    77    78    79    1
    78    79    80    2
    79    83    88   am
    80    73    70    1
    81    88    89    1
    82    69    70    1
    83    70    71    1
    84    91    90    2
    85    90    89    1
    86    89    92    1
    87    71    72    2
    88    92    93    1
