@<TRIPOS>MOLECULE
tmp/3niaA01.pdb
 88 82 0 0 0
SMALL
GASTEIGER

@<TRIPOS>ATOM
      1  N         10.0390  -21.6840   -2.4180 N.3    46  SER46      -0.1217
      2  CA        11.1030  -22.0420   -3.3630 C.3    46  SER46       0.1889
      3  C         12.5320  -21.9860   -2.8430 C.2    46  SER46       0.2288
      4  O         13.4520  -22.4220   -3.5370 O.2    46  SER46      -0.2866
      5  CB        11.0030  -21.2640   -4.6840 C.3    46  SER46       0.2089
      6  OG         9.8720  -21.6790   -5.4310 O.3    46  SER46      -0.2183
      7  N         14.7330  -25.1190   -3.0000 N.3    49  LYS49      -0.1245
      8  CA        15.2970  -25.6650   -4.2360 C.3    49  LYS49       0.1561
      9  C         16.8260  -25.6460   -4.2050 C.2    49  LYS49       0.2260
     10  O         17.4830  -26.3870   -4.9230 O.2    49  LYS49      -0.2867
     11  CB        14.7670  -24.8920   -5.4410 C.3    49  LYS49       0.0271
     12  CG        13.2550  -25.0340   -5.5870 C.3    49  LYS49       0.0035
     13  CD        12.6990  -24.1620   -6.7100 C.3    49  LYS49       0.0206
     14  CE        11.1840  -24.2520   -6.7640 C.3    49  LYS49       0.1093
     15  NZ        10.6340  -23.3820   -7.8710 N.3    49  LYS49      -0.1314
     16  N          4.2890  -21.6550  -13.6070 N.3    81  TRP81      -0.1241
     17  CA         5.6740  -21.1950  -13.6680 C.3    81  TRP81       0.1605
     18  C          6.6670  -22.3370  -13.8810 C.2    81  TRP81       0.2264
     19  O          7.3870  -22.7430  -12.9720 O.2    81  TRP81      -0.2867
     20  CB         6.0720  -20.3380  -12.4560 C.3    81  TRP81       0.0550
     21  CG         7.4090  -19.6980  -12.6720 C.ar   81  TRP81       0.0003
     22  CD1        8.5770  -20.0130  -12.0480 C.ar   81  TRP81       0.0946
     23  CD2        7.7290  -18.6750  -13.6270 C.ar   81  TRP81       0.0152
     24  NE1        9.6040  -19.2340  -12.5350 N.ar   81  TRP81      -0.2442
     25  CE2        9.1080  -18.4030  -13.5060 C.ar   81  TRP81       0.0810
     26  CE3        6.9800  -17.9540  -14.5670 C.ar   81  TRP81       0.0012
     27  CZ2        9.7560  -17.4410  -14.2850 C.ar   81  TRP81       0.0191
     28  CZ3        7.6260  -17.0000  -15.3430 C.ar   81  TRP81       0.0001
     29  CH2        9.0020  -16.7550  -15.1970 C.ar   81  TRP81       0.0015
     30  N         13.7280  -20.7990  -10.8150 N.3   107  SER107     -0.1217
     31  CA        12.7140  -21.3060   -9.8790 C.3   107  SER107      0.1889
     32  C         11.6100  -22.0700  -10.6090 C.2   107  SER107      0.2288
     33  O         10.4300  -22.0070  -10.2390 O.2   107  SER107     -0.2866
     34  CB        12.1110  -20.1790   -9.0430 C.3   107  SER107      0.2089
     35  OG        11.6950  -20.6610   -7.7680 O.3   107  SER107     -0.2183
     36  N          9.0990  -24.6240  -11.5170 N.3   109  ASN109     -0.1240
     37  CA         8.3960  -25.5520  -10.6320 C.3   109  ASN109      0.1653
     38  C          8.2270  -26.9530  -11.2070 C.2   109  ASN109      0.2266
     39  O          8.3160  -27.9550  -10.4920 O.2   109  ASN109     -0.2867
     40  CB         7.0540  -24.9460  -10.2160 C.3   109  ASN109      0.1155
     41  CG         7.2410  -23.7340   -9.3340 C.2   109  ASN109      0.2627
     42  OD1        7.9370  -23.8050   -8.3200 O.2   109  ASN109     -0.2716
     43  ND2        6.6370  -22.6140   -9.7160 N.am  109  ASN109     -0.0877
     44  N         16.1640  -14.6490  -10.7030 N.3   193  THR193     -0.1218
     45  CA        14.9310  -14.2370  -10.0500 C.3   193  THR193      0.1862
     46  C         15.1440  -13.3400   -8.8370 C.2   193  THR193      0.2287
     47  O         14.1740  -12.9050   -8.2180 O.2   193  THR193     -0.2866
     48  CB        14.1240  -15.4510   -9.5860 C.3   193  THR193      0.1770
     49  OG1       14.8130  -16.0970   -8.5030 O.3   193  THR193     -0.2211
     50  CG2       13.9300  -16.4370  -10.7250 C.3   193  THR193      0.0375
     51  N         18.7750  -17.7340   -3.4530 N.3   211  LYS211     -0.1231
     52  CA        17.5940  -18.3810   -4.0190 C.3   211  LYS211      0.1693
     53  C         16.3520  -17.7890   -3.3740 C.2   211  LYS211      0.2593
     54  O         16.2170  -17.7920   -2.1550 O.2   211  LYS211     -0.2718
     55  CB        17.6140  -19.8830   -3.7410 C.3   211  LYS211      0.0285
     56  CG        16.3190  -20.5940   -4.1870 C.3   211  LYS211      0.0035
     57  CD        16.3170  -20.7770   -5.7010 C.3   211  LYS211      0.0206
     58  CE        14.9140  -21.0900   -6.2330 C.3   211  LYS211      0.1093
     59  NZ        14.0950  -19.8460   -6.3380 N.3   211  LYS211     -0.1314
     60  N         15.4410  -17.2910   -4.2010 N.am  212  THR212     -0.1939
     61  CA        14.2230  -16.6540   -3.7070 C.3   212  THR212      0.2028
     62  C         13.0830  -17.6500   -3.4630 C.2   212  THR212      0.2643
     63  O         13.1020  -18.7860   -3.9420 O.2   212  THR212     -0.2714
     64  CB        13.7220  -15.6050   -4.7220 C.3   212  THR212      0.1808
     65  OG1       13.6530  -16.2160   -6.0150 O.3   212  THR212     -0.2208
     66  CG2       14.6720  -14.4130   -4.8030 C.3   212  THR212      0.0379
     67  N         12.0820  -17.2020   -2.7090 N.am  213  GLY213     -0.1939
     68  CA        10.8230  -17.9170   -2.6260 C.3   213  GLY213      0.2014
     69  C          9.6540  -16.9640   -2.5300 C.2   213  GLY213      0.2639
     70  O          9.8070  -15.8300   -2.0530 O.2   213  GLY213     -0.2714
     71  N          8.4890  -17.4300   -2.9790 N.am  214  THR214     -0.1950
     72  CA         7.2330  -16.6850   -2.8730 C.3   214  THR214      0.1897
     73  C          6.1460  -17.6570   -2.4180 C.2   214  THR214      0.2313
     74  O          5.9840  -18.7190   -3.0140 O.2   214  THR214     -0.2863
     75  CB         6.8350  -16.0720   -4.2220 C.3   214  THR214      0.1794
     76  OG1        7.9470  -15.3590   -4.7720 O.3   214  THR214     -0.2208
     77  CG2        5.6610  -15.1210   -4.0530 C.3   214  THR214      0.0378
     78  N          7.5600  -13.9080    1.2180 N.3   220  ARG220     -0.1245
     79  CA         8.6170  -13.5670    0.2670 C.3   220  ARG220      0.1563
     80  C          9.9540  -13.7740    0.9640 C.2   220  ARG220      0.2260
     81  O         10.2490  -13.1250    1.9740 O.2   220  ARG220     -0.2867
     82  CB         8.4630  -12.1370   -0.2350 C.3   220  ARG220      0.0307
     83  CG         9.3390  -11.8090   -1.4260 C.3   220  ARG220      0.0489
     84  CD         8.8620  -12.5450   -2.6750 C.3   220  ARG220      0.2205
     85  NE         9.3790  -11.9130   -3.8810 N.pl3 220  ARG220     -0.0865
     86  CZ        10.1570  -12.5120   -4.7800 C.cat 220  ARG220      0.5346
     87  NH1       10.5190  -13.7790   -4.6250 N.pl3 220  ARG220      0.1354
     88  NH2       10.5700  -11.8370   -5.8450 N.pl3 220  ARG220      0.1354
@<TRIPOS>BOND
     1    28    29   ar
     2    28    26   ar
     3    29    27   ar
     4    26    23   ar
     5    27    25   ar
     6    18    17    1
     7    18    19    2
     8    17    16    1
     9    17    20    1
    10    23    25   ar
    11    23    21   ar
    12    25    24   ar
    13    21    20    1
    14    21    22   ar
    15    24    22   ar
    16    36    37    1
    17    38    37    1
    18    38    39    2
    19    30    31    1
    20    50    48    1
    21    44    45    1
    22    37    40    1
    23    32    33    2
    24    32    31    1
    25    40    41    1
    26    45    48    1
    27    45    46    1
    28    31    34    1
    29    43    41   am
    30    48    49    1
    31    41    42    2
    32    34    35    1
    33    46    47    2
    34    15    14    1
    35    14    13    1
    36    13    12    1
    37    59    58    1
    38    58    57    1
    39    65    64    1
    40    88    86    1
    41    57    56    1
    42    12    11    1
    43    11     8    1
    44     6     5    1
    45    10     9    2
    46    66    64    1
    47    86    87    1
    48    86    85    2
    49    76    75    1
    50    64    61    1
    51     5     2    1
    52     8     9    1
    53     8     7    1
    54    75    77    1
    55    75    72    1
    56    60    61    1
    57    60    53   am
    58    56    55    1
    59    52    55    1
    60    52    51    1
    61    52    53    1
    62    63    62    2
    63    85    84    1
    64    61    62    1
    65     4     3    2
    66    62    67   am
    67    53    54    2
    68     2     3    1
    69     2     1    1
    70    74    73    2
    71    71    72    1
    72    71    69   am
    73    72    73    1
    74    67    68    1
    75    84    83    1
    76    68    69    1
    77    69    70    2
    78    83    82    1
    79    82    79    1
    80    79    80    1
    81    79    78    1
    82    80    81    2
