@<TRIPOS>MOLECULE
tmp/3nibA00.pdb
 107 102 0 0 0
SMALL
GASTEIGER

@<TRIPOS>ATOM
      1  N         42.9740  -43.9060  -28.7330 N.3    13  LYS13      -0.1231
      2  CA        44.4060  -44.1890  -28.6370 C.3    13  LYS13       0.1693
      3  C         45.2890  -43.0430  -29.1290 C.2    13  LYS13       0.2592
      4  O         46.4590  -43.2490  -29.4430 O.2    13  LYS13      -0.2718
      5  CB        44.7600  -45.4730  -29.3980 C.3    13  LYS13       0.0285
      6  CG        43.8120  -46.6420  -29.1590 C.3    13  LYS13       0.0035
      7  CD        43.6220  -46.9260  -27.6790 C.3    13  LYS13       0.0206
      8  CE        44.9380  -47.2850  -27.0080 C.3    13  LYS13       0.1093
      9  NZ        44.8260  -47.2900  -25.5180 N.3    13  LYS13      -0.1314
     10  N         44.7370  -41.8380  -29.1960 N.am   14  ALA14      -0.1966
     11  CA        45.4880  -40.6980  -29.7110 C.3    14  ALA14       0.1728
     12  C         46.1340  -39.8570  -28.6100 C.2    14  ALA14       0.2617
     13  O         46.5060  -38.7050  -28.8460 O.2    14  ALA14      -0.2715
     14  CB        44.5970  -39.8280  -30.5860 C.3    14  ALA14       0.0334
     15  N         46.2660  -40.4320  -27.4160 N.am   15  GLY15      -0.1940
     16  CA        46.8780  -39.7370  -26.2940 C.3    15  GLY15       0.2014
     17  C         45.8950  -39.2250  -25.2490 C.2    15  GLY15       0.2639
     18  O         46.2980  -38.7860  -24.1730 O.2    15  GLY15      -0.2714
     19  N         44.6070  -39.2910  -25.5710 N.am   16  ASN16      -0.1958
     20  CA        43.5300  -38.8320  -24.6930 C.3    16  ASN16       0.1819
     21  C         43.6710  -39.2240  -23.2080 C.2    16  ASN16       0.2622
     22  O         43.5600  -38.3860  -22.3130 O.2    16  ASN16      -0.2715
     23  CB        42.1990  -39.3550  -25.2350 C.3    16  ASN16       0.1195
     24  CG        41.0990  -38.3220  -25.1780 C.2    16  ASN16       0.2630
     25  OD1       41.0910  -37.4580  -24.3030 O.2    16  ASN16      -0.2716
     26  ND2       40.1570  -38.4070  -26.1120 N.am   16  ASN16      -0.0877
     27  N         43.9020  -40.5060  -22.9610 N.am   17  THR17      -0.1937
     28  CA        44.0110  -41.0320  -21.6120 C.3    17  THR17       0.2028
     29  C         45.1770  -40.4090  -20.8480 C.2    17  THR17       0.2642
     30  O         45.0220  -39.9350  -19.7180 O.2    17  THR17      -0.2714
     31  CB        44.2090  -42.5560  -21.6430 C.3    17  THR17       0.1808
     32  OG1       43.0870  -43.1730  -22.2840 O.3    17  THR17      -0.2208
     33  CG2       44.3390  -43.1010  -20.2360 C.3    17  THR17       0.0379
     34  N         46.3480  -40.4280  -21.4720 N.am   18  TRP18      -0.1973
     35  CA        47.5560  -39.8760  -20.8830 C.3    18  TRP18       0.1640
     36  C         47.3400  -38.4270  -20.4730 C.2    18  TRP18       0.2290
     37  O         47.8140  -37.9790  -19.4250 O.2    18  TRP18      -0.2864
     38  CB        48.7010  -39.9730  -21.8870 C.3    18  TRP18       0.0576
     39  CG        49.9980  -39.4600  -21.3830 C.ar   18  TRP18       0.0006
     40  CD1       50.5630  -39.7120  -20.1680 C.ar   18  TRP18       0.0946
     41  CD2       50.9150  -38.6220  -22.0890 C.ar   18  TRP18       0.0152
     42  NE1       51.7760  -39.0720  -20.0700 N.ar   18  TRP18      -0.2442
     43  CE2       52.0150  -38.3960  -21.2380 C.ar   18  TRP18       0.0810
     44  CE3       50.9140  -38.0390  -23.3570 C.ar   18  TRP18       0.0012
     45  CZ2       53.1010  -37.6100  -21.6140 C.ar   18  TRP18       0.0191
     46  CZ3       51.9930  -37.2600  -23.7280 C.ar   18  TRP18       0.0001
     47  CH2       53.0730  -37.0530  -22.8580 C.ar   18  TRP18       0.0015
     48  N         47.0660  -38.2110  -33.4950 N.3    91  ARG91      -0.1245
     49  CA        48.2040  -39.1120  -33.4130 C.3    91  ARG91       0.1563
     50  C         48.4730  -39.7750  -34.7590 C.2    91  ARG91       0.2260
     51  O         47.5720  -39.9140  -35.5840 O.2    91  ARG91      -0.2867
     52  CB        47.9690  -40.1750  -32.3400 C.3    91  ARG91       0.0307
     53  CG        49.2040  -40.9950  -32.0220 C.3    91  ARG91       0.0489
     54  CD        48.9060  -42.0860  -31.0140 C.3    91  ARG91       0.2205
     55  NE        50.1230  -42.7920  -30.6320 N.pl3  91  ARG91      -0.0865
     56  CZ        50.1710  -43.7570  -29.7220 C.cat  91  ARG91       0.5346
     57  NH1       49.0650  -44.1340  -29.1020 N.pl3  91  ARG91       0.1354
     58  NH2       51.3250  -44.3430  -29.4320 N.pl3  91  ARG91       0.1354
     59  N         48.5720  -49.7280  -31.8570 N.3    99  SER99      -0.1217
     60  CA        48.0920  -49.5650  -30.4940 C.3    99  SER99       0.1889
     61  C         46.8250  -50.3790  -30.2570 C.2    99  SER99       0.2288
     62  O         46.6980  -51.0660  -29.2440 O.2    99  SER99      -0.2866
     63  CB        47.8300  -48.0880  -30.2020 C.3    99  SER99       0.2089
     64  OG        47.6420  -47.8670  -28.8190 O.3    99  SER99      -0.2183
     65  N         49.7320  -35.6300  -30.5300 N.3   154  TYR154     -0.1241
     66  CA        50.2070  -36.4780  -29.4540 C.3   154  TYR154      0.1605
     67  C         51.7300  -36.4730  -29.4040 C.2   154  TYR154      0.2264
     68  O         52.3210  -36.2630  -28.3480 O.2   154  TYR154     -0.2867
     69  CB        49.6970  -37.8930  -29.6740 C.3   154  TYR154      0.0534
     70  CG        50.3910  -38.9430  -28.8520 C.ar  154  TYR154     -0.0201
     71  CD1       50.0730  -39.1340  -27.5150 C.ar  154  TYR154     -0.0009
     72  CD2       51.3490  -39.7630  -29.4230 C.ar  154  TYR154     -0.0009
     73  CE1       50.7020  -40.1070  -26.7680 C.ar  154  TYR154      0.0417
     74  CE2       51.9830  -40.7350  -28.6870 C.ar  154  TYR154      0.0417
     75  CZ        51.6580  -40.9040  -27.3630 C.ar  154  TYR154      0.1957
     76  OH        52.3000  -41.8830  -26.6450 O.3   154  TYR154     -0.2866
     77  N         54.2160  -35.3750  -26.4030 N.3   158  LYS158     -0.1245
     78  CA        55.1620  -36.3620  -25.9110 C.3   158  LYS158      0.1561
     79  C         56.6090  -35.8510  -25.9280 C.2   158  LYS158      0.2260
     80  O         57.4070  -36.2110  -25.0610 O.2   158  LYS158     -0.2867
     81  CB        55.0370  -37.6140  -26.7720 C.3   158  LYS158      0.0271
     82  CG        55.5580  -38.8950  -26.1690 C.3   158  LYS158      0.0035
     83  CD        55.1060  -40.0740  -27.0350 C.3   158  LYS158      0.0206
     84  CE        55.6870  -41.4070  -26.5800 C.3   158  LYS158      0.1093
     85  NZ        55.0720  -42.5510  -27.3200 N.3   158  LYS158     -0.1314
     86  N         52.5030  -38.9640  -14.3950 N.3   190  CYS190     -0.1235
     87  CA        51.9820  -39.8440  -15.4220 C.3   190  CYS190      0.1677
     88  C         53.1020  -40.3250  -16.3280 C.2   190  CYS190      0.2270
     89  O         53.0310  -40.1740  -17.5440 O.2   190  CYS190     -0.2867
     90  CB        50.9030  -39.1210  -16.2250 C.3   190  CYS190      0.0956
     91  SG        49.6800  -38.2850  -15.1870 S.3   190  CYS190     -0.0801
     92  N         55.4550  -43.3630  -18.0270 N.3   192  LEU192     -0.1245
     93  CA        55.1600  -44.6290  -18.6720 C.3   192  LEU192      0.1561
     94  C         54.8900  -45.7230  -17.6400 C.2   192  LEU192      0.2260
     95  O         53.8560  -46.3890  -17.6950 O.2   192  LEU192     -0.2867
     96  CB        56.3200  -44.9980  -19.6030 C.3   192  LEU192      0.0270
     97  CG        56.2680  -46.2790  -20.4300 C.3   192  LEU192      0.0019
     98  CD1       56.7140  -47.4430  -19.5780 C.3   192  LEU192      0.0001
     99  CD2       54.8700  -46.5130  -20.9840 C.3   192  LEU192      0.0001
    100  N         51.6500  -45.0050  -15.9670 N.3   195  MET195     -0.1245
    101  CA        50.5520  -45.3730  -16.8510 C.3   195  MET195      0.1570
    102  C         50.3950  -46.8830  -16.8580 C.2   195  MET195      0.2261
    103  O         49.2880  -47.4030  -16.9860 O.2   195  MET195     -0.2867
    104  CB        50.7890  -44.8620  -18.2740 C.3   195  MET195      0.0387
    105  CG        50.7730  -43.3490  -18.3950 C.3   195  MET195      0.0595
    106  SD        49.2640  -42.6330  -17.7250 S.3   195  MET195     -0.1393
    107  CE        48.0540  -43.1830  -18.9170 C.3   195  MET195      0.0692
@<TRIPOS>BOND
     1    51    50    2
     2    50    49    1
     3    48    49    1
     4    49    52    1
     5    52    53    1
     6    53    54    1
     7    59    60    1
     8    54    55    1
     9    55    56    2
    10    14    11    1
    11    65    66    1
    12    60    61    1
    13    60    63    1
    14    61    62    2
    15    63    64    1
    16    56    58    1
    17    56    57    1
    18    11    10    1
    19    11    12    1
    20    69    66    1
    21    69    70    1
    22    66    67    1
    23     4     3    2
    24    72    70   ar
    25    72    74   ar
    26    67    68    2
    27     5     6    1
    28     5     2    1
    29    10     3   am
    30     6     7    1
    31     3     2    1
    32    70    71   ar
    33    13    12    2
    34     1     2    1
    35    74    75   ar
    36    12    15   am
    37     7     8    1
    38    71    73   ar
    39    15    16    1
    40    75    73   ar
    41    75    76    1
    42    85    84    1
    43    83    84    1
    44    83    82    1
    45     8     9    1
    46    81    82    1
    47    81    78    1
    48    77    78    1
    49    16    17    1
    50    26    24   am
    51    79    78    1
    52    79    80    2
    53    19    17   am
    54    19    20    1
    55    17    18    2
    56    23    24    1
    57    23    20    1
    58    24    25    2
    59    20    21    1
    60    46    44   ar
    61    46    47   ar
    62    44    41   ar
    63    21    27   am
    64    21    22    2
    65    27    28    1
    66    47    45   ar
    67    32    31    1
    68    41    39   ar
    69    41    43   ar
    70    38    39    1
    71    38    35    1
    72    31    28    1
    73    31    33    1
    74    45    43   ar
    75    28    29    1
    76    34    35    1
    77    34    29   am
    78    39    40   ar
    79    43    42   ar
    80    99    97    1
    81    35    36    1
    82    29    30    2
    83    36    37    2
    84    97    96    1
    85    97    98    1
    86    40    42   ar
    87    96    93    1
    88   107   106    1
    89    93    92    1
    90    93    94    1
    91   105   104    1
    92   105   106    1
    93   104   101    1
    94    95    94    2
    95    89    88    2
    96   103   102    2
    97   102   101    1
    98   101   100    1
    99    88    87    1
   100    90    87    1
   101    90    91    1
   102    87    86    1
