@<TRIPOS>MOLECULE
tmp/3nieA00.pdb
 218 205 0 0 0
SMALL
GASTEIGER

@<TRIPOS>ATOM
      1  N          4.2650    5.5520   25.4170 N.3    23  ILE23      -0.1231
      2  CA         5.6690    5.9140   25.3670 C.3    23  ILE23       0.1692
      3  C          5.9840    7.1130   24.4870 C.2    23  ILE23       0.2593
      4  O          7.0050    7.7570   24.6760 O.2    23  ILE23      -0.2718
      5  CB         6.4700    4.7410   24.8280 C.3    23  ILE23       0.0266
      6  CG1        7.1290    3.9910   25.9800 C.3    23  ILE23       0.0019
      7  CG2        7.5230    5.2100   23.8550 C.3    23  ILE23       0.0020
      8  CD1        7.8920    2.7660   25.4900 C.3    23  ILE23       0.0001
      9  N          5.1280    7.3920   23.5200 N.am   24  GLY24      -0.1942
     10  CA         5.4340    8.3690   22.5250 C.3    24  GLY24       0.2014
     11  C          4.3550    8.5320   21.4980 C.2    24  GLY24       0.2639
     12  O          3.4830    7.6760   21.3590 O.2    24  GLY24      -0.2714
     13  N          4.4630    9.6310   20.7580 N.am   25  ARG25      -0.1963
     14  CA         3.4290   10.1100   19.8820 C.3    25  ARG25       0.1729
     15  C          4.0660   11.0020   18.8170 C.2    25  ARG25       0.2617
     16  O          5.0480   11.6690   19.0740 O.2    25  ARG25      -0.2715
     17  CB         2.4560   10.9280   20.7170 C.3    25  ARG25       0.0348
     18  CG         1.3970   11.6860   19.9260 C.3    25  ARG25       0.0492
     19  CD         1.3090   13.1860   20.3250 C.3    25  ARG25       0.2205
     20  NE        -0.0870   13.6280   20.3190 N.pl3  25  ARG25      -0.0865
     21  CZ        -0.5180   14.8820   20.1640 C.cat  25  ARG25       0.5346
     22  NH1        0.3270   15.8940   19.9940 N.pl3  25  ARG25       0.1354
     23  NH2       -1.8300   15.1150   20.1840 N.pl3  25  ARG25       0.1354
     24  N          3.5210   10.9950   17.6110 N.am   26  GLY26      -0.1940
     25  CA         4.0130   11.8500   16.5530 C.3    26  GLY26       0.2014
     26  C          2.7980   12.4290   15.8990 C.2    26  GLY26       0.2640
     27  O          1.7410   12.4360   16.5050 O.2    26  GLY26      -0.2714
     28  N          2.9250   12.8720   14.6600 N.am   27  SER27      -0.1935
     29  CA         1.7830   13.3870   13.9300 C.3    27  SER27       0.2055
     30  C          0.8650   12.3110   13.3700 C.2    27  SER27       0.2643
     31  O         -0.1940   12.6180   12.8440 O.2    27  SER27      -0.2714
     32  CB         2.2600   14.2650   12.7740 C.3    27  SER27       0.2130
     33  OG         3.0140   15.3420   13.2730 O.3    27  SER27      -0.2179
     34  N          1.2640   11.0530   13.4420 N.am   28  TYR28      -0.1959
     35  CA         0.4720   10.0030   12.8210 C.3    28  TYR28       0.1771
     36  C          0.1510    8.8650   13.7490 C.2    28  TYR28       0.2620
     37  O         -0.8840    8.2500   13.6010 O.2    28  TYR28      -0.2715
     38  CB         1.1850    9.4720   11.5890 C.3    28  TYR28       0.0574
     39  CG         1.2970   10.4970   10.5070 C.ar   28  TYR28      -0.0198
     40  CD1        0.3170   10.5980    9.5320 C.ar   28  TYR28      -0.0009
     41  CD2        2.3860   11.3750   10.4550 C.ar   28  TYR28      -0.0009
     42  CE1        0.4090   11.5250    8.5500 C.ar   28  TYR28       0.0417
     43  CE2        2.4820   12.3330    9.4560 C.ar   28  TYR28       0.0417
     44  CZ         1.4890   12.3990    8.5100 C.ar   28  TYR28       0.1957
     45  OH         1.5400   13.3180    7.4910 O.3    28  TYR28      -0.2866
     46  N          1.0320    8.5690   14.6880 N.am   29  GLY29      -0.1954
     47  CA         0.8840    7.3810   15.4970 C.3    29  GLY29       0.1869
     48  C          1.0690    7.6610   16.9600 C.2    29  GLY29       0.2309
     49  O          1.6880    8.6400   17.3300 O.2    29  GLY29      -0.2863
     50  N          2.4970    5.4070   20.1830 N.3    31  VAL31      -0.1245
     51  CA         3.2320    4.1660   20.3670 C.3    31  VAL31       0.1561
     52  C          3.3920    3.8090   21.8400 C.2    31  VAL31       0.2260
     53  O          3.5240    4.6780   22.6900 O.2    31  VAL31      -0.2867
     54  CB         4.5500    4.1370   19.5510 C.3    31  VAL31       0.0252
     55  CG1        4.8730    5.5220   18.9800 C.3    31  VAL31       0.0019
     56  CG2        5.6910    3.5350   20.3390 C.3    31  VAL31       0.0019
     57  N          7.7320   -2.2190   21.0960 N.3    44  ALA44      -0.1245
     58  CA         6.9480   -0.9960   20.8980 C.3    44  ALA44       0.1562
     59  C          5.8480   -1.2780   19.9070 C.2    44  ALA44       0.2260
     60  O          6.0790   -1.9520   18.9210 O.2    44  ALA44      -0.2867
     61  CB         7.8220    0.1120   20.3670 C.3    44  ALA44       0.0290
     62  N          3.1770    0.7470   17.5520 N.3    46  LYS46      -0.1245
     63  CA         2.6700    1.9910   16.9810 C.3    46  LYS46       0.1561
     64  C          1.2800    1.7190   16.4500 C.2    46  LYS46       0.2260
     65  O          1.0990    0.8340   15.6140 O.2    46  LYS46      -0.2867
     66  CB         3.5740    2.5070   15.8430 C.3    46  LYS46       0.0271
     67  CG         3.0820    3.8260   15.2080 C.3    46  LYS46       0.0035
     68  CD         3.8350    4.2550   13.9360 C.3    46  LYS46       0.0206
     69  CE         5.2490    4.7600   14.1880 C.3    46  LYS46       0.1093
     70  NZ         5.7940    5.5860   13.0560 N.3    46  LYS46      -0.1314
     71  N         -1.7310    3.3420   14.2510 N.3    48  VAL48      -0.1245
     72  CA        -2.1100    4.4200   13.3470 C.3    48  VAL48       0.1561
     73  C         -3.5960    4.3340   13.0140 C.2    48  VAL48       0.2260
     74  O         -4.0910    3.2760   12.6080 O.2    48  VAL48      -0.2867
     75  CB        -1.3010    4.4090   12.0440 C.3    48  VAL48       0.0252
     76  CG1       -1.6590    5.6250   11.2300 C.3    48  VAL48       0.0019
     77  CG2        0.2050    4.3780   12.3350 C.3    48  VAL48       0.0019
     78  N          1.9760    6.7000    2.8520 N.3    60  ARG60      -0.1245
     79  CA         3.0190    6.9980    3.8230 C.3    60  ARG60       0.1563
     80  C          3.2870    5.8070    4.7540 C.2    60  ARG60       0.2260
     81  O          4.4260    5.3860    4.8940 O.2    60  ARG60      -0.2867
     82  CB         2.6230    8.2370    4.6290 C.3    60  ARG60       0.0307
     83  CG         3.7400    8.9060    5.3540 C.3    60  ARG60       0.0489
     84  CD         3.2350    9.7540    6.5170 C.3    60  ARG60       0.2205
     85  NE         3.3260    8.9890    7.7480 N.pl3  60  ARG60      -0.0865
     86  CZ         4.2490    9.1550    8.6860 C.cat  60  ARG60       0.5346
     87  NH1        5.1770   10.1020    8.5690 N.pl3  60  ARG60       0.1354
     88  NH2        4.2410    8.3580    9.7550 N.pl3  60  ARG60       0.1354
     89  N         15.5330    0.3040   13.1890 N.3    77  ILE77      -0.1245
     90  CA        14.6580   -0.3580   14.1390 C.3    77  ILE77       0.1561
     91  C         13.9960   -1.5490   13.4460 C.2    77  ILE77       0.2260
     92  O         13.6390   -1.4800   12.2820 O.2    77  ILE77      -0.2867
     93  CB        13.6430    0.6070   14.7520 C.3    77  ILE77       0.0252
     94  CG1       13.0800    0.0270   16.0550 C.3    77  ILE77       0.0019
     95  CG2       12.5530    0.9430   13.7460 C.3    77  ILE77       0.0019
     96  CD1       14.1220   -0.0960   17.1960 C.3    77  ILE77       0.0001
     97  N          7.3020   -2.9920   16.8180 N.3    98  LEU98      -0.1231
     98  CA         8.7010   -2.6890   16.5450 C.3    98  LEU98       0.1693
     99  C          9.5920   -3.1040   17.6930 C.2    98  LEU98       0.2592
    100  O          9.1360   -3.2620   18.8260 O.2    98  LEU98      -0.2718
    101  CB         8.9060   -1.1900   16.3590 C.3    98  LEU98       0.0284
    102  CG         8.0970   -0.4600   15.3010 C.3    98  LEU98       0.0019
    103  CD1        8.3120    1.0300   15.4620 C.3    98  LEU98       0.0001
    104  CD2        8.4740   -0.9240   13.8800 C.3    98  LEU98       0.0001
    105  N         10.8790   -3.2600   17.3870 N.am   99  GLU99      -0.1966
    106  CA        11.9110   -3.3570   18.4040 C.3    99  GLU99       0.1733
    107  C         11.7630   -2.1670   19.3330 C.2    99  GLU99       0.2616
    108  O         11.4830   -1.0600   18.8770 O.2    99  GLU99      -0.2715
    109  CB        13.2770   -3.3540   17.7360 C.3    99  GLU99       0.0429
    110  CG        14.5030   -3.2500   18.6530 C.3    99  GLU99       0.1163
    111  CD        15.7810   -3.0900   17.8420 C.2    99  GLU99       0.3649
    112  OE1       15.6560   -3.0940   16.6030 O.co2  99  GLU99      -0.2457
    113  OE2       16.9040   -2.9560   18.4150 O.co2  99  GLU99      -0.2457
    114  N         11.9220   -2.4060   20.6320 N.am  100  ILE100     -0.1963
    115  CA        11.7790   -1.3530   21.6240 C.3   100  ILE100      0.1727
    116  C         13.1090   -0.6710   21.7270 C.2   100  ILE100      0.2616
    117  O         14.1370   -1.3030   21.5400 O.2   100  ILE100     -0.2715
    118  CB        11.4400   -1.9000   23.0230 C.3   100  ILE100      0.0290
    119  CG1       11.0800   -0.7640   24.0060 C.3   100  ILE100      0.0022
    120  CG2       12.6300   -2.6540   23.5910 C.3   100  ILE100      0.0023
    121  CD1        9.7990   -0.0260   23.7170 C.3   100  ILE100      0.0001
    122  N         13.0810    0.6240   22.0270 N.am  101  ALA101     -0.1963
    123  CA        14.2770    1.3600   22.3450 C.3   101  ALA101      0.1728
    124  C         14.0030    2.1430   23.6310 C.2   101  ALA101      0.2616
    125  O         12.8460    2.3600   23.9860 O.2   101  ALA101     -0.2715
    126  CB        14.6250    2.2770   21.1940 C.3   101  ALA101      0.0334
    127  N         15.0580    2.5510   24.3280 N.am  102  ASP102     -0.1957
    128  CA        14.9070    3.2080   25.6230 C.3   102  ASP102      0.1840
    129  C         14.3670    4.6020   25.4660 C.2   102  ASP102      0.2623
    130  O         13.5940    5.0470   26.2880 O.2   102  ASP102     -0.2715
    131  CB        16.2500    3.3000   26.3550 C.3   102  ASP102      0.1450
    132  CG        16.7780    1.9500   26.7800 C.2   102  ASP102      0.3671
    133  OD1       15.9490    1.0390   26.9750 O.co2 102  ASP102     -0.2456
    134  OD2       18.0180    1.8130   26.9290 O.co2 102  ASP102     -0.2456
    135  N         14.7870    5.2950   24.4100 N.am  103  SER103     -0.1936
    136  CA        14.4620    6.7020   24.2630 C.3   103  SER103      0.2055
    137  C         14.6420    7.1920   22.8360 C.2   103  SER103      0.2643
    138  O         14.6310    6.4050   21.8780 O.2   103  SER103     -0.2714
    139  CB        15.3220    7.5390   25.2170 C.3   103  SER103      0.2130
    140  OG        14.7720    8.8410   25.3640 O.3   103  SER103     -0.2179
    141  N         14.8000    8.4990   22.6920 N.am  104  ASP104     -0.1971
    142  CA        14.9610    9.1130   21.3850 C.3   104  ASP104      0.1709
    143  C         15.5670   10.4770   21.6220 C.2   104  ASP104      0.2293
    144  O         15.5610   10.9640   22.7620 O.2   104  ASP104     -0.2864
    145  CB        13.6150    9.1990   20.6690 C.3   104  ASP104      0.1436
    146  CG        12.6000   10.0620   21.4080 C.2   104  ASP104      0.3671
    147  OD1       12.7650   11.3160   21.4600 O.co2 104  ASP104     -0.2456
    148  OD2       11.6020    9.4900   21.8910 O.co2 104  ASP104     -0.2456
    149  N         14.8620   13.4970   20.7900 N.3   106  LYS106     -0.1231
    150  CA        13.9410   14.5660   21.1600 C.3   106  LYS106      0.1693
    151  C         13.6310   14.5420   22.6550 C.2   106  LYS106      0.2591
    152  O         13.5600   15.5910   23.2800 O.2   106  LYS106     -0.2718
    153  CB        12.6490   14.4560   20.3450 C.3   106  LYS106      0.0285
    154  CG        11.6730   15.6260   20.5620 C.3   106  LYS106      0.0035
    155  CD        10.4860   15.5940   19.5770 C.3   106  LYS106      0.0206
    156  CE         9.4610   16.6940   19.8960 C.3   106  LYS106      0.1093
    157  NZ         8.4630   16.9250   18.8200 N.3   106  LYS106     -0.1314
    158  N         13.4530   13.3410   23.2200 N.am  107  LYS107     -0.1980
    159  CA        13.2960   13.1950   24.6470 C.3   107  LYS107      0.1596
    160  C         14.5840   13.6020   25.3910 C.2   107  LYS107      0.2287
    161  O         14.5330   14.3450   26.3830 O.2   107  LYS107     -0.2864
    162  CB        12.9210   11.7550   25.0230 C.3   107  LYS107      0.0298
    163  CG        11.4740   11.3340   24.7160 C.3   107  LYS107      0.0038
    164  CD        11.0960   10.0350   25.4510 C.3   107  LYS107      0.0206
    165  CE         9.8310    9.3460   24.8850 C.3   107  LYS107      0.1093
    166  NZ         8.7720   10.2660   24.3280 N.3   107  LYS107     -0.1314
    167  N         13.4750   12.5980    6.0670 N.3   143  ASP143     -0.1239
    168  CA        12.8500   13.2370    7.2050 C.3   143  ASP143      0.1674
    169  C         13.4500   12.8700    8.5480 C.2   143  ASP143      0.2266
    170  O         12.7050   12.6210    9.5060 O.2   143  ASP143     -0.2867
    171  CB        11.3780   12.9000    7.2240 C.3   143  ASP143      0.1410
    172  CG        10.6140   13.7370    8.2120 C.2   143  ASP143      0.3668
    173  OD1       10.8810   14.9630    8.2450 O.co2 143  ASP143     -0.2456
    174  OD2        9.7550   13.1740    8.9360 O.co2 143  ASP143     -0.2456
    175  N         15.0190   13.4420   12.0730 N.3   145  LYS145     -0.1245
    176  CA        14.8180   14.4760   13.0730 C.3   145  LYS145      0.1561
    177  C         14.9320   13.8140   14.4120 C.2   145  LYS145      0.2260
    178  O         14.9530   12.5790   14.4770 O.2   145  LYS145     -0.2867
    179  CB        13.4650   15.1890   12.8720 C.3   145  LYS145      0.0271
    180  CG        12.2760   14.2580   12.8660 C.3   145  LYS145      0.0035
    181  CD        11.0720   14.8030   12.1530 C.3   145  LYS145      0.0206
    182  CE         9.8340   14.0140   12.5740 C.3   145  LYS145      0.1093
    183  NZ         8.7240   13.9960   11.6030 N.3   145  LYS145     -0.1314
    184  N         13.0130   13.1540   16.7560 N.3   147  ALA147     -0.1231
    185  CA        11.9560   12.2590   17.1570 C.3   147  ALA147      0.1694
    186  C         12.1420   10.8330   16.5900 C.2   147  ALA147      0.2592
    187  O         11.6830    9.8640   17.2100 O.2   147  ALA147     -0.2718
    188  CB        10.5990   12.8120   16.7580 C.3   147  ALA147      0.0304
    189  N         12.8040   10.6960   15.4450 N.am  148  ASN148     -0.1974
    190  CA        12.9090    9.3930   14.7830 C.3   148  ASN148      0.1688
    191  C         14.3150    8.8280   14.8050 C.2   148  ASN148      0.2292
    192  O         14.6260    7.9000   14.0400 O.2   148  ASN148     -0.2864
    193  CB        12.3350    9.4110   13.3500 C.3   148  ASN148      0.1181
    194  CG        13.0210   10.4090   12.4290 C.2   148  ASN148      0.2629
    195  OD1       14.2300   10.6340   12.5060 O.2   148  ASN148     -0.2716
    196  ND2       12.2450   10.9930   11.5290 N.am  148  ASN148     -0.0877
    197  N         15.9440    6.9790   17.5470 N.3   150  LEU150     -0.1245
    198  CA        15.6760    6.3420   18.8340 C.3   150  LEU150      0.1561
    199  C         17.0260    6.1000   19.4810 C.2   150  LEU150      0.2260
    200  O         18.0370    6.0240   18.7890 O.2   150  LEU150     -0.2867
    201  CB        14.9030    5.0290   18.6710 C.3   150  LEU150      0.0270
    202  CG        13.5440    5.1280   17.9810 C.3   150  LEU150      0.0019
    203  CD1       13.0290    3.7840   17.5770 C.3   150  LEU150      0.0001
    204  CD2       12.5330    5.8190   18.8740 C.3   150  LEU150      0.0001
    205  N         14.1460    5.2210   12.5290 N.3   160  CYS160     -0.1221
    206  CA        12.7750    4.7470   12.2780 C.3   160  CYS160      0.1808
    207  C         12.0570    5.7440   11.4010 C.2   160  CYS160      0.2601
    208  O         12.6900    6.6470   10.8510 O.2   160  CYS160     -0.2717
    209  CB        11.9780    4.5190   13.5830 C.3   160  CYS160      0.0970
    210  SG        11.4570    6.0280   14.4890 S.3   160  CYS160     -0.0800
    211  N         10.7530    5.5350   11.2140 N.am  161  ASP161     -0.1973
    212  CA         9.8750    6.5280   10.6180 C.3   161  ASP161      0.1709
    213  C         10.1740    6.8500    9.1210 C.2   161  ASP161      0.2293
    214  O         10.2580    8.0200    8.7290 O.2   161  ASP161     -0.2864
    215  CB         9.9490    7.7950   11.4850 C.3   161  ASP161      0.1436
    216  CG         8.7810    8.6910   11.3020 C.2   161  ASP161      0.3671
    217  OD1        7.6570    8.2090   11.1190 O.co2 161  ASP161     -0.2456
    218  OD2        8.9800    9.9050   11.3550 O.co2 161  ASP161     -0.2456
@<TRIPOS>BOND
     1    78    79    1
     2    79    82    1
     3    79    80    1
     4    82    83    1
     5    80    81    2
     6    83    84    1
     7   167   168    1
     8    84    85    1
     9   168   171    1
    10   168   169    1
    11   171   172    1
    12    45    44    1
    13    85    86    2
    14   172   173   ar
    15   172   174   ar
    16    44    42   ar
    17    44    43   ar
    18   169   170    2
    19    42    40   ar
    20    87    86    1
    21    86    88    1
    22   214   213    2
    23   213   212    1
    24    43    41   ar
    25    40    39   ar
    26    41    39   ar
    27    39    38    1
    28   212   211    1
    29   212   215    1
    30   208   207    2
    31   217   216   ar
    32   211   207   am
    33    76    75    1
    34   216   218   ar
    35   216   215    1
    36   207   206    1
    37   196   194   am
    38    38    35    1
    39   183   182    1
    40    75    77    1
    41    75    72    1
    42   175   176    1
    43   181   182    1
    44   181   180    1
    45   206   205    1
    46   206   209    1
    47    92    91    2
    48   194   195    2
    49   194   193    1
    50    74    73    2
    51    32    33    1
    52    32    29    1
    53    35    34    1
    54    35    36    1
    55    31    30    2
    56   180   179    1
    57   179   176    1
    58    73    72    1
    59    70    69    1
    60   176   177    1
    61    89    90    1
    62    72    71    1
    63   193   190    1
    64    30    34   am
    65    30    29    1
    66    91    90    1
    67   209   210    1
    68    37    36    2
    69    95    93    1
    70    36    46   am
    71   104   102    1
    72    29    28    1
    73    68    69    1
    74    68    67    1
    75   192   191    2
    76    90    93    1
    77   177   178    2
    78    28    26   am
    79    46    47    1
    80    93    94    1
    81   190   191    1
    82   190   189    1
    83    67    66    1
    84   102   103    1
    85   102   101    1
    86   189   186   am
    87    47    48    1
    88    65    64    2
    89    66    63    1
    90    26    27    2
    91    26    25    1
    92    94    96    1
    93   101    98    1
    94    64    63    1
    95    98    97    1
    96    98    99    1
    97    25    24    1
    98   186   185    1
    99   186   187    2
   100   112   111   ar
   101   184   185    1
   102   188   185    1
   103    48    49    2
   104    63    62    1
   105   105    99   am
   106   105   106    1
   107   197   198    1
   108   203   202    1
   109    24    15   am
   110    99   100    2
   111   109   106    1
   112   109   110    1
   113   111   113   ar
   114   111   110    1
   115   202   201    1
   116   202   204    1
   117   106   107    1
   118   201   198    1
   119   200   199    2
   120    15    16    2
   121    15    14    1
   122   157   156    1
   123   198   199    1
   124   108   107    2
   125    60    59    2
   126    55    54    1
   127   107   114   am
   128    54    56    1
   129    54    51    1
   130   155   156    1
   131   155   154    1
   132    14    17    1
   133    14    13    1
   134    59    58    1
   135    18    19    1
   136    18    17    1
   137    22    21    1
   138    21    23    1
   139    21    20    2
   140    50    51    1
   141    20    19    1
   142   153   154    1
   143   153   150    1
   144    51    52    1
   145    61    58    1
   146   114   115    1
   147   145   142    1
   148   145   146    1
   149    13    11   am
   150   149   150    1
   151    58    57    1
   152   150   151    1
   153   126   123    1
   154    12    11    2
   155   142   143    1
   156   142   141    1
   157   146   147   ar
   158   146   148   ar
   159    11    10    1
   160   117   116    2
   161   143   144    2
   162   115   116    1
   163   115   118    1
   164   116   122   am
   165    52    53    2
   166   138   137    2
   167   122   123    1
   168   123   124    1
   169    10     9    1
   170   151   158   am
   171   151   152    2
   172   141   137   am
   173   137   136    1
   174   118   120    1
   175   118   119    1
   176   158   159    1
   177     9     3   am
   178   124   125    2
   179   124   127   am
   180   121   119    1
   181     7     5    1
   182   136   135    1
   183   136   139    1
   184   127   128    1
   185   166   165    1
   186   135   129   am
   187     3     4    2
   188     3     2    1
   189   159   162    1
   190   159   160    1
   191   163   162    1
   192   163   164    1
   193     5     2    1
   194     5     6    1
   195   165   164    1
   196   139   140    1
   197     2     1    1
   198   160   161    2
   199   129   128    1
   200   129   130    2
   201     8     6    1
   202   128   131    1
   203   131   132    1
   204   132   134   ar
   205   132   133   ar
