@<TRIPOS>MOLECULE
tmp/3nifA00.pdb
 96 95 0 0 0
SMALL
GASTEIGER

@<TRIPOS>ATOM
      1  N         44.6010  106.7240   79.4260 N.3   159  ASP159     -0.1225
      2  CA        46.0230  106.5370   79.0880 C.3   159  ASP159      0.1805
      3  C         46.2800  105.6770   77.8270 C.2   159  ASP159      0.2598
      4  O         47.2610  104.9190   77.7440 O.2   159  ASP159     -0.2718
      5  CB        46.7520  105.9980   80.3230 C.3   159  ASP159      0.1424
      6  CG        46.4860  106.8640   81.5580 C.2   159  ASP159      0.3668
      7  OD1       46.9020  108.0500   81.5420 O.co2 159  ASP159     -0.2456
      8  OD2       45.8410  106.3790   82.5210 O.co2 159  ASP159     -0.2456
      9  N         45.3850  105.8150   76.8520 N.am  160  PHE160     -0.1962
     10  CA        45.5880  105.2770   75.5120 C.3   160  PHE160      0.1771
     11  C         45.7020  103.7640   75.5120 C.2   160  PHE160      0.2620
     12  O         46.3510  103.1770   74.6460 O.2   160  PHE160     -0.2715
     13  CB        46.8080  105.9250   74.8330 C.3   160  PHE160      0.0574
     14  CG        46.6640  107.4060   74.6420 C.ar  160  PHE160     -0.0200
     15  CD1       47.0680  108.2900   75.6280 C.ar  160  PHE160     -0.0042
     16  CD2       46.0960  107.9160   73.4890 C.ar  160  PHE160     -0.0042
     17  CE1       46.9250  109.6480   75.4590 C.ar  160  PHE160     -0.0003
     18  CE2       45.9390  109.2800   73.3170 C.ar  160  PHE160     -0.0003
     19  CZ        46.3520  110.1430   74.2980 C.ar  160  PHE160     -0.0000
     20  N         45.0270  103.1380   76.4670 N.am  161  SER161     -0.1950
     21  CA        44.9720  101.6880   76.5420 C.3   161  SER161      0.1924
     22  C         43.9210  101.1870   75.5610 C.2   161  SER161      0.2314
     23  O         42.9350  101.8700   75.3100 O.2   161  SER161     -0.2863
     24  CB        44.6240  101.2600   77.9670 C.3   161  SER161      0.2116
     25  OG        43.2820  101.5920   78.2610 O.3   161  SER161     -0.2180
     26  N         47.0520   99.2030   69.0630 N.3   189  TYR189     -0.1227
     27  CA        47.4320   99.5410   70.4270 C.3   189  TYR189      0.1736
     28  C         48.5770  100.5350   70.4540 C.2   189  TYR189      0.2595
     29  O         49.6300  100.2760   71.0350 O.2   189  TYR189     -0.2718
     30  CB        47.7800   98.2840   71.2160 C.3   189  TYR189      0.0548
     31  CG        46.6670   97.2530   71.2640 C.ar  189  TYR189     -0.0200
     32  CD1       45.3510   97.6260   71.4770 C.ar  189  TYR189     -0.0009
     33  CD2       46.9440   95.8990   71.1270 C.ar  189  TYR189     -0.0009
     34  CE1       44.3470   96.6960   71.5170 C.ar  189  TYR189      0.0417
     35  CE2       45.9450   94.9600   71.1840 C.ar  189  TYR189      0.0417
     36  CZ        44.6510   95.3640   71.3710 C.ar  189  TYR189      0.1957
     37  OH        43.6560   94.4350   71.4280 O.3   189  TYR189     -0.2866
     38  N         48.3440  101.6800   69.8180 N.am  190  TYR190     -0.1976
     39  CA        49.2990  102.7900   69.7730 C.3   190  TYR190      0.1639
     40  C         50.6660  102.3320   69.2650 C.2   190  TYR190      0.2290
     41  O         51.6930  102.5930   69.8670 O.2   190  TYR190     -0.2864
     42  CB        49.3850  103.5300   71.1200 C.3   190  TYR190      0.0560
     43  CG        49.4940  105.0320   70.9210 C.ar  190  TYR190     -0.0198
     44  CD1       50.6890  105.6070   70.5030 C.ar  190  TYR190     -0.0009
     45  CD2       48.3890  105.8680   71.0970 C.ar  190  TYR190     -0.0009
     46  CE1       50.7920  106.9700   70.2920 C.ar  190  TYR190      0.0417
     47  CE2       48.4830  107.2310   70.8810 C.ar  190  TYR190      0.0417
     48  CZ        49.6890  107.7770   70.4750 C.ar  190  TYR190      0.1957
     49  OH        49.8160  109.1300   70.2550 O.3   190  TYR190     -0.2866
     50  N         52.0250   99.2960   68.8190 N.3   192  LEU192     -0.1245
     51  CA        52.5860   98.0030   69.2200 C.3   192  LEU192      0.1561
     52  C         52.3450   96.9780   68.1440 C.2   192  LEU192      0.2260
     53  O         53.2190   96.1820   67.8110 O.2   192  LEU192     -0.2867
     54  CB        51.9310   97.4660   70.4860 C.3   192  LEU192      0.0270
     55  CG        52.6480   97.8610   71.7550 C.3   192  LEU192      0.0019
     56  CD1       52.6520   99.3890   71.8500 C.3   192  LEU192      0.0001
     57  CD2       51.9910   97.2080   72.9370 C.3   192  LEU192      0.0001
     58  N         47.1260   94.2640   74.3670 N.3   224  ASP224     -0.1225
     59  CA        47.9360   95.4480   74.5830 C.3   224  ASP224      0.1805
     60  C         49.0220   95.0670   75.5800 C.2   224  ASP224      0.2598
     61  O         48.9730   93.9990   76.1790 O.2   224  ASP224     -0.2718
     62  CB        47.0480   96.5740   75.1590 C.3   224  ASP224      0.1424
     63  CG        47.6370   97.9770   74.9710 C.2   224  ASP224      0.3668
     64  OD1       48.8020   98.1230   74.5510 O.co2 224  ASP224     -0.2456
     65  OD2       46.9210   98.9560   75.2670 O.co2 224  ASP224     -0.2456
     66  N         50.0040   95.9380   75.7570 N.am  225  SER225     -0.1938
     67  CA        51.0870   95.6910   76.6980 C.3   225  SER225      0.2055
     68  C         51.6510   97.0080   77.2160 C.2   225  SER225      0.2643
     69  O         51.5480   98.0600   76.5700 O.2   225  SER225     -0.2714
     70  CB        52.2020   94.8810   76.0310 C.3   225  SER225      0.2130
     71  OG        53.3340   94.7740   76.8860 O.3   225  SER225     -0.2179
     72  N         52.2440   96.9350   78.3940 N.am  226  SER226     -0.1949
     73  CA        52.9050   98.0740   79.0050 C.3   226  SER226      0.1924
     74  C         54.4130   97.8890   78.9410 C.2   226  SER226      0.2314
     75  O         55.1490   98.7140   79.4740 O.2   226  SER226     -0.2863
     76  CB        52.4770   98.1840   80.4670 C.3   226  SER226      0.2116
     77  OG        52.8930   97.0170   81.1660 O.3   226  SER226     -0.2180
     78  N         56.9350   98.5600   72.3130 N.3   231  PHE231     -0.1227
     79  CA        56.4380   99.8480   71.7960 C.3   231  PHE231      0.1736
     80  C         57.0030  100.1110   70.4040 C.2   231  PHE231      0.2595
     81  O         58.1860   99.8680   70.1520 O.2   231  PHE231     -0.2718
     82  CB        56.7670  101.0260   72.7170 C.3   231  PHE231      0.0547
     83  CG        56.1000  100.9790   74.0740 C.ar  231  PHE231     -0.0202
     84  CD1       56.3980  101.9590   75.0130 C.ar  231  PHE231     -0.0042
     85  CD2       55.2120   99.9680   74.4340 C.ar  231  PHE231     -0.0042
     86  CE1       55.8210  101.9380   76.2760 C.ar  231  PHE231     -0.0003
     87  CE2       54.6240   99.9530   75.6860 C.ar  231  PHE231     -0.0003
     88  CZ        54.9290  100.9430   76.6110 C.ar  231  PHE231     -0.0000
     89  N         56.1290  100.5630   69.5070 N.am  232  ASP232     -0.1974
     90  CA        56.4780  100.8310   68.1110 C.3   232  ASP232      0.1709
     91  C         57.1030   99.6130   67.4130 C.2   232  ASP232      0.2293
     92  O         57.9220   99.7650   66.5150 O.2   232  ASP232     -0.2864
     93  CB        57.4010  102.0530   68.0380 C.3   232  ASP232      0.1436
     94  CG        56.8750  103.2150   68.8580 C.2   232  ASP232      0.3671
     95  OD1       55.9130  103.8870   68.4080 O.co2 232  ASP232     -0.2456
     96  OD2       57.4130  103.4420   69.9610 O.co2 232  ASP232     -0.2456
@<TRIPOS>BOND
     1    92    91    2
     2    91    90    1
     3    53    52    2
     4    93    90    1
     5    93    94    1
     6    90    89    1
     7    52    51    1
     8    95    94   ar
     9    50    51    1
    10    94    96   ar
    11    26    27    1
    12    51    54    1
    13    40    39    1
    14    40    41    2
    15    89    80   am
    16    39    38    1
    17    39    42    1
    18    38    28   am
    19    81    80    2
    20    49    48    1
    21    46    48   ar
    22    46    44   ar
    23    80    79    1
    24    27    28    1
    25    27    30    1
    26    28    29    2
    27    48    47   ar
    28    54    55    1
    29    44    43   ar
    30    47    45   ar
    31    43    45   ar
    32    43    42    1
    33    33    35   ar
    34    33    31   ar
    35    35    36   ar
    36    30    31    1
    37    31    32   ar
    38    36    37    1
    39    36    34   ar
    40    32    34   ar
    41    55    56    1
    42    55    57    1
    43    79    78    1
    44    79    82    1
    45    82    83    1
    46    18    16   ar
    47    18    19   ar
    48    16    14   ar
    49    83    85   ar
    50    83    84   ar
    51    19    17   ar
    52    58    59    1
    53    85    87   ar
    54    64    63   ar
    55    59    62    1
    56    59    60    1
    57    14    13    1
    58    14    15   ar
    59    12    11    2
    60    13    10    1
    61    63    62    1
    62    63    65   ar
    63    84    86   ar
    64    23    22    2
    65    17    15   ar
    66    11    10    1
    67    11    20   am
    68    10     9    1
    69    22    21    1
    70    60    66   am
    71    60    61    2
    72    87    88   ar
    73    66    67    1
    74    70    67    1
    75    70    71    1
    76    86    88   ar
    77    20    21    1
    78    21    24    1
    79    69    68    2
    80    67    68    1
    81     9     3   am
    82    68    72   am
    83     4     3    2
    84     3     2    1
    85    24    25    1
    86    72    73    1
    87    74    73    1
    88    74    75    2
    89    73    76    1
    90     2     1    1
    91     2     5    1
    92     5     6    1
    93    76    77    1
    94     7     6   ar
    95     6     8   ar
