@<TRIPOS>MOLECULE
tmp/3nihA00.pdb
 138 131 0 0 0
SMALL
GASTEIGER

@<TRIPOS>ATOM
      1  N         24.1570   16.5100   -1.6260 N.3    13  PHE13      -0.1241
      2  CA        23.7930   15.8530   -0.3790 C.3    13  PHE13       0.1605
      3  C         24.5530   16.4500    0.7960 C.2    13  PHE13       0.2264
      4  O         25.7230   16.8140    0.6760 O.2    13  PHE13      -0.2867
      5  CB        24.0500   14.3440   -0.4390 C.3    13  PHE13       0.0534
      6  CG        23.1870   13.6240   -1.4360 C.ar   13  PHE13      -0.0203
      7  CD1       21.8710   13.2920   -1.1260 C.ar   13  PHE13      -0.0042
      8  CD2       23.6870   13.2930   -2.6900 C.ar   13  PHE13      -0.0042
      9  CE1       21.0680   12.6320   -2.0650 C.ar   13  PHE13      -0.0003
     10  CE2       22.8910   12.6250   -3.6370 C.ar   13  PHE13      -0.0003
     11  CZ        21.5890   12.3050   -3.3280 C.ar   13  PHE13      -0.0000
     12  N         19.9680    9.0340    0.7000 N.3    19  LEU19      -0.1245
     13  CA        20.3100    8.8980   -0.7090 C.3    19  LEU19       0.1561
     14  C         19.7400    7.5920   -1.2410 C.2    19  LEU19       0.2260
     15  O         19.7100    6.5930   -0.5300 O.2    19  LEU19      -0.2867
     16  CB        21.8250    8.9850   -0.9270 C.3    19  LEU19       0.0270
     17  CG        22.7600    7.9410   -0.3130 C.3    19  LEU19       0.0019
     18  CD1       23.1160    6.8630   -1.3340 C.3    19  LEU19       0.0001
     19  CD2       24.0180    8.6330    0.2060 C.3    19  LEU19       0.0001
     20  N         19.6600    4.6880   -4.3350 N.3    21  ARG21      -0.1245
     21  CA        20.1930    4.0320   -5.5260 C.3    21  ARG21       0.1563
     22  C         19.2980    2.8580   -5.9150 C.2    21  ARG21       0.2260
     23  O         18.5820    2.3030   -5.0830 O.2    21  ARG21      -0.2867
     24  CB        21.6060    3.5150   -5.2710 C.3    21  ARG21       0.0307
     25  CG        22.6510    4.5990   -5.1490 C.3    21  ARG21       0.0489
     26  CD        24.0200    4.0210   -4.8360 C.3    21  ARG21       0.2205
     27  NE        24.0310    3.3130   -3.5570 N.pl3  21  ARG21      -0.0865
     28  CZ        25.0930    3.1970   -2.7630 C.cat  21  ARG21       0.5346
     29  NH1       26.2550    3.7490   -3.1030 N.pl3  21  ARG21       0.1354
     30  NH2       24.9880    2.5290   -1.6180 N.pl3  21  ARG21       0.1354
     31  N         25.5990    2.5790  -12.6920 N.3    28  ASP28      -0.1225
     32  CA        26.5490    2.0020  -11.7450 C.3    28  ASP28       0.1805
     33  C         26.1830    2.4200  -10.3230 C.2    28  ASP28       0.2598
     34  O         25.1950    3.1340  -10.1180 O.2    28  ASP28      -0.2718
     35  CB        27.9980    2.3780  -12.1020 C.3    28  ASP28       0.1424
     36  CG        28.2630    3.8740  -12.0250 C.2    28  ASP28       0.3668
     37  OD1       27.9170    4.5060  -11.0020 O.co2  28  ASP28      -0.2456
     38  OD2       28.8430    4.4190  -12.9830 O.co2  28  ASP28      -0.2456
     39  N         26.9860    1.9810   -9.3540 N.am   29  ASP29      -0.1960
     40  CA        26.7400    2.2210   -7.9260 C.3    29  ASP29       0.1840
     41  C         26.9070    3.6620   -7.4660 C.2    29  ASP29       0.2623
     42  O         26.6990    3.9610   -6.2870 O.2    29  ASP29      -0.2715
     43  CB        27.6620    1.3290   -7.0790 C.3    29  ASP29       0.1450
     44  CG        27.0800   -0.0450   -6.8320 C.2    29  ASP29       0.3671
     45  OD1       25.8570   -0.1330   -6.5800 O.co2  29  ASP29      -0.2456
     46  OD2       27.8480   -1.0330   -6.8810 O.co2  29  ASP29      -0.2456
     47  N         27.3090    4.5550   -8.3640 N.am   30  THR30      -0.1937
     48  CA        27.5020    5.9590   -7.9770 C.3    30  THR30       0.2028
     49  C         26.3120    6.8180   -8.4070 C.2    30  THR30       0.2642
     50  O         26.2320    8.0060   -8.0780 O.2    30  THR30      -0.2714
     51  CB        28.8140    6.5480   -8.5400 C.3    30  THR30       0.1808
     52  OG1       28.6940    6.7080   -9.9590 O.3    30  THR30      -0.2208
     53  CG2       30.0000    5.6440   -8.2160 C.3    30  THR30       0.0379
     54  N         25.3910    6.1990   -9.1430 N.am   31  CYS31      -0.1953
     55  CA        24.1830    6.8670   -9.6090 C.3    31  CYS31       0.1843
     56  C         23.1200    6.9060   -8.5150 C.2    31  CYS31       0.2625
     57  O         22.6770    5.8620   -8.0270 O.2    31  CYS31      -0.2714
     58  CB        23.6620    6.1710  -10.8530 C.3    31  CYS31       0.0997
     59  SG        24.9080    6.1140  -12.1590 S.3    31  CYS31      -0.0797
     60  N         22.7100    8.1160   -8.1420 N.am   32  VAL32      -0.1977
     61  CA        21.8950    8.3200   -6.9400 C.3    32  VAL32       0.1596
     62  C         20.8040    9.3800   -7.1360 C.2    32  VAL32       0.2287
     63  O         20.9070   10.2470   -8.0040 O.2    32  VAL32      -0.2864
     64  CB        22.7770    8.7260   -5.7060 C.3    32  VAL32       0.0276
     65  CG1       21.9620    8.7580   -4.4320 C.3    32  VAL32       0.0022
     66  CG2       23.9480    7.7820   -5.5130 C.3    32  VAL32       0.0022
     67  N         23.6630    9.4550    4.0800 N.3    53  CYS53      -0.1235
     68  CA        24.9190   10.0930    3.6960 C.3    53  CYS53       0.1677
     69  C         25.8400   10.3380    4.8940 C.2    53  CYS53       0.2270
     70  O         25.3790   10.7280    5.9710 O.2    53  CYS53      -0.2867
     71  CB        24.6150   11.4130    2.9870 C.3    53  CYS53       0.0956
     72  SG        26.0080   12.1600    2.1550 S.3    53  CYS53      -0.0801
     73  N         32.2010   10.6900    4.6350 N.3    56  PHE56      -0.1227
     74  CA        32.9640    9.9820    3.6040 C.3    56  PHE56       0.1736
     75  C         32.2730   10.0450    2.2480 C.2    56  PHE56       0.2596
     76  O         32.8280   10.6020    1.2970 O.2    56  PHE56      -0.2718
     77  CB        33.2360    8.5320    4.0320 C.3    56  PHE56       0.0547
     78  CG        33.8910    8.4130    5.3850 C.ar   56  PHE56      -0.0202
     79  CD1       33.1280    8.1520    6.5220 C.ar   56  PHE56      -0.0042
     80  CD2       35.2680    8.5710    5.5250 C.ar   56  PHE56      -0.0042
     81  CE1       33.7250    8.0460    7.7770 C.ar   56  PHE56      -0.0003
     82  CE2       35.8740    8.4680    6.7740 C.ar   56  PHE56      -0.0003
     83  CZ        35.1010    8.2040    7.9030 C.ar   56  PHE56      -0.0000
     84  N         31.0650    9.4880    2.1600 N.am   57  THR57      -0.1939
     85  CA        30.2540    9.6150    0.9510 C.3    57  THR57       0.2028
     86  C         29.8240   11.0680    0.7880 C.2    57  THR57       0.2643
     87  O         29.4830   11.7390    1.7670 O.2    57  THR57      -0.2714
     88  CB        29.0090    8.6930    0.9580 C.3    57  THR57       0.1808
     89  OG1       28.2210    8.9440    2.1290 O.3    57  THR57      -0.2208
     90  CG2       29.4220    7.2230    0.9300 C.3    57  THR57       0.0379
     91  N         29.8670   11.5530   -0.4480 N.am   58  SER58      -0.1935
     92  CA        29.5590   12.9450   -0.7460 C.3    58  SER58       0.2058
     93  C         29.3220   13.1240   -2.2400 C.2    58  SER58       0.2683
     94  O         30.1070   12.6380   -3.0580 O.2    58  SER58      -0.2710
     95  CB        30.7030   13.8540   -0.2810 C.3    58  SER58       0.2130
     96  OG        31.8840   13.6330   -1.0370 O.3    58  SER58      -0.2179
     97  N         28.2470   13.8170   -2.6060 N.am   59  GLY59      -0.1715
     98  CA        27.9740   14.0530   -4.0240 C.2    59  GLY59       0.1480
     99  C         26.6430   14.6940   -4.3570 C.2    59  GLY59       0.2820
    100  O         26.0620   15.4080   -3.5370 O.2    59  GLY59      -0.2669
    101  N         26.1670   14.4280   -5.5720 N.am   60  ILE60      -0.1943
    102  CA        25.0180   15.1290   -6.1370 C.3    60  ILE60       0.1599
    103  C         23.9960   14.1640   -6.7200 C.2    60  ILE60       0.2287
    104  O         24.3380   13.0750   -7.1840 O.2    60  ILE60      -0.2864
    105  CB        25.4330   16.1540   -7.2370 C.3    60  ILE60       0.0276
    106  CG1       26.1710   15.4530   -8.3810 C.3    60  ILE60       0.0022
    107  CG2       26.2750   17.2860   -6.6330 C.3    60  ILE60       0.0022
    108  CD1       26.1720   16.2050   -9.7090 C.3    60  ILE60       0.0001
    109  N         21.4670   12.5960   -9.2990 N.3    62  ASP62      -0.1239
    110  CA        21.5970   12.3830  -10.7540 C.3    62  ASP62       0.1674
    111  C         20.2750   12.4430  -11.5150 C.2    62  ASP62       0.2266
    112  O         20.2420   12.2020  -12.7260 O.2    62  ASP62      -0.2867
    113  CB        22.3150   11.0580  -11.0480 C.3    62  ASP62       0.1410
    114  CG        23.7230   11.0190  -10.4760 C.2    62  ASP62       0.3668
    115  OD1       24.5620   11.8460  -10.8840 O.co2  62  ASP62      -0.2456
    116  OD2       23.9900   10.1620   -9.6140 O.co2  62  ASP62      -0.2456
    117  N         19.7460   13.4860  -15.2120 N.3    65  ASP65      -0.1239
    118  CA        20.9590   13.1440  -15.9430 C.3    65  ASP65       0.1674
    119  C         20.7630   11.7430  -16.5260 C.2    65  ASP65       0.2266
    120  O         21.0250   10.7350  -15.8650 O.2    65  ASP65      -0.2867
    121  CB        22.1850   13.1960  -15.0280 C.3    65  ASP65       0.1410
    122  CG        23.4840   12.9060  -15.7590 C.2    65  ASP65       0.3668
    123  OD1       23.4480   12.4810  -16.9360 O.co2  65  ASP65      -0.2456
    124  OD2       24.5550   13.1000  -15.1480 O.co2  65  ASP65      -0.2456
    125  N         22.3200   10.0340  -18.6690 N.3    67  GLU67      -0.1231
    126  CA        23.5710    9.2780  -18.7160 C.3    67  GLU67       0.1699
    127  C         23.8210    8.4340  -17.4420 C.2    67  GLU67       0.2592
    128  O         24.7630    7.6340  -17.3900 O.2    67  GLU67      -0.2718
    129  CB        24.7170   10.2720  -18.9120 C.3    67  GLU67       0.0402
    130  CG        25.9380    9.7440  -19.6380 C.3    67  GLU67       0.1161
    131  CD        26.9210   10.8480  -19.9880 C.2    67  GLU67       0.3649
    132  OE1       27.2180   11.0160  -21.1890 O.co2  67  GLU67      -0.2457
    133  OE2       27.3890   11.5540  -19.0690 O.co2  67  GLU67      -0.2457
    134  N         22.9830    8.6190  -16.4210 N.am   68  ALA68      -0.1980
    135  CA        23.1420    7.9130  -15.1470 C.3    68  ALA68       0.1597
    136  C         22.0890    6.8220  -14.9220 C.2    68  ALA68       0.2287
    137  O         22.1300    6.1180  -13.9060 O.2    68  ALA68      -0.2864
    138  CB        23.1220    8.9090  -14.0010 C.3    68  ALA68       0.0319
@<TRIPOS>BOND
     1   132   131   ar
     2   131   130    1
     3   131   133   ar
     4   130   129    1
     5   129   126    1
     6   126   125    1
     7   126   127    1
     8   127   128    2
     9   127   134   am
    10   123   122   ar
    11   119   118    1
    12   119   120    2
    13   134   135    1
    14   118   117    1
    15   118   121    1
    16   122   124   ar
    17   122   121    1
    18   135   136    1
    19   135   138    1
    20   136   137    2
    21    38    36   ar
    22   112   111    2
    23    31    32    1
    24    59    58    1
    25    35    36    1
    26    35    32    1
    27    36    37   ar
    28    32    33    1
    29   111   110    1
    30   113   110    1
    31   113   114    1
    32   115   114   ar
    33    58    55    1
    34   110   109    1
    35   114   116   ar
    36    33    34    2
    37    33    39   am
    38    52    51    1
    39   108   106    1
    40    55    54    1
    41    55    56    1
    42    39    40    1
    43    54    49   am
    44    51    53    1
    45    51    48    1
    46    56    60   am
    47    56    57    2
    48    49    50    2
    49    49    48    1
    50   106   105    1
    51    47    48    1
    52    47    41   am
    53    60    61    1
    54    63    62    2
    55    40    41    1
    56    40    43    1
    57    41    42    2
    58   105   107    1
    59   105   102    1
    60   104   103    2
    61    62    61    1
    62    43    44    1
    63    61    64    1
    64    46    44   ar
    65    44    45   ar
    66   103   102    1
    67   102   101    1
    68    22    21    1
    69    22    23    2
    70    64    66    1
    71    64    65    1
    72   101    99   am
    73    21    24    1
    74    21    20    1
    75    24    25    1
    76    25    26    1
    77    26    27    1
    78    99    98    1
    79    99   100    2
    80    98    97    2
    81    10    11   ar
    82    10     8   ar
    83    27    28    2
    84    11     9   ar
    85    29    28    1
    86    94    93    2
    87    28    30    1
    88     8     6   ar
    89    97    93    1
    90    93    92    1
    91     9     7   ar
    92     1     2    1
    93     6     7   ar
    94     6     5    1
    95    18    17    1
    96    14    13    1
    97    14    15    2
    98    96    95    1
    99    16    13    1
   100    16    17    1
   101    92    91    1
   102    92    95    1
   103    13    12    1
   104    91    86   am
   105     5     2    1
   106     2     3    1
   107    17    19    1
   108     4     3    2
   109    86    85    1
   110    86    87    2
   111    90    88    1
   112    85    88    1
   113    85    84    1
   114    88    89    1
   115    76    75    2
   116    72    71    1
   117    84    75   am
   118    75    74    1
   119    71    68    1
   120    74    77    1
   121    74    73    1
   122    68    67    1
   123    68    69    1
   124    77    78    1
   125    69    70    2
   126    78    80   ar
   127    78    79   ar
   128    80    82   ar
   129    79    81   ar
   130    82    83   ar
   131    81    83   ar
