@<TRIPOS>MOLECULE
tmp/3niiA00.pdb
 132 126 0 0 0
SMALL
GASTEIGER

@<TRIPOS>ATOM
      1  N         24.1110   16.5680   -1.6540 N.3    13  PHE13      -0.1241
      2  CA        23.7580   15.9060   -0.4030 C.3    13  PHE13       0.1605
      3  C         24.5560   16.4530    0.7760 C.2    13  PHE13       0.2264
      4  O         25.7310   16.7970    0.6450 O.2    13  PHE13      -0.2867
      5  CB        23.9570   14.3880   -0.4990 C.3    13  PHE13       0.0534
      6  CG        23.0350   13.7150   -1.4770 C.ar   13  PHE13      -0.0203
      7  CD1       21.7440   13.3600   -1.1040 C.ar   13  PHE13      -0.0042
      8  CD2       23.4590   13.4430   -2.7730 C.ar   13  PHE13      -0.0042
      9  CE1       20.8880   12.7410   -2.0110 C.ar   13  PHE13      -0.0003
     10  CE2       22.6070   12.8200   -3.6940 C.ar   13  PHE13      -0.0003
     11  CZ        21.3260   12.4710   -3.3170 C.ar   13  PHE13      -0.0000
     12  N         20.0800    9.0970    0.7110 N.3    19  LEU19      -0.1245
     13  CA        20.3860    8.9710   -0.7130 C.3    19  LEU19       0.1561
     14  C         19.8540    7.6470   -1.2540 C.2    19  LEU19       0.2260
     15  O         19.9330    6.6190   -0.5840 O.2    19  LEU19      -0.2867
     16  CB        21.8880    9.1480   -0.9820 C.3    19  LEU19       0.0270
     17  CG        22.9120    8.1560   -0.4300 C.3    19  LEU19       0.0019
     18  CD1       23.3640    7.2010   -1.5270 C.3    19  LEU19       0.0001
     19  CD2       24.1010    8.9100    0.1440 C.3    19  LEU19       0.0001
     20  N         19.6910    4.7590   -4.3000 N.3    21  ARG21      -0.1245
     21  CA        20.3040    4.0650   -5.4330 C.3    21  ARG21       0.1563
     22  C         19.4090    2.9060   -5.8700 C.2    21  ARG21       0.2260
     23  O         18.7270    2.3030   -5.0420 O.2    21  ARG21      -0.2867
     24  CB        21.6760    3.5210   -5.0330 C.3    21  ARG21       0.0307
     25  CG        22.8430    4.4170   -5.4080 C.3    21  ARG21       0.0489
     26  CD        23.8690    4.5620   -4.2870 C.3    21  ARG21       0.2205
     27  NE        24.3790    3.2920   -3.7710 N.pl3  21  ARG21      -0.0865
     28  CZ        25.4560    3.1770   -2.9940 C.cat  21  ARG21       0.5346
     29  NH1       26.1580    4.2520   -2.6500 N.pl3  21  ARG21       0.1354
     30  NH2       25.8410    1.9790   -2.5650 N.pl3  21  ARG21       0.1354
     31  N         25.5020    3.1860  -13.2460 N.3    28  ASP28      -0.1225
     32  CA        26.4870    2.5610  -12.3650 C.3    28  ASP28       0.1805
     33  C         26.1030    2.8260  -10.9100 C.2    28  ASP28       0.2598
     34  O         25.0610    3.4250  -10.6480 O.2    28  ASP28      -0.2718
     35  CB        27.9200    3.0190  -12.6910 C.3    28  ASP28       0.1424
     36  CG        28.1340    4.5100  -12.4770 C.2    28  ASP28       0.3668
     37  OD1       27.7940    5.0240  -11.3910 O.co2  28  ASP28      -0.2456
     38  OD2       28.6670    5.1690  -13.3930 O.co2  28  ASP28      -0.2456
     39  N         26.9370    2.3910   -9.9700 N.am   29  ASP29      -0.1960
     40  CA        26.5960    2.4870   -8.5430 C.3    29  ASP29       0.1840
     41  C         26.9030    3.8410   -7.9000 C.2    29  ASP29       0.2623
     42  O         26.7310    4.0120   -6.6890 O.2    29  ASP29      -0.2715
     43  CB        27.2430    1.3420   -7.7510 C.3    29  ASP29       0.1450
     44  CG        28.7180    1.1830   -8.0540 C.2    29  ASP29       0.3671
     45  OD1       29.0840    0.1830   -8.7100 O.co2  29  ASP29      -0.2456
     46  OD2       29.5130    2.0600   -7.6440 O.co2  29  ASP29      -0.2456
     47  N         27.3550    4.7990   -8.7070 N.am   30  THR30      -0.1937
     48  CA        27.5290    6.1780   -8.2420 C.3    30  THR30       0.2028
     49  C         26.2820    7.0190   -8.5510 C.2    30  THR30       0.2642
     50  O         26.1600    8.1580   -8.0910 O.2    30  THR30      -0.2714
     51  CB        28.7950    6.8510   -8.8400 C.3    30  THR30       0.1808
     52  OG1       28.6120    7.0720  -10.2440 O.3    30  THR30      -0.2208
     53  CG2       30.0380    5.9890   -8.6140 C.3    30  THR30       0.0379
     54  N         25.3570    6.4400   -9.3180 N.am   31  CYS31      -0.1953
     55  CA        24.1260    7.1200   -9.7250 C.3    31  CYS31       0.1843
     56  C         23.0760    7.1440   -8.6130 C.2    31  CYS31       0.2625
     57  O         22.6380    6.0930   -8.1320 O.2    31  CYS31      -0.2714
     58  CB        23.5620    6.4810  -10.9880 C.3    31  CYS31       0.0997
     59  SG        24.7460    6.4440  -12.3540 S.3    31  CYS31      -0.0797
     60  N         22.6760    8.3510   -8.2180 N.am   32  VAL32      -0.1977
     61  CA        21.8550    8.5490   -7.0160 C.3    32  VAL32       0.1596
     62  C         20.6990    9.5300   -7.1930 C.2    32  VAL32       0.2287
     63  O         20.7230   10.3890   -8.0690 O.2    32  VAL32      -0.2864
     64  CB        22.7110    9.0270   -5.7960 C.3    32  VAL32       0.0276
     65  CG1       23.6750    7.9480   -5.3540 C.3    32  VAL32       0.0022
     66  CG2       23.4670   10.3050   -6.1230 C.3    32  VAL32       0.0022
     67  N         32.2580   10.9660    3.8750 N.3    56  PHE56      -0.1227
     68  CA        32.9370   10.4010    2.7120 C.3    56  PHE56       0.1736
     69  C         32.1090   10.5150    1.4380 C.2    56  PHE56       0.2596
     70  O         32.5220   11.1800    0.4860 O.2    56  PHE56      -0.2718
     71  CB        33.3220    8.9380    2.9730 C.3    56  PHE56       0.0547
     72  CG        34.1890    8.7430    4.1890 C.ar   56  PHE56      -0.0202
     73  CD1       33.6310    8.3400    5.4000 C.ar   56  PHE56      -0.0042
     74  CD2       35.5630    8.9630    4.1250 C.ar   56  PHE56      -0.0042
     75  CE1       34.4260    8.1570    6.5280 C.ar   56  PHE56      -0.0003
     76  CE2       36.3660    8.7840    5.2470 C.ar   56  PHE56      -0.0003
     77  CZ        35.7960    8.3800    6.4510 C.ar   56  PHE56      -0.0000
     78  N         30.9400    9.8750    1.4380 N.am   57  THR57      -0.1939
     79  CA        30.0950    9.7640    0.2490 C.3    57  THR57       0.2028
     80  C         29.3700   11.0700   -0.0830 C.2    57  THR57       0.2643
     81  O         28.1430   11.1570    0.0230 O.2    57  THR57      -0.2714
     82  CB        29.0600    8.6210    0.3960 C.3    57  THR57       0.1808
     83  OG1       28.2510    8.8520    1.5580 O.3    57  THR57      -0.2208
     84  CG2       29.7550    7.2680    0.5200 C.3    57  THR57       0.0379
     85  N         30.1360   12.0780   -0.4940 N.am   58  SER58      -0.1935
     86  CA        29.5780   13.3760   -0.8590 C.3    58  SER58       0.2055
     87  C         29.3690   13.5090   -2.3670 C.2    58  SER58       0.2644
     88  O         30.2780   13.2380   -3.1600 O.2    58  SER58      -0.2714
     89  CB        30.4640   14.5100   -0.3410 C.3    58  SER58       0.2130
     90  OG        30.4360   14.5670    1.0750 O.3    58  SER58      -0.2179
     91  N         28.1670   13.9260   -2.7570 N.am   59  GLY59      -0.1939
     92  CA        27.8530   14.1420   -4.1660 C.3    59  GLY59       0.2014
     93  C         26.5110   14.8000   -4.4240 C.2    59  GLY59       0.2638
     94  O         25.9650   15.4830   -3.5560 O.2    59  GLY59      -0.2714
     95  N         25.9790   14.5830   -5.6260 N.am   60  ILE60      -0.1977
     96  CA        24.7830   15.2850   -6.0920 C.3    60  ILE60       0.1596
     97  C         23.7510   14.3410   -6.7120 C.2    60  ILE60       0.2287
     98  O         24.0850   13.2560   -7.1900 O.2    60  ILE60      -0.2864
     99  CB        25.1240   16.4150   -7.1080 C.3    60  ILE60       0.0276
    100  CG1       25.8310   15.8440   -8.3420 C.3    60  ILE60       0.0022
    101  CG2       25.9680   17.5030   -6.4480 C.3    60  ILE60       0.0022
    102  CD1       25.6090   16.6350   -9.6110 C.3    60  ILE60       0.0001
    103  N         21.2210   12.8020   -9.3350 N.3    62  ASP62      -0.1239
    104  CA        21.3300   12.5700  -10.7800 C.3    62  ASP62       0.1674
    105  C         19.9980   12.6000  -11.5150 C.2    62  ASP62       0.2266
    106  O         19.9520   12.3450  -12.7210 O.2    62  ASP62      -0.2867
    107  CB        22.0670   11.2550  -11.0540 C.3    62  ASP62       0.1410
    108  CG        23.4760   11.2640  -10.4980 C.2    62  ASP62       0.3668
    109  OD1       24.2230   12.2020  -10.8230 O.co2  62  ASP62      -0.2456
    110  OD2       23.8290   10.3530   -9.7250 O.co2  62  ASP62      -0.2456
    111  N         19.3580   13.7080  -15.2410 N.3    65  ASP65      -0.1239
    112  CA        20.5330   13.3800  -16.0430 C.3    65  ASP65       0.1674
    113  C         20.2800   12.0080  -16.6670 C.2    65  ASP65       0.2266
    114  O         20.5370   10.9720  -16.0480 O.2    65  ASP65      -0.2867
    115  CB        21.8110   13.3800  -15.1940 C.3    65  ASP65       0.1410
    116  CG        23.0680   13.0810  -16.0080 C.2    65  ASP65       0.3668
    117  OD1       22.9640   12.7520  -17.2120 O.co2  65  ASP65      -0.2456
    118  OD2       24.1750   13.1750  -15.4370 O.co2  65  ASP65      -0.2456
    119  N         21.6830   10.2590  -18.8850 N.3    67  GLU67      -0.1231
    120  CA        22.8670    9.4110  -19.0450 C.3    67  GLU67       0.1699
    121  C         23.1770    8.5500  -17.8160 C.2    67  GLU67       0.2592
    122  O         23.9140    7.5650  -17.9110 O.2    67  GLU67      -0.2718
    123  CB        24.0900   10.2630  -19.4090 C.3    67  GLU67       0.0402
    124  CG        24.0260   10.9170  -20.8000 C.3    67  GLU67       0.1161
    125  CD        24.2540    9.9380  -21.9470 C.2    67  GLU67       0.3649
    126  OE1       24.9340   10.3220  -22.9240 O.co2  67  GLU67      -0.2457
    127  OE2       23.7560    8.7920  -21.8860 O.co2  67  GLU67      -0.2457
    128  N         22.6130    8.9250  -16.6690 N.am   68  ALA68      -0.1980
    129  CA        22.8370    8.2030  -15.4230 C.3    68  ALA68       0.1597
    130  C         21.8260    7.0750  -15.1840 C.2    68  ALA68       0.2287
    131  O         21.9790    6.2950  -14.2430 O.2    68  ALA68      -0.2864
    132  CB        22.8380    9.1830  -14.2450 C.3    68  ALA68       0.0319
@<TRIPOS>BOND
     1   126   125   ar
     2   125   127   ar
     3   125   124    1
     4   124   123    1
     5   123   120    1
     6   120   119    1
     7   120   121    1
     8   122   121    2
     9   121   128   am
    10   117   116   ar
    11   128   129    1
    12   113   114    2
    13   113   112    1
    14   112   111    1
    15   112   115    1
    16   116   118   ar
    17   116   115    1
    18   129   130    1
    19   129   132    1
    20   130   131    2
    21    38    36   ar
    22    31    32    1
    23   106   105    2
    24    35    36    1
    25    35    32    1
    26    36    37   ar
    27    32    33    1
    28    59    58    1
    29   105   104    1
    30   107   104    1
    31   107   108    1
    32    58    55    1
    33    33    34    2
    34    33    39   am
    35   109   108   ar
    36   104   103    1
    37   108   110   ar
    38    52    51    1
    39    39    40    1
    40    55    54    1
    41    55    56    1
    42   102   100    1
    43    54    49   am
    44    51    53    1
    45    51    48    1
    46    45    44   ar
    47    47    48    1
    48    47    41   am
    49    56    60   am
    50    56    57    2
    51    49    48    1
    52    49    50    2
    53    40    41    1
    54    40    43    1
    55   100    99    1
    56    60    61    1
    57    63    62    2
    58    44    43    1
    59    44    46   ar
    60    41    42    2
    61    62    61    1
    62    98    97    2
    63    99   101    1
    64    99    96    1
    65    61    64    1
    66    97    96    1
    67    66    64    1
    68    96    95    1
    69    22    21    1
    70    22    23    2
    71    64    65    1
    72    95    93   am
    73    21    24    1
    74    21    20    1
    75    25    24    1
    76    25    26    1
    77    93    92    1
    78    93    94    2
    79    26    27    1
    80    92    91    1
    81    27    28    2
    82    10    11   ar
    83    10     8   ar
    84    11     9   ar
    85    88    87    2
    86    28    29    1
    87    28    30    1
    88     8     6   ar
    89    91    87   am
    90    87    86    1
    91     9     7   ar
    92     1     2    1
    93    18    17    1
    94     6     7   ar
    95     6     5    1
    96    14    13    1
    97    14    15    2
    98    16    13    1
    99    16    17    1
   100    86    85    1
   101    86    89    1
   102    13    12    1
   103     5     2    1
   104    85    80   am
   105    17    19    1
   106     2     3    1
   107    89    90    1
   108    80    81    2
   109    80    79    1
   110    79    82    1
   111    79    78    1
   112    82    84    1
   113    82    83    1
   114    70    69    2
   115     4     3    2
   116    78    69   am
   117    69    68    1
   118    68    71    1
   119    68    67    1
   120    71    72    1
   121    74    72   ar
   122    74    76   ar
   123    72    73   ar
   124    76    77   ar
   125    73    75   ar
   126    77    75   ar
