@<TRIPOS>MOLECULE
tmp/3nijA00.pdb
 132 126 0 0 0
SMALL
GASTEIGER

@<TRIPOS>ATOM
      1  N         24.1930   16.5180   -1.6420 N.3    13  PHE13      -0.1241
      2  CA        23.8320   15.8620   -0.3940 C.3    13  PHE13       0.1605
      3  C         24.6240   16.4420    0.7700 C.2    13  PHE13       0.2264
      4  O         25.7800   16.8430    0.6160 O.2    13  PHE13      -0.2867
      5  CB        24.0450   14.3480   -0.4800 C.3    13  PHE13       0.0534
      6  CG        23.1580   13.6750   -1.4840 C.ar   13  PHE13      -0.0203
      7  CD1       21.8470   13.3540   -1.1630 C.ar   13  PHE13      -0.0042
      8  CD2       23.6310   13.3800   -2.7570 C.ar   13  PHE13      -0.0042
      9  CE1       21.0190   12.7360   -2.0960 C.ar   13  PHE13      -0.0003
     10  CE2       22.8080   12.7640   -3.7040 C.ar   13  PHE13      -0.0003
     11  CZ        21.5050   12.4430   -3.3770 C.ar   13  PHE13      -0.0000
     12  N         20.0170    9.0640    0.7340 N.3    19  LEU19      -0.1245
     13  CA        20.3240    8.9470   -0.6870 C.3    19  LEU19       0.1561
     14  C         19.7950    7.6250   -1.2320 C.2    19  LEU19       0.2260
     15  O         19.8440    6.6020   -0.5470 O.2    19  LEU19      -0.2867
     16  CB        21.8290    9.1050   -0.9420 C.3    19  LEU19       0.0270
     17  CG        22.8250    8.0870   -0.3830 C.3    19  LEU19       0.0019
     18  CD1       23.1960    7.0550   -1.4510 C.3    19  LEU19       0.0001
     19  CD2       24.0690    8.8120    0.1180 C.3    19  LEU19       0.0001
     20  N         19.6910    4.7070   -4.3050 N.3    21  ARG21      -0.1245
     21  CA        20.2620    4.0340   -5.4700 C.3    21  ARG21       0.1563
     22  C         19.3560    2.8840   -5.8970 C.2    21  ARG21       0.2260
     23  O         18.6460    2.3020   -5.0760 O.2    21  ARG21      -0.2867
     24  CB        21.6460    3.4710   -5.1510 C.3    21  ARG21       0.0307
     25  CG        22.7280    4.5130   -4.9750 C.3    21  ARG21       0.0489
     26  CD        24.1010    3.8580   -4.9590 C.3    21  ARG21       0.2205
     27  NE        24.3510    3.1160   -3.7240 N.pl3  21  ARG21      -0.0865
     28  CZ        25.2540    3.4540   -2.8040 C.cat  21  ARG21       0.5346
     29  NH1       26.0200    4.5280   -2.9710 N.pl3  21  ARG21       0.1354
     30  NH2       25.3970    2.7090   -1.7130 N.pl3  21  ARG21       0.1354
     31  N         25.6580    2.8930  -12.9760 N.3    28  ASP28      -0.1225
     32  CA        26.6160    2.2830  -12.0640 C.3    28  ASP28       0.1805
     33  C         26.2430    2.6060  -10.6220 C.2    28  ASP28       0.2598
     34  O         25.2110    3.2330  -10.3620 O.2    28  ASP28      -0.2718
     35  CB        28.0660    2.6800  -12.3990 C.3    28  ASP28       0.1424
     36  CG        28.3120    4.1770  -12.3160 C.2    28  ASP28       0.3668
     37  OD1       28.9250    4.7230  -13.2580 O.co2  28  ASP28      -0.2456
     38  OD2       27.9120    4.8100  -11.3110 O.co2  28  ASP28      -0.2456
     39  N         27.0920    2.1850   -9.6920 N.am   29  ASP29      -0.1960
     40  CA        26.7940    2.2870   -8.2710 C.3    29  ASP29       0.1840
     41  C         27.0030    3.6930   -7.7030 C.2    29  ASP29       0.2623
     42  O         26.8310    3.9120   -6.5020 O.2    29  ASP29      -0.2715
     43  CB        27.6350    1.2650   -7.5010 C.3    29  ASP29       0.1450
     44  CG        26.8620    0.5930   -6.3860 C.2    29  ASP29       0.3671
     45  OD1       25.6390    0.3780   -6.5490 O.co2  29  ASP29      -0.2456
     46  OD2       27.4860    0.2640   -5.3530 O.co2  29  ASP29      -0.2456
     47  N         27.3790    4.6380   -8.5620 N.am   30  THR30      -0.1937
     48  CA        27.5580    6.0330   -8.1480 C.3    30  THR30       0.2028
     49  C         26.3330    6.8840   -8.5040 C.2    30  THR30       0.2642
     50  O         26.2800    8.0750   -8.1850 O.2    30  THR30      -0.2714
     51  CB        28.8280    6.6790   -8.7650 C.3    30  THR30       0.1808
     52  OG1       28.5880    7.0010  -10.1420 O.3    30  THR30      -0.2208
     53  CG2       30.0450    5.7490   -8.6480 C.3    30  THR30       0.0379
     54  N         25.3560    6.2610   -9.1600 N.am   31  CYS31      -0.1953
     55  CA        24.1610    6.9560   -9.6370 C.3    31  CYS31       0.1843
     56  C         23.0870    7.0180   -8.5600 C.2    31  CYS31       0.2625
     57  O         22.5890    5.9840   -8.1020 O.2    31  CYS31      -0.2714
     58  CB        23.6300    6.2910  -10.9020 C.3    31  CYS31       0.0997
     59  SG        24.8520    6.2190  -12.2310 S.3    31  CYS31      -0.0797
     60  N         22.7320    8.2380   -8.1680 N.am   32  VAL32      -0.1977
     61  CA        21.9270    8.4620   -6.9610 C.3    32  VAL32       0.1596
     62  C         20.7990    9.4830   -7.1380 C.2    32  VAL32       0.2287
     63  O         20.8710   10.3670   -7.9990 O.2    32  VAL32      -0.2864
     64  CB        22.8140    8.9050   -5.7440 C.3    32  VAL32       0.0276
     65  CG1       23.8580    7.8460   -5.4020 C.3    32  VAL32       0.0022
     66  CG2       23.4960   10.2420   -6.0150 C.3    32  VAL32       0.0022
     67  N         32.3130   10.9680    3.8720 N.3    56  PHE56      -0.1227
     68  CA        33.0280   10.4310    2.7180 C.3    56  PHE56       0.1736
     69  C         32.1760   10.4080    1.4550 C.2    56  PHE56       0.2596
     70  O         32.5870   10.9320    0.4180 O.2    56  PHE56      -0.2718
     71  CB        33.5790    9.0330    3.0320 C.3    56  PHE56       0.0547
     72  CG        34.4270    8.9780    4.2800 C.ar   56  PHE56      -0.0202
     73  CD1       33.8950    8.5060    5.4780 C.ar   56  PHE56      -0.0042
     74  CD2       35.7530    9.4050    4.2580 C.ar   56  PHE56      -0.0042
     75  CE1       34.6700    8.4560    6.6360 C.ar   56  PHE56      -0.0003
     76  CE2       36.5360    9.3600    5.4120 C.ar   56  PHE56      -0.0003
     77  CZ        35.9930    8.8840    6.6020 C.ar   56  PHE56      -0.0000
     78  N         30.9880    9.8110    1.5520 N.am   57  THR57      -0.1939
     79  CA        30.0970    9.6430    0.4060 C.3    57  THR57       0.2028
     80  C         29.3710   10.9430    0.0460 C.2    57  THR57       0.2643
     81  O         28.1400   11.0130    0.0900 O.2    57  THR57      -0.2714
     82  CB        29.0670    8.5130    0.6490 C.3    57  THR57       0.1808
     83  OG1       28.3110    8.8000    1.8330 O.3    57  THR57      -0.2208
     84  CG2       29.7660    7.1640    0.8050 C.3    57  THR57       0.0379
     85  N         30.1420   11.9630   -0.3220 N.am   58  SER58      -0.1935
     86  CA        29.5890   13.2710   -0.6650 C.3    58  SER58       0.2058
     87  C         29.4540   13.4760   -2.1790 C.2    58  SER58       0.2683
     88  O         30.4270   13.3220   -2.9260 O.2    58  SER58      -0.2710
     89  CB        30.4410   14.3810   -0.0460 C.3    58  SER58       0.2130
     90  OG        31.7610   14.3550   -0.5630 O.3    58  SER58      -0.2179
     91  N         28.2470   13.8220   -2.6250 N.am   59  GLY59      -0.1715
     92  CA        27.9860   14.0530   -4.0490 C.2    59  GLY59       0.1480
     93  C         26.6650   14.7390   -4.3590 C.2    59  GLY59       0.2820
     94  O         26.1040   15.4330   -3.5080 O.2    59  GLY59      -0.2669
     95  N         26.1670   14.5370   -5.5810 N.am   60  ILE60      -0.1943
     96  CA        24.9780   15.2440   -6.0700 C.3    60  ILE60       0.1599
     97  C         23.9240   14.3040   -6.6490 C.2    60  ILE60       0.2287
     98  O         24.2440   13.2180   -7.1350 O.2    60  ILE60      -0.2864
     99  CB        25.3310   16.3340   -7.1320 C.3    60  ILE60       0.0276
    100  CG1       26.0180   15.7090   -8.3520 C.3    60  ILE60       0.0022
    101  CG2       26.1920   17.4370   -6.5110 C.3    60  ILE60       0.0022
    102  CD1       25.9250   16.5300   -9.6270 C.3    60  ILE60       0.0001
    103  N         21.3560   12.7550   -9.2350 N.3    62  ASP62      -0.1239
    104  CA        21.4710   12.5190  -10.6820 C.3    62  ASP62       0.1674
    105  C         20.1460   12.5640  -11.4400 C.2    62  ASP62       0.2266
    106  O         20.1190   12.3370  -12.6560 O.2    62  ASP62      -0.2867
    107  CB        22.1950   11.1950  -10.9590 C.3    62  ASP62       0.1410
    108  CG        23.6030   11.1870  -10.4130 C.2    62  ASP62       0.3668
    109  OD1       24.3510   12.1330  -10.7130 O.co2  62  ASP62      -0.2456
    110  OD2       23.9590   10.2500   -9.6720 O.co2  62  ASP62      -0.2456
    111  N         19.7040   13.6240  -15.2110 N.3    65  ASP65      -0.1239
    112  CA        20.8810   13.2760  -16.0020 C.3    65  ASP65       0.1674
    113  C         20.6310   11.8920  -16.6000 C.2    65  ASP65       0.2266
    114  O         20.8250   10.8710  -15.9380 O.2    65  ASP65      -0.2867
    115  CB        22.1570   13.2800  -15.1510 C.3    65  ASP65       0.1410
    116  CG        23.4100   12.9420  -15.9560 C.2    65  ASP65       0.3668
    117  OD1       23.2920   12.4520  -17.1020 O.co2  65  ASP65      -0.2456
    118  OD2       24.5260   13.1650  -15.4420 O.co2  65  ASP65      -0.2456
    119  N         22.1260   10.0350  -18.7650 N.3    67  GLU67      -0.1231
    120  CA        23.2740    9.1290  -18.8650 C.3    67  GLU67       0.1699
    121  C         23.6310    8.4270  -17.5440 C.2    67  GLU67       0.2592
    122  O         24.5800    7.6370  -17.4860 O.2    67  GLU67      -0.2718
    123  CB        24.4930    9.8640  -19.4300 C.3    67  GLU67       0.0402
    124  CG        24.5140    9.9400  -20.9640 C.3    67  GLU67       0.1161
    125  CD        25.8470   10.4200  -21.5170 C.2    67  GLU67       0.3649
    126  OE1       26.6630   10.9640  -20.7390 O.co2  67  GLU67      -0.2457
    127  OE2       26.0780   10.2550  -22.7350 O.co2  67  GLU67      -0.2457
    128  N         22.8720    8.7200  -16.4890 N.am   68  ALA68      -0.1980
    129  CA        23.0490    8.0550  -15.2050 C.3    68  ALA68       0.1597
    130  C         21.9810    6.9830  -14.9680 C.2    68  ALA68       0.2287
    131  O         22.0240    6.2760  -13.9600 O.2    68  ALA68      -0.2864
    132  CB        23.0440    9.0800  -14.0750 C.3    68  ALA68       0.0319
@<TRIPOS>BOND
     1   127   125   ar
     2   125   124    1
     3   125   126   ar
     4   124   123    1
     5   123   120    1
     6   120   119    1
     7   120   121    1
     8   121   122    2
     9   121   128   am
    10   117   116   ar
    11   113   112    1
    12   113   114    2
    13   128   129    1
    14   112   111    1
    15   112   115    1
    16   116   118   ar
    17   116   115    1
    18   129   130    1
    19   129   132    1
    20   130   131    2
    21    37    36   ar
    22    31    32    1
    23   106   105    2
    24    35    36    1
    25    35    32    1
    26    36    38   ar
    27    59    58    1
    28    32    33    1
    29   105   104    1
    30   107   104    1
    31   107   108    1
    32    58    55    1
    33   109   108   ar
    34   104   103    1
    35    33    34    2
    36    33    39   am
    37   108   110   ar
    38    52    51    1
    39    39    40    1
    40    55    54    1
    41    55    56    1
    42   102   100    1
    43    54    49   am
    44    51    53    1
    45    51    48    1
    46    47    48    1
    47    47    41   am
    48    56    60   am
    49    56    57    2
    50    49    50    2
    51    49    48    1
    52   100    99    1
    53    40    41    1
    54    40    43    1
    55    60    61    1
    56    63    62    2
    57    41    42    2
    58    43    44    1
    59    62    61    1
    60    98    97    2
    61    99   101    1
    62    99    96    1
    63    61    64    1
    64    97    96    1
    65    45    44   ar
    66    44    46   ar
    67    96    95    1
    68    66    64    1
    69    22    21    1
    70    22    23    2
    71    64    65    1
    72    95    93   am
    73    21    24    1
    74    21    20    1
    75    24    25    1
    76    25    26    1
    77    26    27    1
    78    93    92    1
    79    93    94    2
    80    92    91    2
    81    27    28    2
    82    10    11   ar
    83    10     8   ar
    84    11     9   ar
    85    29    28    1
    86    88    87    2
    87    28    30    1
    88     8     6   ar
    89    91    87    1
    90    87    86    1
    91     9     7   ar
    92     1     2    1
    93     6     7   ar
    94     6     5    1
    95    18    17    1
    96    14    13    1
    97    14    15    2
    98    16    13    1
    99    16    17    1
   100    13    12    1
   101    86    85    1
   102    86    89    1
   103    90    89    1
   104     5     2    1
   105     2     3    1
   106    17    19    1
   107    85    80   am
   108    80    81    2
   109    80    79    1
   110    79    82    1
   111    79    78    1
   112    70    69    2
   113     4     3    2
   114    82    84    1
   115    82    83    1
   116    69    78   am
   117    69    68    1
   118    68    71    1
   119    68    67    1
   120    71    72    1
   121    74    72   ar
   122    74    76   ar
   123    72    73   ar
   124    76    77   ar
   125    73    75   ar
   126    77    75   ar
