@<TRIPOS>MOLECULE
tmp/3nikC00.pdb
 124 116 0 0 0
SMALL
GASTEIGER

@<TRIPOS>ATOM
      1  N        -49.0460    5.9720   -2.6140 N.3    21  LEU21      -0.1245
      2  CA       -48.4640    7.3060   -2.7040 C.3    21  LEU21       0.1561
      3  C        -49.5770    8.3260   -2.6820 C.2    21  LEU21       0.2260
      4  O        -50.4850    8.2720   -3.5180 O.2    21  LEU21      -0.2867
      5  CB       -47.6520    7.4980   -3.9910 C.3    21  LEU21       0.0270
      6  CG       -46.3830    6.6810   -4.2490 C.3    21  LEU21       0.0019
      7  CD1      -46.7210    5.3500   -4.8880 C.3    21  LEU21       0.0001
      8  CD2      -45.4760    7.4800   -5.1670 C.3    21  LEU21       0.0001
      9  N        -50.9560   12.2070   -3.0900 N.3    23  ARG23      -0.1245
     10  CA       -50.7540   13.5250   -3.6890 C.3    23  ARG23       0.1563
     11  C        -51.8990   14.4440   -3.3330 C.2    23  ARG23       0.2260
     12  O        -53.0550   14.0120   -3.3090 O.2    23  ARG23      -0.2867
     13  CB       -50.7120   13.4300   -5.2060 C.3    23  ARG23       0.0307
     14  CG       -49.4420   12.8640   -5.7720 C.3    23  ARG23       0.0489
     15  CD       -49.5980   12.7130   -7.2830 C.3    23  ARG23       0.2205
     16  NE       -48.3440   12.3560   -7.9430 N.pl3  23  ARG23      -0.0865
     17  CZ       -47.8550   11.1220   -8.0100 C.cat  23  ARG23       0.5346
     18  NH1      -48.4970   10.1110   -7.4380 N.pl3  23  ARG23       0.1354
     19  NH2      -46.7120   10.8990   -8.6460 N.pl3  23  ARG23       0.1354
     20  N        -46.2890   21.3300   -4.8270 N.3    29  CYS29      -0.1221
     21  CA       -45.7270   22.3310   -5.7490 C.3    29  CYS29       0.1808
     22  C        -46.0440   21.9650   -7.2020 C.2    29  CYS29       0.2601
     23  O        -46.3840   22.8260   -8.0190 O.2    29  CYS29      -0.2717
     24  CB       -44.2130   22.4590   -5.5500 C.3    29  CYS29       0.0970
     25  SG       -43.4170   23.6150   -6.6770 S.3    29  CYS29      -0.0800
     26  N        -45.9350   20.6800   -7.5120 N.am   30  ASP30      -0.1959
     27  CA       -46.3930   20.1570   -8.7930 C.3    30  ASP30       0.1840
     28  C        -46.9210   18.7410   -8.6080 C.2    30  ASP30       0.2622
     29  O        -47.0020   18.2500   -7.4770 O.2    30  ASP30      -0.2715
     30  CB       -45.2820   20.2240   -9.8520 C.3    30  ASP30       0.1450
     31  CG       -44.0120   19.5220   -9.4200 C.2    30  ASP30       0.3671
     32  OD1      -44.0930   18.3850   -8.9070 O.co2  30  ASP30      -0.2456
     33  OD2      -42.9250   20.0970   -9.6220 O.co2  30  ASP30      -0.2456
     34  N        -47.2700   18.0780   -9.7060 N.am   31  ASP31      -0.1957
     35  CA       -47.8790   16.7470   -9.6020 C.3    31  ASP31       0.1840
     36  C        -46.8950   15.6010   -9.3490 C.2    31  ASP31       0.2623
     37  O        -47.3040   14.4450   -9.3110 O.2    31  ASP31      -0.2715
     38  CB       -48.8020   16.4370  -10.7900 C.3    31  ASP31       0.1450
     39  CG       -48.0820   16.4510  -12.1270 C.2    31  ASP31       0.3671
     40  OD1      -46.8330   16.4210  -12.1690 O.co2  31  ASP31      -0.2456
     41  OD2      -48.7880   16.4810  -13.1590 O.co2  31  ASP31      -0.2456
     42  N        -45.6140   15.9260   -9.1660 N.am   32  THR32      -0.1937
     43  CA       -44.6080   14.9110   -8.8300 C.3    32  THR32       0.2028
     44  C        -44.3310   14.8430   -7.3190 C.2    32  THR32       0.2642
     45  O        -43.5730   13.9950   -6.8740 O.2    32  THR32      -0.2714
     46  CB       -43.2530   15.1370   -9.5620 C.3    32  THR32       0.1808
     47  OG1      -42.6000   16.2840   -9.0100 O.3    32  THR32      -0.2208
     48  CG2      -43.4620   15.3360  -11.0670 C.3    32  THR32       0.0379
     49  N        -44.9460   15.7330   -6.5470 N.am   33  CYS33      -0.1953
     50  CA       -44.6990   15.8030   -5.1160 C.3    33  CYS33       0.1843
     51  C        -45.5970   14.7940   -4.4030 C.2    33  CYS33       0.2625
     52  O        -46.8190   14.7960   -4.6090 O.2    33  CYS33      -0.2714
     53  CB       -44.9390   17.2280   -4.6040 C.3    33  CYS33       0.0997
     54  SG       -43.8630   18.4870   -5.3910 S.3    33  CYS33      -0.0797
     55  N        -44.9950   13.9300   -3.5820 N.am   34  VAL34      -0.1977
     56  CA       -45.7340   12.8200   -2.9770 C.3    34  VAL34       0.1596
     57  C        -45.4550   12.6190   -1.4710 C.2    34  VAL34       0.2287
     58  O        -44.3870   12.9990   -0.9580 O.2    34  VAL34      -0.2864
     59  CB       -45.5290   11.4630   -3.7430 C.3    34  VAL34       0.0276
     60  CG1      -45.9820   11.5660   -5.1980 C.3    34  VAL34       0.0022
     61  CG2      -44.0680   10.9590   -3.6680 C.3    34  VAL34       0.0022
     62  N        -52.0930    6.8190   -5.3770 N.3    53  ASP53      -0.1239
     63  CA       -51.6690    5.8740   -6.4050 C.3    53  ASP53       0.1674
     64  C        -51.0910    4.6630   -5.6890 C.2    53  ASP53       0.2266
     65  O        -50.8610    4.7110   -4.4770 O.2    53  ASP53      -0.2867
     66  CB       -50.6330    6.5140   -7.3360 C.3    53  ASP53       0.1410
     67  CG       -50.5800    5.8610   -8.7230 C.2    53  ASP53       0.3668
     68  OD1      -51.2400    4.8210   -8.9630 O.co2  53  ASP53      -0.2456
     69  OD2      -49.8620    6.4180   -9.5860 O.co2  53  ASP53      -0.2456
     70  N        -42.5390    2.4100  -10.7040 N.3    59  THR59      -0.1203
     71  CA       -42.5770    3.5660   -9.8170 C.3    59  THR59       0.1994
     72  C        -41.2210    3.7750   -9.1560 C.2    59  THR59       0.2619
     73  O        -40.6940    2.8830   -8.4830 O.2    59  THR59      -0.2717
     74  CB       -43.6640    3.4180   -8.7340 C.3    59  THR59       0.1784
     75  OG1      -44.9140    3.1010   -9.3540 O.3    59  THR59      -0.2211
     76  CG2      -43.8070    4.6920   -7.9100 C.3    59  THR59       0.0376
     77  N        -40.6470    4.9450   -9.3970 N.am   60  SER60      -0.1937
     78  CA       -39.4510    5.3520   -8.6930 C.3    60  SER60       0.2055
     79  C        -39.7720    6.6180   -7.9040 C.2    60  SER60       0.2644
     80  O        -39.6110    7.7440   -8.3860 O.2    60  SER60      -0.2714
     81  CB       -38.2860    5.5600   -9.6650 C.3    60  SER60       0.2130
     82  OG       -37.1080    5.8620   -8.9470 O.3    60  SER60      -0.2179
     83  N        -40.2490    6.4190   -6.6830 N.am   61  GLY61      -0.1939
     84  CA       -40.7260    7.5260   -5.8800 C.3    61  GLY61       0.2014
     85  C        -40.0530    7.5720   -4.5360 C.2    61  GLY61       0.2638
     86  O        -39.6990    6.5430   -3.9580 O.2    61  GLY61      -0.2714
     87  N        -39.8510    8.7800   -4.0490 N.am   62  ILE62      -0.1977
     88  CA       -39.4550    8.9510   -2.6650 C.3    62  ILE62       0.1596
     89  C        -40.3790    9.9880   -2.0550 C.2    62  ILE62       0.2287
     90  O        -40.7870   10.9440   -2.7190 O.2    62  ILE62      -0.2864
     91  CB       -37.9540    9.3230   -2.4650 C.3    62  ILE62       0.0276
     92  CG1      -37.7620   10.8210   -2.2580 C.3    62  ILE62       0.0022
     93  CG2      -37.0520    8.7190   -3.5700 C.3    62  ILE62       0.0022
     94  CD1      -36.3980   11.1930   -1.8120 C.3    62  ILE62       0.0001
     95  N        -41.7070   13.0980   -0.2080 N.3    64  ASP64      -0.1239
     96  CA       -41.2210   14.4760   -0.1490 C.3    64  ASP64       0.1674
     97  C        -41.5230   15.1910    1.1600 C.2    64  ASP64       0.2266
     98  O        -41.2330   16.3800    1.2980 O.2    64  ASP64      -0.2867
     99  CB       -41.7670   15.2910   -1.3230 C.3    64  ASP64       0.1410
    100  CG       -41.3260   14.7430   -2.6610 C.2    64  ASP64       0.3668
    101  OD1      -40.1040   14.6710   -2.8990 O.co2  64  ASP64      -0.2456
    102  OD2      -42.1990   14.3650   -3.4720 O.co2  64  ASP64      -0.2456
    103  N        -39.3510   18.1440    2.7440 N.3    67  ASP67      -0.1239
    104  CA       -38.6430   18.8730    1.6980 C.3    67  ASP67       0.1674
    105  C        -39.5000   20.0810    1.3310 C.2    67  ASP67       0.2266
    106  O        -40.4330   19.9620    0.5200 O.2    67  ASP67      -0.2867
    107  CB       -38.4120   17.9650    0.4790 C.3    67  ASP67       0.1410
    108  CG       -37.7010   18.6770   -0.6720 C.2    67  ASP67       0.3668
    109  OD1      -37.3160   19.8590   -0.5120 O.co2  67  ASP67      -0.2456
    110  OD2      -37.5290   18.0470   -1.7390 O.co2  67  ASP67      -0.2456
    111  N        -39.3610   22.6800   -0.4520 N.3    69  GLU69      -0.1231
    112  CA       -39.4930   23.0450   -1.8660 C.3    69  GLU69       0.1699
    113  C        -40.5960   22.2840   -2.6010 C.2    69  GLU69       0.2592
    114  O        -41.0280   22.6960   -3.6780 O.2    69  GLU69      -0.2718
    115  CB       -38.1610   22.8460   -2.5970 C.3    69  GLU69       0.0402
    116  CG       -37.0880   23.8560   -2.1970 C.3    69  GLU69       0.1161
    117  CD       -35.7620   23.6620   -2.9170 C.2    69  GLU69       0.3649
    118  OE1      -35.5760   22.6320   -3.6170 O.co2  69  GLU69      -0.2457
    119  OE2      -34.8960   24.5560   -2.7650 O.co2  69  GLU69      -0.2457
    120  N        -41.0460   21.1750   -2.0190 N.am   70  ALA70      -0.1980
    121  CA       -42.0530   20.3210   -2.6480 C.3    70  ALA70       0.1597
    122  C        -43.5000   20.7360   -2.3370 C.2    70  ALA70       0.2287
    123  O        -44.4350   20.1680   -2.9070 O.2    70  ALA70      -0.2864
    124  CB       -41.8270   18.8700   -2.2500 C.3    70  ALA70       0.0319
@<TRIPOS>BOND
     1    41    39   ar
     2    40    39   ar
     3    39    38    1
     4    48    46    1
     5    38    35    1
     6    70    71    1
     7    30    31    1
     8    30    27    1
     9    71    72    1
    10    71    74    1
    11    34    35    1
    12    34    28   am
    13    81    82    1
    14    81    78    1
    15    33    31   ar
    16    35    36    1
    17    69    67   ar
    18    46    47    1
    19    46    43    1
    20    31    32   ar
    21    77    72   am
    22    77    78    1
    23    75    74    1
    24    36    37    2
    25    36    42   am
    26    42    43    1
    27    72    73    2
    28    68    67   ar
    29    43    44    1
    30    27    28    1
    31    27    26    1
    32    74    76    1
    33    67    66    1
    34    78    79    1
    35    19    17    1
    36    28    29    2
    37    80    79    2
    38    23    22    2
    39    17    16    2
    40    17    18    1
    41    16    15    1
    42    79    83   am
    43    26    22   am
    44    66    63    1
    45    44    45    2
    46    44    49   am
    47    15    14    1
    48    22    21    1
    49    83    84    1
    50    25    24    1
    51    49    50    1
    52    63    64    1
    53    63    62    1
    54    84    85    1
    55    14    13    1
    56    21    24    1
    57    21    20    1
    58    64    65    2
    59    54    53    1
    60    13    10    1
    61    60    59    1
    62     8     6    1
    63    50    53    1
    64    50    51    1
    65     7     6    1
    66    52    51    2
    67    85    87   am
    68    85    86    2
    69    51    55   am
    70     6     5    1
    71    87    88    1
    72     5     2    1
    73    59    61    1
    74    59    56    1
    75    10    11    1
    76    10     9    1
    77   114   113    2
    78   118   117   ar
    79    55    56    1
    80    93    91    1
    81     4     3    2
    82   102   100   ar
    83    11    12    2
    84    56    57    1
    85   117   119   ar
    86   117   116    1
    87   123   122    2
    88   101   100   ar
    89    90    89    2
    90     2     3    1
    91     2     1    1
    92    88    91    1
    93    88    89    1
    94   100    99    1
    95   121   122    1
    96   121   124    1
    97   121   120    1
    98   113   120   am
    99   113   112    1
   100   115   116    1
   101   115   112    1
   102    91    92    1
   103    92    94    1
   104   112   111    1
   105   110   108   ar
   106    57    58    2
   107    99    96    1
   108   108   109   ar
   109   108   107    1
   110    95    96    1
   111    96    97    1
   112   107   104    1
   113   106   105    2
   114    97    98    2
   115   105   104    1
   116   104   103    1
