@<TRIPOS>MOLECULE
tmp/3ninA00.pdb
 147 139 0 0 0
SMALL
GASTEIGER

@<TRIPOS>ATOM
      1  N          8.4900  -23.6560    4.4850 N.3    13  PHE13      -0.1241
      2  CA         9.6610  -24.4680    4.7890 C.3    13  PHE13       0.1605
      3  C          9.3180  -25.6040    5.7430 C.2    13  PHE13       0.2264
      4  O          8.4430  -25.4710    6.6000 O.2    13  PHE13      -0.2867
      5  CB        10.7850  -23.5890    5.3300 C.3    13  PHE13       0.0534
      6  CG        11.3430  -22.6440    4.3050 C.ar   13  PHE13      -0.0203
      7  CD1       12.2400  -23.0960    3.3390 C.ar   13  PHE13      -0.0042
      8  CD2       10.9520  -21.3090    4.2860 C.ar   13  PHE13      -0.0042
      9  CE1       12.7430  -22.2320    2.3700 C.ar   13  PHE13      -0.0003
     10  CE2       11.4570  -20.4320    3.3300 C.ar   13  PHE13      -0.0003
     11  CZ        12.3570  -20.8940    2.3670 C.ar   13  PHE13      -0.0000
     12  N         17.4490  -22.5600    3.2660 N.3    19  LEU19      -0.1245
     13  CA        16.8600  -21.3050    2.8130 C.3    19  LEU19       0.1561
     14  C         17.9680  -20.2770    2.5960 C.2    19  LEU19       0.2260
     15  O         19.1070  -20.4760    3.0390 O.2    19  LEU19      -0.2867
     16  CB        15.7940  -20.8180    3.8090 C.3    19  LEU19       0.0270
     17  CG        16.2290  -20.6400    5.2640 C.3    19  LEU19       0.0019
     18  CD1       16.3310  -19.1660    5.5960 C.3    19  LEU19       0.0001
     19  CD2       15.2620  -21.3350    6.2080 C.3    19  LEU19       0.0001
     20  N         19.2610  -16.0420    2.3620 N.3    21  ARG21      -0.1245
     21  CA        19.0950  -14.6150    2.5980 C.3    21  ARG21       0.1563
     22  C         20.1970  -13.8760    1.8640 C.2    21  ARG21       0.2260
     23  O         21.3070  -14.3800    1.7430 O.2    21  ARG21      -0.2867
     24  CB        19.1770  -14.2850    4.0880 C.3    21  ARG21       0.0307
     25  CG        18.0090  -14.7600    4.9250 C.3    21  ARG21       0.0489
     26  CD        18.2700  -14.4390    6.3870 C.3    21  ARG21       0.2205
     27  NE        17.1850  -14.8920    7.2500 N.pl3  21  ARG21      -0.0865
     28  CZ        17.2190  -15.9960    7.9910 C.cat  21  ARG21       0.5346
     29  NH1       18.2890  -16.7830    7.9900 N.pl3  21  ARG21       0.1354
     30  NH2       16.1790  -16.3070    8.7460 N.pl3  21  ARG21       0.1354
     31  N         14.7470   -6.7420    2.0500 N.3    27  CYS27      -0.1221
     32  CA        14.3270   -5.5050    2.7140 C.3    27  CYS27       0.1808
     33  C         14.7010   -5.5270    4.1940 C.2    27  CYS27       0.2601
     34  O         15.0700   -4.4990    4.7680 O.2    27  CYS27      -0.2717
     35  CB        12.8250   -5.2740    2.5380 C.3    27  CYS27       0.0970
     36  SG        12.3730   -4.7750    0.8610 S.3    27  CYS27      -0.0800
     37  N         14.6090   -6.7150    4.7910 N.am   28  ASP28      -0.1973
     38  CA        15.0410   -6.9580    6.1680 C.3    28  ASP28       0.1709
     39  C         15.5480   -8.3980    6.3350 C.2    28  ASP28       0.2293
     40  O         15.6090   -9.1540    5.3610 O.2    28  ASP28      -0.2864
     41  CB        13.9040   -6.6510    7.1560 C.3    28  ASP28       0.1436
     42  CG        12.6370   -7.4320    6.8600 C.2    28  ASP28       0.3671
     43  OD1       12.7180   -8.6480    6.5850 O.co2  28  ASP28      -0.2456
     44  OD2       11.5470   -6.8280    6.9200 O.co2  28  ASP28      -0.2456
     45  N         14.1680  -10.9640    7.5450 N.3    30  THR30      -0.1203
     46  CA        13.1360  -11.9990    7.4670 C.3    30  THR30       0.1994
     47  C         12.8320  -12.4330    6.0240 C.2    30  THR30       0.2618
     48  O         12.1230  -13.4160    5.7930 O.2    30  THR30      -0.2717
     49  CB        11.8270  -11.5430    8.1650 C.3    30  THR30       0.1784
     50  OG1       11.2070  -10.5010    7.4050 O.3    30  THR30      -0.2211
     51  CG2       12.1120  -11.0360    9.5870 C.3    30  THR30       0.0376
     52  N         13.3640  -11.6940    5.0590 N.am   31  CYS31      -0.1955
     53  CA        13.1370  -11.9960    3.6470 C.3    31  CYS31       0.1843
     54  C         14.0090  -13.1640    3.1830 C.2    31  CYS31       0.2625
     55  O         15.2430  -13.1100    3.2820 O.2    31  CYS31      -0.2714
     56  CB        13.3540  -10.7420    2.8060 C.3    31  CYS31       0.0997
     57  SG        12.2990   -9.3800    3.3640 S.3    31  CYS31      -0.0797
     58  N         13.3590  -14.2240    2.7010 N.am   32  VAL32      -0.1977
     59  CA        14.0510  -15.4900    2.4000 C.3    32  VAL32       0.1596
     60  C         13.6390  -16.1040    1.0580 C.2    32  VAL32       0.2287
     61  O         12.5790  -15.7750    0.5180 O.2    32  VAL32      -0.2864
     62  CB        13.8530  -16.5480    3.5210 C.3    32  VAL32       0.0276
     63  CG1       14.5690  -16.1270    4.7970 C.3    32  VAL32       0.0022
     64  CG2       12.3600  -16.8090    3.7850 C.3    32  VAL32       0.0022
     65  N         20.6970  -20.8510    5.4850 N.3    51  ASP51      -0.1239
     66  CA        20.2440  -21.2290    6.8140 C.3    51  ASP51       0.1674
     67  C         19.4640  -22.5430    6.7050 C.2    51  ASP51       0.2266
     68  O         19.2590  -23.0570    5.5990 O.2    51  ASP51      -0.2867
     69  CB        19.3770  -20.1080    7.3980 C.3    51  ASP51       0.1410
     70  CG        19.3510  -20.1020    8.9250 C.2    51  ASP51       0.3668
     71  OD1       19.6850  -21.1240    9.5660 O.co2  51  ASP51      -0.2456
     72  OD2       18.9850  -19.0540    9.4890 O.co2  51  ASP51      -0.2456
     73  N         12.9240  -26.4430   14.1460 N.3    55  GLU55      -0.1231
     74  CA        11.6940  -26.5860   14.9050 C.3    55  GLU55       0.1699
     75  C         11.1770  -25.2350   15.4160 C.2    55  GLU55       0.2592
     76  O          9.9720  -25.0440   15.5900 O.2    55  GLU55      -0.2718
     77  CB        11.9860  -27.4800   16.1010 C.3    55  GLU55       0.0402
     78  CG        10.7970  -28.2130   16.6260 C.3    55  GLU55       0.1161
     79  CD        10.9050  -28.4300   18.1100 C.2    55  GLU55       0.3649
     80  OE1        9.8980  -28.1850   18.8000 O.co2  55  GLU55      -0.2457
     81  OE2       11.9950  -28.8240   18.5790 O.co2  55  GLU55      -0.2457
     82  N         12.1090  -24.3100   15.6410 N.am   56  PHE56      -0.1962
     83  CA        11.8320  -23.0340   16.2960 C.3    56  PHE56       0.1771
     84  C         11.6360  -21.9070   15.2910 C.2    56  PHE56       0.2620
     85  O         11.5130  -20.7400   15.6580 O.2    56  PHE56      -0.2715
     86  CB        12.9790  -22.7080   17.2560 C.3    56  PHE56       0.0574
     87  CG        13.3810  -23.8720   18.1290 C.ar   56  PHE56      -0.0200
     88  CD1       14.5750  -24.5470   17.9050 C.ar   56  PHE56      -0.0042
     89  CD2       12.5470  -24.3150   19.1480 C.ar   56  PHE56      -0.0042
     90  CE1       14.9450  -25.6290   18.6980 C.ar   56  PHE56      -0.0003
     91  CE2       12.9110  -25.4010   19.9510 C.ar   56  PHE56      -0.0003
     92  CZ        14.1110  -26.0570   19.7210 C.ar   56  PHE56      -0.0000
     93  N         11.5830  -22.2870   14.0210 N.am   57  THR57      -0.1937
     94  CA        11.6090  -21.3640   12.9030 C.3    57  THR57       0.2028
     95  C         10.4710  -21.7650   11.9630 C.2    57  THR57       0.2643
     96  O         10.2200  -22.9580   11.7770 O.2    57  THR57      -0.2714
     97  CB        13.0010  -21.4610   12.2130 C.3    57  THR57       0.1808
     98  OG1       13.9160  -20.5470   12.8380 O.3    57  THR57      -0.2208
     99  CG2       12.9310  -21.1640   10.7730 C.3    57  THR57       0.0379
    100  N          9.7570  -20.7840   11.4050 N.am   58  SER58      -0.1935
    101  CA         8.7340  -21.0750   10.3890 C.3    58  SER58       0.2055
    102  C          8.4880  -19.9370    9.3960 C.2    58  SER58       0.2644
    103  O          8.7310  -18.7670    9.6950 O.2    58  SER58      -0.2714
    104  CB         7.4140  -21.5230   11.0320 C.3    58  SER58       0.2130
    105  OG         6.6700  -20.4230   11.5250 O.3    58  SER58      -0.2179
    106  N          8.0160  -20.3000    8.2080 N.am   59  GLY59      -0.1939
    107  CA         7.6170  -19.3180    7.2070 C.3    59  GLY59       0.2014
    108  C          7.7750  -19.7820    5.7720 C.2    59  GLY59       0.2638
    109  O          7.8950  -20.9790    5.5040 O.2    59  GLY59      -0.2714
    110  N          7.7830  -18.8150    4.8560 N.am   60  ILE60      -0.1977
    111  CA         7.6300  -19.0790    3.4230 C.3    60  ILE60       0.1596
    112  C          8.6310  -18.3130    2.5620 C.2    60  ILE60       0.2287
    113  O          9.0680  -17.2250    2.9380 O.2    60  ILE60      -0.2864
    114  CB         6.1860  -18.7390    2.9190 C.3    60  ILE60       0.0276
    115  CG1        5.9120  -17.2260    2.9700 C.3    60  ILE60       0.0022
    116  CG2        5.1140  -19.5380    3.6890 C.3    60  ILE60       0.0022
    117  CD1        4.5600  -16.8070    2.3730 C.3    60  ILE60       0.0001
    118  N          9.8830  -15.9230   -0.2960 N.3    62  ASP62      -0.1239
    119  CA         9.3670  -14.6270   -0.7490 C.3    62  ASP62       0.1674
    120  C          9.6130  -14.3420   -2.2360 C.2    62  ASP62       0.2266
    121  O          9.2950  -13.2470   -2.7050 O.2    62  ASP62      -0.2867
    122  CB         9.9760  -13.4930    0.0850 C.3    62  ASP62       0.1410
    123  CG         9.6110  -13.5800    1.5550 C.2    62  ASP62       0.3668
    124  OD1        8.4330  -13.4140    1.8870 O.co2  62  ASP62      -0.2456
    125  OD2       10.5150  -13.7890    2.3850 O.co2  62  ASP62      -0.2456
    126  N          7.4150  -11.8970   -4.3680 N.3    65  ASP65      -0.1239
    127  CA         6.7940  -10.8600   -3.5400 C.3    65  ASP65       0.1674
    128  C          7.7040   -9.6380   -3.5750 C.2    65  ASP65       0.2266
    129  O          8.7610   -9.6280   -2.9380 O.2    65  ASP65      -0.2867
    130  CB         6.6000  -11.3610   -2.0980 C.3    65  ASP65       0.1410
    131  CG         5.8800  -10.3470   -1.1990 C.2    65  ASP65       0.3668
    132  OD1        5.6890   -9.1780   -1.6030 O.co2  65  ASP65      -0.2456
    133  OD2        5.5120  -10.7250   -0.0650 O.co2  65  ASP65      -0.2456
    134  N          7.5480   -6.6540   -2.4140 N.3    67  GLU67      -0.1231
    135  CA         7.7050   -5.9420   -1.1440 C.3    67  GLU67       0.1699
    136  C          8.9150   -6.4240   -0.3350 C.2    67  GLU67       0.2592
    137  O          9.4110   -5.7040    0.5330 O.2    67  GLU67      -0.2718
    138  CB         6.4490   -6.0990   -0.2860 C.3    67  GLU67       0.0402
    139  CG         5.1790   -5.4860   -0.8710 C.3    67  GLU67       0.1161
    140  CD         3.9830   -5.6340    0.0580 C.2    67  GLU67       0.3649
    141  OE1        2.8960   -6.0320   -0.4170 O.co2  67  GLU67      -0.2457
    142  OE2        4.1270   -5.3570    1.2690 O.co2  67  GLU67      -0.2457
    143  N          9.3780   -7.6390   -0.6210 N.am   68  ALA68      -0.1980
    144  CA        10.4450   -8.2710    0.1550 C.3    68  ALA68       0.1597
    145  C         11.8540   -7.9790   -0.3640 C.2    68  ALA68       0.2287
    146  O         12.8330   -8.2330    0.3400 O.2    68  ALA68      -0.2864
    147  CB        10.2170   -9.7780    0.2370 C.3    68  ALA68       0.0319
@<TRIPOS>BOND
     1   126   127    1
     2   128   127    1
     3   128   129    2
     4   127   130    1
     5   121   120    2
     6   134   135    1
     7   120   119    1
     8   130   131    1
     9   132   131   ar
    10   131   133   ar
    11   135   136    1
    12   135   138    1
    13   139   138    1
    14   139   140    1
    15   119   118    1
    16   119   122    1
    17   143   136   am
    18   143   144    1
    19   141   140   ar
    20   145   144    1
    21   145   146    2
    22   136   137    2
    23   140   142   ar
    24   122   123    1
    25   144   147    1
    26    61    60    2
    27    36    35    1
    28    60    59    1
    29   123   124   ar
    30   123   125   ar
    31    23    22    2
    32    22    21    1
    33    31    32    1
    34    20    21    1
    35    11     9   ar
    36    11    10   ar
    37     9     7   ar
    38   117   115    1
    39    59    58    1
    40    59    62    1
    41    35    32    1
    42   112   113    2
    43   112   111    1
    44    14    13    1
    45    14    15    2
    46    21    24    1
    47    58    54   am
    48    32    33    1
    49    56    57    1
    50    56    53    1
    51    13    12    1
    52    13    16    1
    53   114   115    1
    54   114   111    1
    55   114   116    1
    56    54    55    2
    57    54    53    1
    58    10     8   ar
    59     7     6   ar
    60   111   110    1
    61    62    64    1
    62    62    63    1
    63    53    52    1
    64    16    17    1
    65    24    25    1
    66    33    34    2
    67    33    37   am
    68     8     6   ar
    69     6     5    1
    70     1     2    1
    71     2     5    1
    72     2     3    1
    73    37    38    1
    74   110   108   am
    75    25    26    1
    76    52    47   am
    77    17    18    1
    78    17    19    1
    79    40    39    2
    80    65    66    1
    81   109   108    2
    82    68    67    2
    83     3     4    2
    84   108   107    1
    85    48    47    2
    86    47    46    1
    87    38    39    1
    88    38    41    1
    89    26    27    1
    90    43    42   ar
    91    67    66    1
    92    66    69    1
    93    42    44   ar
    94    42    41    1
    95   107   106    1
    96    27    28    2
    97    69    70    1
    98    50    49    1
    99    46    45    1
   100    46    49    1
   101    29    28    1
   102    28    30    1
   103    49    51    1
   104   106   102   am
   105    70    72   ar
   106    70    71   ar
   107   102   103    2
   108   102   101    1
   109   101   104    1
   110   101   100    1
   111    99    97    1
   112   104   105    1
   113   100    95   am
   114    96    95    2
   115    95    94    1
   116    97    98    1
   117    97    94    1
   118    94    93    1
   119    93    84   am
   120    73    74    1
   121    74    75    1
   122    74    77    1
   123    84    85    2
   124    84    83    1
   125    75    76    2
   126    75    82   am
   127    82    83    1
   128    77    78    1
   129    83    86    1
   130    78    79    1
   131    86    87    1
   132    88    87   ar
   133    88    90   ar
   134    79    81   ar
   135    79    80   ar
   136    87    89   ar
   137    90    92   ar
   138    89    91   ar
   139    92    91   ar
