@<TRIPOS>MOLECULE
tmp/3ninB00.pdb
 152 144 0 0 0
SMALL
GASTEIGER

@<TRIPOS>ATOM
      1  N         43.2280  -13.2120   -1.6700 N.3    13  PHE13      -0.1241
      2  CA        42.0620  -12.5720   -2.2660 C.3    13  PHE13       0.1605
      3  C         42.3750  -11.1610   -2.7550 C.2    13  PHE13       0.2264
      4  O         43.1740  -10.4400   -2.1500 O.2    13  PHE13      -0.2867
      5  CB        40.8940  -12.5480   -1.2770 C.3    13  PHE13       0.0534
      6  CG        40.4310  -13.9160   -0.8430 C.ar   13  PHE13      -0.0203
      7  CD1       39.6010  -14.6810   -1.6630 C.ar   13  PHE13      -0.0042
      8  CD2       40.8160  -14.4370    0.3930 C.ar   13  PHE13      -0.0042
      9  CE1       39.1650  -15.9480   -1.2620 C.ar   13  PHE13      -0.0003
     10  CE2       40.3840  -15.7010    0.8040 C.ar   13  PHE13      -0.0003
     11  CZ        39.5580  -16.4570   -0.0240 C.ar   13  PHE13      -0.0000
     12  N         34.3220  -14.8880   -1.3430 N.3    19  LEU19      -0.1245
     13  CA        34.8880  -15.9990   -0.5870 C.3    19  LEU19       0.1561
     14  C         33.7630  -16.6690    0.1940 C.2    19  LEU19       0.2260
     15  O         32.6540  -16.1340    0.2670 O.2    19  LEU19      -0.2867
     16  CB        35.9640  -15.5040    0.3760 C.3    19  LEU19       0.0270
     17  CG        35.5880  -14.3210    1.2690 C.3    19  LEU19       0.0019
     18  CD1       35.9660  -14.6210    2.6960 C.3    19  LEU19       0.0001
     19  CD2       36.2440  -13.0310    0.7850 C.3    19  LEU19       0.0001
     20  N         32.4940  -18.8370    3.7980 N.3    21  ARG21      -0.1245
     21  CA        32.6480  -19.2970    5.1690 C.3    21  ARG21       0.1563
     22  C         31.5700  -20.3310    5.4560 C.2    21  ARG21       0.2260
     23  O         30.4050  -20.0990    5.1490 O.2    21  ARG21      -0.2867
     24  CB        32.5290  -18.1230    6.1390 C.3    21  ARG21       0.0307
     25  CG        33.6630  -17.1110    6.0170 C.3    21  ARG21       0.0489
     26  CD        33.7020  -16.1880    7.2240 C.3    21  ARG21       0.2205
     27  NE        34.8110  -15.2410    7.1170 N.pl3  21  ARG21      -0.0865
     28  CZ        34.6890  -14.0020    6.6530 C.cat  21  ARG21       0.5346
     29  NH1       33.5000  -13.5530    6.2670 N.pl3  21  ARG21       0.1354
     30  NH2       35.7520  -13.2090    6.5870 N.pl3  21  ARG21       0.1354
     31  N         37.0160  -23.9210   11.4960 N.3    27  CYS27      -0.1221
     32  CA        37.4580  -23.9870   12.8870 C.3    27  CYS27       0.1808
     33  C         37.0790  -22.7350   13.6630 C.2    27  CYS27       0.2601
     34  O         36.7130  -22.8090   14.8390 O.2    27  CYS27      -0.2717
     35  CB        38.9600  -24.2500   12.9690 C.3    27  CYS27       0.0970
     36  SG        39.3350  -26.0040   13.0180 S.3    27  CYS27      -0.0800
     37  N         37.1740  -21.5890   12.9940 N.am   28  ASP28      -0.1959
     38  CA        36.6650  -20.3270   13.5230 C.3    28  ASP28       0.1840
     39  C         36.1620  -19.4440   12.3780 C.2    28  ASP28       0.2622
     40  O         36.1420  -19.8720   11.2190 O.2    28  ASP28      -0.2715
     41  CB        37.7240  -19.6120   14.3880 C.3    28  ASP28       0.1450
     42  CG        39.0440  -19.3910   13.6540 C.2    28  ASP28       0.3671
     43  OD1       39.0230  -18.9630   12.4790 O.co2  28  ASP28      -0.2456
     44  OD2       40.1050  -19.6360   14.2630 O.co2  28  ASP28      -0.2456
     45  N         35.7690  -18.2160   12.7050 N.am   29  ASP29      -0.1957
     46  CA        35.1900  -17.2900   11.7280 C.3    29  ASP29       0.1840
     47  C         36.2040  -16.7140   10.7260 C.2    29  ASP29       0.2623
     48  O         35.8320  -15.9250    9.8560 O.2    29  ASP29      -0.2715
     49  CB        34.4320  -16.1600   12.4450 C.3    29  ASP29       0.1450
     50  CG        33.1130  -16.6260   13.0570 C.2    29  ASP29       0.3671
     51  OD1       32.5240  -17.6100   12.5550 O.co2  29  ASP29      -0.2456
     52  OD2       32.6540  -16.0000   14.0390 O.co2  29  ASP29      -0.2456
     53  N         37.4730  -17.1110   10.8390 N.am   30  THR30      -0.1937
     54  CA        38.5120  -16.6290    9.9210 C.3    30  THR30       0.2028
     55  C         38.8710  -17.6570    8.8450 C.2    30  THR30       0.2642
     56  O         39.6940  -17.3780    7.9630 O.2    30  THR30      -0.2714
     57  CB        39.8100  -16.2230   10.6580 C.3    30  THR30       0.1808
     58  OG1       40.5270  -17.3970   11.0580 O.3    30  THR30      -0.2208
     59  CG2       39.5140  -15.3490   11.8770 C.3    30  THR30       0.0379
     60  N         38.2720  -18.8420    8.9300 N.am   31  CYS31      -0.1953
     61  CA        38.5780  -19.9310    8.0080 C.3    31  CYS31       0.1843
     62  C         37.7300  -19.8100    6.7450 C.2    31  CYS31       0.2625
     63  O         36.5050  -19.9240    6.7960 O.2    31  CYS31      -0.2714
     64  CB        38.3700  -21.2860    8.6890 C.3    31  CYS31       0.0997
     65  SG        39.4210  -21.5310   10.1420 S.3    31  CYS31      -0.0797
     66  N         38.3990  -19.5810    5.6180 N.am   32  VAL32      -0.1977
     67  CA        37.7360  -19.1910    4.3660 C.3    32  VAL32       0.1596
     68  C         38.1760  -20.0340    3.1590 C.2    32  VAL32       0.2287
     69  O         39.2790  -20.6000    3.1550 O.2    32  VAL32      -0.2864
     70  CB        37.9700  -17.6840    4.0600 C.3    32  VAL32       0.0276
     71  CG1       37.3970  -16.8210    5.1710 C.3    32  VAL32       0.0022
     72  CG2       39.4650  -17.3800    3.8830 C.3    32  VAL32       0.0022
     73  N         31.1460  -13.8610    1.2760 N.3    51  ASP51      -0.1239
     74  CA        31.6340  -12.5450    1.6610 C.3    51  ASP51       0.1674
     75  C         32.3920  -11.9070    0.4910 C.2    51  ASP51       0.2266
     76  O         32.5970  -12.5420   -0.5460 O.2    51  ASP51      -0.2867
     77  CB        32.5220  -12.6510    2.9100 C.3    51  ASP51       0.1410
     78  CG        32.5000  -11.3870    3.7650 C.2    51  ASP51       0.3668
     79  OD1       32.0280  -10.3290    3.2970 O.co2  51  ASP51      -0.2456
     80  OD2       32.9620  -11.4520    4.9220 O.co2  51  ASP51      -0.2456
     81  N         35.9480   -9.6300   -0.2670 N.3    53  CYS53      -0.1235
     82  CA        37.2120   -9.0570    0.1910 C.3    53  CYS53       0.1677
     83  C         37.2590   -7.5550   -0.0980 C.2    53  CYS53       0.2270
     84  O         37.0600   -7.1280   -1.2400 O.2    53  CYS53      -0.2867
     85  CB        38.3890   -9.7750   -0.4700 C.3    53  CYS53       0.0956
     86  SG        40.0180   -9.1030   -0.0600 S.3    53  CYS53      -0.0801
     87  N         40.1200   -2.9760    3.5260 N.3    56  PHE56      -0.1227
     88  CA        40.4660   -3.2350    4.9260 C.3    56  PHE56       0.1736
     89  C         40.3590   -4.7360    5.2300 C.2    56  PHE56       0.2596
     90  O         39.8540   -5.1360    6.2850 O.2    56  PHE56      -0.2718
     91  CB        39.5450   -2.4430    5.8710 C.3    56  PHE56       0.0547
     92  CG        38.9440   -1.2030    5.2560 C.ar   56  PHE56      -0.0202
     93  CD1       37.6240   -1.2070    4.8080 C.ar   56  PHE56      -0.0042
     94  CD2       39.6910   -0.0320    5.1320 C.ar   56  PHE56      -0.0042
     95  CE1       37.0570   -0.0660    4.2400 C.ar   56  PHE56      -0.0003
     96  CE2       39.1340    1.1160    4.5630 C.ar   56  PHE56      -0.0003
     97  CZ        37.8140    1.0980    4.1180 C.ar   56  PHE56      -0.0000
     98  N         40.8390   -5.5580    4.2970 N.am   57  THR57      -0.1939
     99  CA        40.6510   -7.0080    4.3430 C.3    57  THR57       0.2028
    100  C         41.7400   -7.7030    3.5260 C.2    57  THR57       0.2643
    101  O         41.8250   -7.5330    2.3050 O.2    57  THR57      -0.2714
    102  CB        39.2300   -7.4080    3.8320 C.3    57  THR57       0.1808
    103  OG1       38.2540   -7.1350    4.8460 O.3    57  THR57      -0.2208
    104  CG2       39.1540   -8.8750    3.4670 C.3    57  THR57       0.0379
    105  N         42.5860   -8.4640    4.2130 N.am   58  SER58      -0.1935
    106  CA        43.6290   -9.2460    3.5580 C.3    58  SER58       0.2055
    107  C         43.6240  -10.6620    4.1160 C.2    58  SER58       0.2644
    108  O         43.1170  -10.9020    5.2140 O.2    58  SER58      -0.2714
    109  CB        44.9990   -8.5880    3.7340 C.3    58  SER58       0.2130
    110  OG        45.3480   -8.4800    5.1030 O.3    58  SER58      -0.2179
    111  N         44.1760  -11.6000    3.3540 N.am   59  GLY59      -0.1939
    112  CA        44.1480  -13.0040    3.7450 C.3    59  GLY59       0.2014
    113  C         43.9880  -13.9750    2.5910 C.2    59  GLY59       0.2638
    114  O         43.8850  -13.5720    1.4290 O.2    59  GLY59      -0.2714
    115  N         43.9600  -15.2620    2.9210 N.am   60  ILE60      -0.1977
    116  CA        44.1260  -16.3120    1.9220 C.3    60  ILE60       0.1596
    117  C         43.1590  -17.4680    2.1150 C.2    60  ILE60       0.2287
    118  O         42.6410  -17.6850    3.2150 O.2    60  ILE60      -0.2864
    119  CB        45.5940  -16.8760    1.9030 C.3    60  ILE60       0.0276
    120  CG1       45.8980  -17.6960    3.1670 C.3    60  ILE60       0.0022
    121  CG2       46.6230  -15.7620    1.6370 C.3    60  ILE60       0.0022
    122  CD1       46.4150  -16.9020    4.3680 C.3    60  ILE60       0.0001
    123  N         41.9280  -21.1700    2.7090 N.3    62  ASP62      -0.1239
    124  CA        42.4250  -22.2010    3.6330 C.3    62  ASP62       0.1674
    125  C         42.1770  -23.6390    3.1730 C.2    62  ASP62       0.2266
    126  O         42.4440  -24.5730    3.9300 O.2    62  ASP62      -0.2867
    127  CB        41.8140  -22.0280    5.0320 C.3    62  ASP62       0.1410
    128  CG        42.2350  -20.7420    5.7080 C.2    62  ASP62       0.3668
    129  OD1       43.4480  -20.5350    5.9520 O.co2  62  ASP62      -0.2456
    130  OD2       41.3350  -19.9430    6.0180 O.co2  62  ASP62      -0.2456
    131  N         44.4420  -26.8290    4.0720 N.3    65  ASP65      -0.1239
    132  CA        45.0730  -26.6540    5.3850 C.3    65  ASP65       0.1674
    133  C         44.1480  -27.2990    6.4160 C.2    65  ASP65       0.2266
    134  O         43.1550  -26.6990    6.8370 O.2    65  ASP65      -0.2867
    135  CB        45.3240  -25.1670    5.6840 C.3    65  ASP65       0.1410
    136  CG        45.8630  -24.9210    7.0910 C.2    65  ASP65       0.3668
    137  OD1       46.1620  -25.8930    7.8150 O.co2  65  ASP65      -0.2456
    138  OD2       45.9900  -23.7370    7.4750 O.co2  65  ASP65      -0.2456
    139  N         44.2730  -27.8620    9.4680 N.3    67  GLU67      -0.1231
    140  CA        44.1470  -27.1610   10.7470 C.3    67  GLU67       0.1699
    141  C         42.9740  -26.1750   10.7610 C.2    67  GLU67       0.2592
    142  O         42.5320  -25.7570   11.8340 O.2    67  GLU67      -0.2718
    143  CB        45.4490  -26.4170   11.0790 C.3    67  GLU67       0.0402
    144  CG        46.6270  -27.3140   11.4760 C.3    67  GLU67       0.1161
    145  CD        47.9420  -26.5550   11.5940 C.2    67  GLU67       0.3649
    146  OE1       48.9970  -27.2170   11.7300 O.co2  67  GLU67      -0.2457
    147  OE2       47.9340  -25.3050   11.5470 O.co2  67  GLU67      -0.2457
    148  N         42.4790  -25.8060    9.5760 N.am   68  ALA68      -0.1980
    149  CA        41.3870  -24.8320    9.4500 C.3    68  ALA68       0.1597
    150  C         39.9910  -25.4490    9.4070 C.2    68  ALA68       0.2287
    151  O         38.9900  -24.7230    9.4200 O.2    68  ALA68      -0.2864
    152  CB        41.5970  -23.9410    8.2230 C.3    68  ALA68       0.0319
@<TRIPOS>BOND
     1     3     2    1
     2     3     4    2
     3     2     1    1
     4     2     5    1
     5     7     9   ar
     6     7     6   ar
     7    12    13    1
     8     5     6    1
     9     9    11   ar
    10    84    83    2
    11     6     8   ar
    12    13    14    1
    13    13    16    1
    14    76    75    2
    15    85    86    1
    16    85    82    1
    17    81    82    1
    18    83    82    1
    19    11    10   ar
    20    14    15    2
    21    16    17    1
    22     8    10   ar
    23    75    74    1
    24    19    17    1
    25    17    18    1
    26    73    74    1
    27   114   113    2
    28   121   119    1
    29    74    77    1
    30   119   116    1
    31   119   120    1
    32   116   117    1
    33   116   115    1
    34   117   118    2
    35   101   100    2
    36   113   115   am
    37   113   112    1
    38   123   124    1
    39    77    78    1
    40    69    68    2
    41    68    67    1
    42   120   122    1
    43   125   124    1
    44   125   126    2
    45    79    78   ar
    46   111   112    1
    47   111   107   am
    48   104   102    1
    49    87    88    1
    50   100   105   am
    51   100    99    1
    52   106   109    1
    53   106   107    1
    54   106   105    1
    55   124   127    1
    56   109   110    1
    57    78    80   ar
    58    20    21    1
    59   102    99    1
    60   102   103    1
    61    72    70    1
    62    70    67    1
    63    70    71    1
    64   131   132    1
    65   107   108    2
    66    97    95   ar
    67    97    96   ar
    68    95    93   ar
    69    98    99    1
    70    98    89   am
    71    67    66    1
    72    96    94   ar
    73    93    92   ar
    74    88    89    1
    75    88    91    1
    76   127   128    1
    77    94    92   ar
    78    23    22    2
    79    21    22    1
    80    21    24    1
    81    89    90    2
    82    92    91    1
    83   132   135    1
    84   132   133    1
    85    66    62   am
    86   135   136    1
    87   128   129   ar
    88   128   130   ar
    89    25    24    1
    90    25    26    1
    91    29    28    1
    92   133   134    2
    93    30    28    1
    94    28    27    2
    95    62    63    2
    96    62    61    1
    97   136   138   ar
    98   136   137   ar
    99    27    26    1
   100    56    55    2
   101    61    64    1
   102    61    60    1
   103   152   149    1
   104    64    65    1
   105    55    60   am
   106    55    54    1
   107   150   151    2
   108   150   149    1
   109   149   148    1
   110   139   140    1
   111   148   141   am
   112    48    47    2
   113    54    57    1
   114    54    53    1
   115    57    58    1
   116    57    59    1
   117    47    53   am
   118    47    46    1
   119   140   141    1
   120   140   143    1
   121   141   142    2
   122   143   144    1
   123    40    39    2
   124   144   145    1
   125    31    32    1
   126   147   145   ar
   127   145   146   ar
   128    46    49    1
   129    46    45    1
   130    39    45   am
   131    39    38    1
   132    49    50    1
   133    43    42   ar
   134    51    50   ar
   135    32    35    1
   136    32    33    1
   137    35    36    1
   138    37    38    1
   139    37    33   am
   140    50    52   ar
   141    38    41    1
   142    42    44   ar
   143    42    41    1
   144    33    34    2
