@<TRIPOS>MOLECULE
tmp/3nipC00.pdb
 65 61 0 0 0
SMALL
GASTEIGER

@<TRIPOS>ATOM
      1  N        -35.9310   13.5230   -6.1850 N.3    62  LEU62      -0.1245
      2  CA       -36.0800   12.5300   -7.2390 C.3    62  LEU62       0.1561
      3  C        -35.9500   13.0780   -8.6620 C.2    62  LEU62       0.2260
      4  O        -35.8260   12.2960   -9.6150 O.2    62  LEU62      -0.2867
      5  CB       -37.3410   11.6690   -7.0220 C.3    62  LEU62       0.0270
      6  CG       -37.1100   10.8730   -5.7190 C.3    62  LEU62       0.0019
      7  CD1      -38.3110   10.0990   -5.3050 C.3    62  LEU62       0.0001
      8  CD2      -35.8520   10.0140   -5.7200 C.3    62  LEU62       0.0001
      9  N        -51.7820    2.8580   -7.7170 N.3   245  ALA245     -0.1231
     10  CA       -50.6810    2.0100   -8.1690 C.3   245  ALA245      0.1694
     11  C        -49.4920    2.8080   -8.7080 C.2   245  ALA245      0.2592
     12  O        -48.3320    2.4110   -8.5180 O.2   245  ALA245     -0.2718
     13  CB       -51.1620    1.0430   -9.2110 C.3   245  ALA245      0.0304
     14  N        -49.7950    3.9200   -9.3820 N.am  246  PHE246     -0.1976
     15  CA       -48.7810    4.7800   -9.9570 C.3   246  PHE246      0.1639
     16  C        -48.4210    5.9100   -9.0070 C.2   246  PHE246      0.2290
     17  O        -47.2930    6.3890   -9.0230 O.2   246  PHE246     -0.2864
     18  CB       -49.2490    5.3290  -11.3010 C.3   246  PHE246      0.0560
     19  CG       -49.6390    4.2630  -12.2770 C.ar  246  PHE246     -0.0200
     20  CD1      -48.6590    3.5640  -12.9970 C.ar  246  PHE246     -0.0042
     21  CD2      -50.9790    3.9390  -12.4690 C.ar  246  PHE246     -0.0042
     22  CE1      -49.0090    2.5570  -13.9010 C.ar  246  PHE246     -0.0003
     23  CE2      -51.3470    2.9350  -13.3640 C.ar  246  PHE246     -0.0003
     24  CZ       -50.3540    2.2370  -14.0880 C.ar  246  PHE246     -0.0000
     25  N        -49.6380    6.4220  -15.5220 N.3   260  SER260     -0.1217
     26  CA       -48.5440    7.3670  -15.8350 C.3   260  SER260      0.1889
     27  C        -48.4340    7.5930  -17.3210 C.2   260  SER260      0.2288
     28  O        -48.3630    8.7460  -17.7750 O.2   260  SER260     -0.2866
     29  CB       -47.2030    6.8730  -15.3250 C.3   260  SER260      0.2089
     30  OG       -47.2400    6.7550  -13.9280 O.3   260  SER260     -0.2183
     31  N        -44.2710    5.5200   -1.2750 N.3   289  VAL289     -0.1231
     32  CA       -43.5160    4.2670   -1.2150 C.3   289  VAL289      0.1692
     33  C        -42.2620    4.3530   -2.0780 C.2   289  VAL289      0.2593
     34  O        -42.3600    4.4700   -3.3070 O.2   289  VAL289     -0.2718
     35  CB       -44.3600    3.0570   -1.6860 C.3   289  VAL289      0.0266
     36  CG1      -43.6790    1.7530   -1.2590 C.3   289  VAL289      0.0020
     37  CG2      -45.7820    3.1380   -1.1430 C.3   289  VAL289      0.0020
     38  N        -41.0980    4.2900   -1.4290 N.am  290  GLY290     -0.1942
     39  CA       -39.7920    4.4470   -2.0810 C.3   290  GLY290      0.2014
     40  C        -39.6720    5.6110   -3.0550 C.2   290  GLY290      0.2639
     41  O        -38.9780    5.5110   -4.0770 O.2   290  GLY290     -0.2714
     42  N        -40.3740    6.7050   -2.7640 N.am  291  GLY291     -0.1939
     43  CA       -40.2990    7.9100   -3.5860 C.3   291  GLY291      0.2014
     44  C        -41.0240    7.8050   -4.9150 C.2   291  GLY291      0.2638
     45  O        -40.8400    8.6590   -5.7920 O.2   291  GLY291     -0.2714
     46  N        -41.8610    6.7750   -5.0610 N.am  292  ALA292     -0.1977
     47  CA       -42.6210    6.5730   -6.2910 C.3   292  ALA292      0.1597
     48  C        -43.3770    7.8360   -6.7210 C.2   292  ALA292      0.2287
     49  O        -43.2710    8.2880   -7.8710 O.2   292  ALA292     -0.2864
     50  CB       -43.5840    5.3940   -6.1470 C.3   292  ALA292      0.0319
     51  N        -41.2270   10.7070   -7.8090 N.3   295  LEU295     -0.1231
     52  CA       -40.6460   10.5170   -9.1410 C.3   295  LEU295      0.1693
     53  C        -41.6370   10.8580  -10.2490 C.2   295  LEU295      0.2591
     54  O        -41.2990   11.5780  -11.2030 O.2   295  LEU295     -0.2718
     55  CB       -40.1120    9.0960   -9.3270 C.3   295  LEU295      0.0284
     56  CG       -39.5090    8.8230  -10.7180 C.3   295  LEU295      0.0019
     57  CD1      -38.3070    9.7410  -11.0350 C.3   295  LEU295      0.0001
     58  CD2      -39.0830    7.3800  -10.8150 C.3   295  LEU295      0.0001
     59  N        -42.8550   10.3380  -10.1150 N.am  296  VAL296     -0.1980
     60  CA       -43.9490   10.7390  -10.9670 C.3   296  VAL296      0.1595
     61  C        -44.0590   12.2700  -11.0210 C.2   296  VAL296      0.2287
     62  O        -44.1590   12.8530  -12.1130 O.2   296  VAL296     -0.2864
     63  CB       -45.2690   10.1170  -10.4870 C.3   296  VAL296      0.0276
     64  CG1      -46.4720   10.9030  -11.0050 C.3   296  VAL296      0.0022
     65  CG2      -45.3440    8.6730  -10.9340 C.3   296  VAL296      0.0022
@<TRIPOS>BOND
     1    28    27    2
     2    27    26    1
     3    26    25    1
     4    26    29    1
     5    29    30    1
     6    24    22   ar
     7    24    23   ar
     8    22    20   ar
     9    23    21   ar
    10    20    19   ar
    11    21    19   ar
    12    19    18    1
    13    62    61    2
    14    18    15    1
    15    54    53    2
    16    57    56    1
    17    61    60    1
    18    64    63    1
    19    60    63    1
    20    60    59    1
    21    65    63    1
    22    58    56    1
    23    56    55    1
    24    53    59   am
    25    53    52    1
    26    15    14    1
    27    15    16    1
    28     4     3    2
    29    14    11   am
    30    55    52    1
    31    13    10    1
    32    52    51    1
    33    17    16    2
    34    11    12    2
    35    11    10    1
    36     3     2    1
    37    10     9    1
    38    49    48    2
    39     2     5    1
    40     2     1    1
    41     5     6    1
    42    48    47    1
    43    47    50    1
    44    47    46    1
    45    45    44    2
    46     8     6    1
    47     6     7    1
    48    46    44   am
    49    44    43    1
    50    41    40    2
    51    43    42    1
    52    34    33    2
    53    40    42   am
    54    40    39    1
    55    39    38    1
    56    33    38   am
    57    33    32    1
    58    35    36    1
    59    35    32    1
    60    35    37    1
    61    31    32    1
