@<TRIPOS>MOLECULE
tmp/3niuB05.pdb
 93 89 0 0 0
SMALL
GASTEIGER

@<TRIPOS>ATOM
      1  N         48.2110   37.9580   38.6000 N.3   105  GLN105     -0.1245
      2  CA        46.9330   37.2420   38.5570 C.3   105  GLN105      0.1566
      3  C         46.1660   37.2770   39.8740 C.2   105  GLN105      0.2260
      4  O         44.9470   37.2580   39.8740 O.2   105  GLN105     -0.2867
      5  CB        47.1390   35.8010   38.0930 C.3   105  GLN105      0.0367
      6  CG        45.8650   35.1230   37.6070 C.3   105  GLN105      0.0905
      7  CD        46.0890   33.7060   37.1520 C.2   105  GLN105      0.2608
      8  OE1       47.1470   33.1400   37.3570 O.2   105  GLN105     -0.2717
      9  NE2       45.0910   33.1280   36.5340 N.am  105  GLN105     -0.0878
     10  N         44.8190   40.8390   39.8890 N.3   108  ASP108     -0.1225
     11  CA        43.8110   40.9100   38.8500 C.3   108  ASP108      0.1805
     12  C         42.5180   40.2380   39.2870 C.2   108  ASP108      0.2597
     13  O         41.4320   40.7610   39.0650 O.2   108  ASP108     -0.2718
     14  CB        44.3600   40.2650   37.5770 C.3   108  ASP108      0.1424
     15  CG        43.3820   39.9800   36.4700 C.2   108  ASP108      0.3668
     16  OD1       43.4110   40.7110   35.4650 O.co2 108  ASP108     -0.2456
     17  OD2       42.5920   39.0240   36.5840 O.co2 108  ASP108     -0.2456
     18  N         42.6510   39.0750   39.9100 N.am  109  HIS109     -0.1975
     19  CA        41.5130   38.3000   40.3780 C.3   109  HIS109      0.1656
     20  C         40.7610   38.9750   41.5080 C.2   109  HIS109      0.2291
     21  O         39.5700   38.7480   41.6820 O.2   109  HIS109     -0.2864
     22  CB        41.9710   36.9150   40.8040 C.3   109  HIS109      0.0771
     23  CG        42.0120   35.9280   39.6840 C.ar  109  HIS109      0.0820
     24  ND1       41.9030   34.5710   39.8890 N.ar  109  HIS109     -0.2267
     25  CD2       42.1280   36.1000   38.3470 C.ar  109  HIS109      0.1154
     26  CE1       41.9630   33.9500   38.7280 C.ar  109  HIS109      0.1986
     27  NE2       42.0930   34.8550   37.7770 N.ar  109  HIS109     -0.2212
     28  N         36.1110   40.5650   37.5790 N.3   113  PHE113     -0.1227
     29  CA        35.6220   39.3110   37.0270 C.3   113  PHE113      0.1736
     30  C         34.3240   39.5070   36.2690 C.2   113  PHE113      0.2595
     31  O         33.2990   39.7910   36.8690 O.2   113  PHE113     -0.2718
     32  CB        35.4120   38.2840   38.1340 C.3   113  PHE113      0.0547
     33  CG        34.9040   36.9650   37.6470 C.ar  113  PHE113     -0.0202
     34  CD1       35.4760   36.3410   36.5510 C.ar  113  PHE113     -0.0042
     35  CD2       33.8610   36.3380   38.2960 C.ar  113  PHE113     -0.0042
     36  CE1       35.0100   35.1230   36.1070 C.ar  113  PHE113     -0.0003
     37  CE2       33.3900   35.1160   37.8560 C.ar  113  PHE113     -0.0003
     38  CZ        33.9660   34.5110   36.7610 C.ar  113  PHE113     -0.0000
     39  N         34.3720   39.3450   34.9520 N.am  114  ALA114     -0.1980
     40  CA        33.1790   39.4080   34.1250 C.3   114  ALA114      0.1597
     41  C         32.8060   38.0120   33.6730 C.2   114  ALA114      0.2287
     42  O         33.4310   37.4780   32.7690 O.2   114  ALA114     -0.2864
     43  CB        33.4100   40.3000   32.9360 C.3   114  ALA114      0.0319
     44  N         37.8720   31.2330   40.3110 N.3   254  ARG254     -0.1245
     45  CA        38.9150   30.8580   39.3530 C.3   254  ARG254      0.1563
     46  C         40.1600   30.2590   40.0160 C.2   254  ARG254      0.2260
     47  O         41.0900   29.8560   39.3250 O.2   254  ARG254     -0.2867
     48  CB        39.3130   32.0550   38.4890 C.3   254  ARG254      0.0307
     49  CG        38.1540   32.7990   37.8640 C.3   254  ARG254      0.0489
     50  CD        38.6120   34.1350   37.3260 C.3   254  ARG254      0.2205
     51  NE        38.8290   35.1230   38.3780 N.pl3 254  ARG254     -0.0865
     52  CZ        38.5640   36.4230   38.2360 C.cat 254  ARG254      0.5346
     53  NH1       38.0930   36.9050   37.0810 N.pl3 254  ARG254      0.1354
     54  NH2       38.7790   37.2490   39.2500 N.pl3 254  ARG254      0.1354
     55  N         42.3760   27.5250   38.3320 N.3   257  GLU257     -0.1245
     56  CA        42.6720   27.6530   36.9010 C.3   257  GLU257      0.1567
     57  C         44.0520   27.0950   36.5150 C.2   257  GLU257      0.2260
     58  O         44.2380   26.5790   35.4080 O.2   257  GLU257     -0.2867
     59  CB        42.5410   29.1180   36.4800 C.3   257  GLU257      0.0388
     60  CG        42.5780   29.3600   34.9880 C.3   257  GLU257      0.1160
     61  CD        43.9760   29.6340   34.4610 C.2   257  GLU257      0.3649
     62  OE1       44.8490   30.1270   35.2140 O.co2 257  GLU257     -0.2457
     63  OE2       44.2000   29.3540   33.2690 O.co2 257  GLU257     -0.2457
     64  N         49.3440   37.7630   30.4090 N.3   350  HIS350     -0.1241
     65  CA        49.2640   36.5450   29.5880 C.3   350  HIS350      0.1621
     66  C         50.5240   36.3060   28.7580 C.2   350  HIS350      0.2264
     67  O         50.8320   35.1680   28.4010 O.2   350  HIS350     -0.2867
     68  CB        48.0380   36.5650   28.6720 C.3   350  HIS350      0.0745
     69  CG        46.7370   36.4870   29.4060 C.ar  350  HIS350      0.0817
     70  ND1       45.5570   36.9700   28.8830 N.ar  350  HIS350     -0.2268
     71  CD2       46.4340   35.9950   30.6310 C.ar  350  HIS350      0.1154
     72  CE1       44.5800   36.7690   29.7500 C.ar  350  HIS350      0.1986
     73  NE2       45.0860   36.1810   30.8200 N.ar  350  HIS350     -0.2212
     74  N         43.5620   23.5200   35.8160 N.3   380  PHE380     -0.1241
     75  CA        42.6110   22.8790   36.7310 C.3   380  PHE380      0.1605
     76  C         43.1790   21.5780   37.3040 C.2   380  PHE380      0.2264
     77  O         42.5320   20.5310   37.2850 O.2   380  PHE380     -0.2867
     78  CB        41.2370   22.6910   36.0660 C.3   380  PHE380      0.0534
     79  CG        40.5870   23.9860   35.6520 C.ar  380  PHE380     -0.0203
     80  CD1       40.8680   24.5620   34.4130 C.ar  380  PHE380     -0.0042
     81  CD2       39.7050   24.6390   36.5070 C.ar  380  PHE380     -0.0042
     82  CE1       40.2770   25.7620   34.0360 C.ar  380  PHE380     -0.0003
     83  CE2       39.1080   25.8400   36.1340 C.ar  380  PHE380     -0.0003
     84  CZ        39.3950   26.4010   34.8990 C.ar  380  PHE380     -0.0000
     85  N         39.4560   24.8770   28.9640 N.3   422  GLN422     -0.1245
     86  CA        38.3150   25.6340   29.4690 C.3   422  GLN422      0.1566
     87  C         37.4140   24.6940   30.2720 C.2   422  GLN422      0.2260
     88  O         37.0650   23.6160   29.7840 O.2   422  GLN422     -0.2867
     89  CB        37.5390   26.2890   28.3200 C.3   422  GLN422      0.0367
     90  CG        38.2850   27.4130   27.5920 C.3   422  GLN422      0.0905
     91  CD        38.0690   28.7900   28.2090 C.2   422  GLN422      0.2608
     92  OE1       37.4250   29.6520   27.6100 O.2   422  GLN422     -0.2717
     93  NE2       38.6100   29.0030   29.4050 N.am  422  GLN422     -0.0878
@<TRIPOS>BOND
     1    90    91    1
     2    90    89    1
     3    92    91    2
     4    91    93   am
     5    89    86    1
     6    67    66    2
     7    68    69    1
     8    68    65    1
     9    66    65    1
    10    70    69   ar
    11    70    72   ar
    12    85    86    1
    13    69    71   ar
    14    86    87    1
    15    65    64    1
    16    72    73   ar
    17    88    87    2
    18    71    73   ar
    19    42    41    2
    20    43    40    1
    21    63    61   ar
    22    41    40    1
    23    82    80   ar
    24    82    84   ar
    25    40    39    1
    26    80    79   ar
    27    61    60    1
    28    61    62   ar
    29    84    83   ar
    30    39    30   am
    31    60    59    1
    32    58    57    2
    33    16    15   ar
    34    79    78    1
    35    79    81   ar
    36    74    75    1
    37    78    75    1
    38    36    34   ar
    39    36    38   ar
    40    83    81   ar
    41    30    31    2
    42    30    29    1
    43    15    17   ar
    44    15    14    1
    45    59    56    1
    46    57    56    1
    47     9     7   am
    48    34    33   ar
    49    75    76    1
    50    38    37   ar
    51    56    55    1
    52    29    28    1
    53    29    32    1
    54    53    52    1
    55     7     8    2
    56     7     6    1
    57    77    76    2
    58    50    49    1
    59    50    51    1
    60    14    11    1
    61     6     5    1
    62    33    32    1
    63    33    35   ar
    64    27    25   ar
    65    27    26   ar
    66    37    35   ar
    67    49    48    1
    68     5     2    1
    69    52    51    2
    70    52    54    1
    71    25    23   ar
    72    48    45    1
    73     2     1    1
    74     2     3    1
    75    26    24   ar
    76    11    12    1
    77    11    10    1
    78    13    12    2
    79    12    18   am
    80    47    46    2
    81    45    46    1
    82    45    44    1
    83    23    24   ar
    84    23    22    1
    85     4     3    2
    86    18    19    1
    87    19    22    1
    88    19    20    1
    89    20    21    2
