@<TRIPOS>MOLECULE
tmp/3nizA00.pdb
 204 193 0 0 0
SMALL
GASTEIGER

@<TRIPOS>ATOM
      1  N         -1.9160   25.3330   88.8540 N.3    15  VAL15      -0.1231
      2  CA        -1.4660   25.3930   87.4580 C.3    15  VAL15       0.1692
      3  C         -1.7700   24.0690   86.6830 C.2    15  VAL15       0.2593
      4  O         -1.5650   23.9780   85.4650 O.2    15  VAL15      -0.2718
      5  CB         0.0130   25.8810   87.4050 C.3    15  VAL15       0.0266
      6  CG1        0.5670   25.9340   85.9790 C.3    15  VAL15       0.0020
      7  CG2        0.1410   27.2510   88.0560 C.3    15  VAL15       0.0020
      8  N         -2.3270   23.0940   87.3940 N.am   16  GLY16      -0.1942
      9  CA        -2.7020   21.8040   86.8310 C.3    16  GLY16       0.2014
     10  C         -3.5290   20.9670   87.7790 C.2    16  GLY16       0.2639
     11  O         -3.7730   21.3640   88.9190 O.2    16  GLY16      -0.2714
     12  N         -3.9860   19.8130   87.3010 N.am   17  GLU17      -0.1963
     13  CA        -4.7730   18.8690   88.0960 C.3    17  GLU17       0.1733
     14  C         -4.3680   17.4480   87.7130 C.2    17  GLU17       0.2617
     15  O         -3.7150   17.2480   86.6820 O.2    17  GLU17      -0.2715
     16  CB        -6.2850   19.0850   87.8870 C.3    17  GLU17       0.0429
     17  CG        -7.1100   18.8680   89.1500 C.3    17  GLU17       0.1163
     18  CD        -8.4520   18.1840   88.9680 C.2    17  GLU17       0.3649
     19  OE1       -8.7240   17.2100   89.7080 O.co2  17  GLU17      -0.2457
     20  OE2       -9.2380   18.6240   88.0970 O.co2  17  GLU17      -0.2457
     21  N         -4.7310   16.4860   88.5540 N.am   18  GLY18      -0.1940
     22  CA        -4.4190   15.0850   88.3190 C.3    18  GLY18       0.2014
     23  C         -5.2930   14.0950   89.0530 C.2    18  GLY18       0.2640
     24  O         -6.0970   14.4670   89.9150 O.2    18  GLY18      -0.2714
     25  N         -5.1120   12.8100   88.7040 N.am   19  THR19      -0.1936
     26  CA        -5.8310   11.6600   89.2520 C.3    19  THR19       0.2028
     27  C         -5.6910   11.5520   90.7770 C.2    19  THR19       0.2642
     28  O         -6.6860   11.2650   91.4530 O.2    19  THR19      -0.2714
     29  CB        -5.3940   10.3710   88.5300 C.3    19  THR19       0.1808
     30  OG1       -5.3170   10.6140   87.1230 O.3    19  THR19      -0.2208
     31  CG2       -6.3300    9.1970   88.7980 C.3    19  THR19       0.0379
     32  N         -4.4790   11.8090   91.3160 N.am   20  TYR20      -0.1959
     33  CA        -4.2130   11.6820   92.7550 C.3    20  TYR20       0.1774
     34  C         -4.0270   12.9840   93.5190 C.2    20  TYR20       0.2659
     35  O         -4.0350   12.9860   94.7530 O.2    20  TYR20      -0.2711
     36  CB        -3.0910   10.6650   93.0170 C.3    20  TYR20       0.0574
     37  CG        -3.4080    9.3160   92.4120 C.ar   20  TYR20      -0.0198
     38  CD1       -4.1480    8.3700   93.1180 C.ar   20  TYR20      -0.0009
     39  CD2       -3.0450    9.0150   91.1010 C.ar   20  TYR20      -0.0009
     40  CE1       -4.4900    7.1450   92.5460 C.ar   20  TYR20       0.0417
     41  CE2       -3.3910    7.8000   90.5150 C.ar   20  TYR20       0.0417
     42  CZ        -4.1070    6.8630   91.2440 C.ar   20  TYR20       0.1957
     43  OH        -4.4300    5.6540   90.6730 O.3    20  TYR20      -0.2866
     44  N         -3.9190   14.0820   92.7870 N.am   21  GLY21      -0.1730
     45  CA        -3.7720   15.3940   93.3950 C.2    21  GLY21       0.1340
     46  C         -3.7050   16.5540   92.4300 C.2    21  GLY21       0.2521
     47  O         -3.8860   16.3980   91.2210 O.2    21  GLY21      -0.2816
     48  N         -1.6140   20.0740   90.9690 N.3    23  VAL23      -0.1245
     49  CA        -0.3350   20.7180   90.7180 C.3    23  VAL23       0.1561
     50  C         -0.5260   22.2240   90.9360 C.2    23  VAL23       0.2260
     51  O         -1.4700   22.8230   90.4100 O.2    23  VAL23      -0.2867
     52  CB         0.2700   20.3650   89.3400 C.3    23  VAL23       0.0252
     53  CG1        1.6270   21.0380   89.1370 C.3    23  VAL23       0.0019
     54  CG2        0.3970   18.8520   89.1800 C.3    23  VAL23       0.0019
     55  N          7.0920   23.9650   90.9160 N.3    35  ALA35      -0.1245
     56  CA         5.8050   23.2900   90.8200 C.3    35  ALA35       0.1562
     57  C          5.7010   22.2750   91.9320 C.2    35  ALA35       0.2260
     58  O          6.6770   21.5970   92.2390 O.2    35  ALA35      -0.2867
     59  CB         5.6760   22.5810   89.4760 C.3    35  ALA35       0.0290
     60  N          3.6040   18.9440   92.9050 N.3    37  LYS37      -0.1245
     61  CA         2.6510   17.9330   92.4760 C.3    37  LYS37       0.1561
     62  C          2.3020   17.1270   93.7130 C.2    37  LYS37       0.2260
     63  O          3.1590   16.3950   94.2210 O.2    37  LYS37      -0.2867
     64  CB         3.2400   17.0600   91.3460 C.3    37  LYS37       0.0271
     65  CG         2.3780   15.8460   90.9590 C.3    37  LYS37       0.0035
     66  CD         2.9350   15.1230   89.7350 C.3    37  LYS37       0.0206
     67  CE         2.1290   13.8930   89.4130 C.3    37  LYS37       0.1093
     68  NZ         2.7100   13.1530   88.2570 N.3    37  LYS37      -0.1314
     69  N          0.3830   14.2130   95.8310 N.3    39  ILE39      -0.1245
     70  CA        -0.0870   12.8250   95.6540 C.3    39  ILE39       0.1561
     71  C         -0.7830   12.3430   96.9430 C.2    39  ILE39       0.2260
     72  O         -0.1350   12.2840   97.9860 O.2    39  ILE39      -0.2867
     73  CB         1.0880   11.8590   95.2650 C.3    39  ILE39       0.0252
     74  CG1        1.9920   12.3880   94.1160 C.3    39  ILE39       0.0019
     75  CG2        0.6200   10.4070   95.0430 C.3    39  ILE39       0.0019
     76  CD1        1.3630   12.5210   92.7640 C.3    39  ILE39       0.0001
     77  N          7.9830    6.6850   90.6100 N.3    49  GLU49      -0.1245
     78  CA         8.1080    7.9170   89.8390 C.3    49  GLU49       0.1567
     79  C          9.3310    8.7560   90.2510 C.2    49  GLU49       0.2260
     80  O         10.1340    9.1100   89.3840 O.2    49  GLU49      -0.2867
     81  CB         6.7860    8.7030   89.8610 C.3    49  GLU49       0.0388
     82  CG         6.7690    9.9090   88.9370 C.3    49  GLU49       0.1160
     83  CD         5.4270   10.5780   88.7040 C.2    49  GLU49       0.3649
     84  OE1        4.3820    9.8940   88.8150 O.co2  49  GLU49      -0.2457
     85  OE2        5.4300   11.7730   88.3290 O.co2  49  GLU49      -0.2457
     86  N         11.6750   16.8550   82.6820 N.3    62  VAL62      -0.1245
     87  CA        11.2960   17.6600   83.8400 C.3    62  VAL62       0.1561
     88  C         12.1620   17.2800   85.0600 C.2    62  VAL62       0.2260
     89  O         12.3050   16.0900   85.3900 O.2    62  VAL62      -0.2867
     90  CB         9.7770   17.6140   84.1390 C.3    62  VAL62       0.0252
     91  CG1        9.3760   16.3120   84.8490 C.3    62  VAL62       0.0019
     92  CG2        9.3560   18.8300   84.9620 C.3    62  VAL62       0.0019
     93  N          9.0470   20.1110   91.3880 N.3    78  PHE78      -0.1227
     94  CA         9.6430   20.2200   90.0600 C.3    78  PHE78       0.1736
     95  C         10.0070   21.6420   89.6830 C.2    78  PHE78       0.2595
     96  O          9.4820   22.5880   90.2620 O.2    78  PHE78      -0.2718
     97  CB         8.6500   19.7040   89.0090 C.3    78  PHE78       0.0547
     98  CG         8.2900   18.2430   89.0890 C.ar   78  PHE78      -0.0202
     99  CD1        7.1080   17.8350   89.6910 C.ar   78  PHE78      -0.0042
    100  CD2        9.1050   17.2780   88.5070 C.ar   78  PHE78      -0.0042
    101  CE1        6.7380   16.4900   89.7040 C.ar   78  PHE78      -0.0003
    102  CE2        8.7410   15.9340   88.5280 C.ar   78  PHE78      -0.0003
    103  CZ         7.5580   15.5460   89.1260 C.ar   78  PHE78      -0.0000
    104  N         10.8540   21.7900   88.6510 N.am   79  GLU79      -0.1965
    105  CA        11.1580   23.0650   88.0240 C.3    79  GLU79       0.1733
    106  C          9.8080   23.4880   87.3880 C.2    79  GLU79       0.2616
    107  O          8.9930   22.6280   86.9880 O.2    79  GLU79      -0.2715
    108  CB        12.2390   22.9090   86.9320 C.3    79  GLU79       0.0429
    109  CG        11.8540   21.9470   85.8020 C.3    79  GLU79       0.1163
    110  CD        12.8190   21.8290   84.6400 C.2    79  GLU79       0.3649
    111  OE1       13.1280   20.6810   84.2460 O.co2  79  GLU79      -0.2457
    112  OE2       13.2550   22.8780   84.1120 O.co2  79  GLU79      -0.2457
    113  N          9.5410   24.7940   87.3570 N.am   80  PHE80      -0.1960
    114  CA         8.2670   25.2550   86.8190 C.3    80  PHE80       0.1771
    115  C          8.2580   25.2710   85.2900 C.2    80  PHE80       0.2619
    116  O          9.2790   25.5710   84.6510 O.2    80  PHE80      -0.2715
    117  CB         7.8840   26.6310   87.4100 C.3    80  PHE80       0.0574
    118  CG         6.4990   27.0720   87.0140 C.ar   80  PHE80      -0.0200
    119  CD1        5.3740   26.4650   87.5670 C.ar   80  PHE80      -0.0042
    120  CD2        6.3170   28.0420   86.0320 C.ar   80  PHE80      -0.0042
    121  CE1        4.0910   26.8220   87.1530 C.ar   80  PHE80      -0.0003
    122  CE2        5.0290   28.4260   85.6410 C.ar   80  PHE80      -0.0003
    123  CZ         3.9270   27.8140   86.2060 C.ar   80  PHE80      -0.0000
    124  N          7.0930   24.9230   84.7160 N.am   81  MET81      -0.1977
    125  CA         6.8380   24.9390   83.2630 C.3    81  MET81       0.1605
    126  C          5.4900   25.6250   83.0600 C.2    81  MET81       0.2287
    127  O          4.4930   25.1820   83.6270 O.2    81  MET81      -0.2864
    128  CB         6.7990   23.5000   82.6690 C.3    81  MET81       0.0413
    129  CG         8.0120   22.6510   82.9950 C.3    81  MET81       0.0598
    130  SD         9.5340   23.2140   82.2550 S.3    81  MET81      -0.1393
    131  CE         9.2110   22.8290   80.4810 C.3    81  MET81       0.0692
    132  N          3.3160   25.8790   80.4350 N.3    83  LYS83      -0.1231
    133  CA         2.2910   25.1440   79.6900 C.3    83  LYS83       0.1693
    134  C          2.6470   23.6680   79.4280 C.2    83  LYS83       0.2592
    135  O          3.7160   23.1770   79.8100 O.2    83  LYS83      -0.2718
    136  CB         2.1160   25.8430   78.3060 C.3    83  LYS83       0.0285
    137  CG         1.2440   27.0970   78.3140 C.3    83  LYS83       0.0035
    138  CD         1.6510   28.0930   77.2310 C.3    83  LYS83       0.0206
    139  CE         0.7220   28.0700   76.0420 C.3    83  LYS83       0.1093
    140  NZ         1.0590   29.1300   75.0560 N.3    83  LYS83      -0.1314
    141  N          1.7580   22.9960   78.6930 N.am   84  ASP84      -0.1974
    142  CA         1.9440   21.6560   78.1710 C.3    84  ASP84       0.1709
    143  C          1.5090   21.6460   76.6800 C.2    84  ASP84       0.2293
    144  O          0.8700   22.6030   76.2300 O.2    84  ASP84      -0.2864
    145  CB         1.2610   20.5870   79.0380 C.3    84  ASP84       0.1436
    146  CG        -0.2480   20.6540   79.1410 C.2    84  ASP84       0.3671
    147  OD1       -0.9060   20.8260   78.1000 O.co2  84  ASP84      -0.2456
    148  OD2       -0.7760   20.3800   80.2380 O.co2  84  ASP84      -0.2456
    149  N         -2.3100   22.0550   75.7040 N.3    87  LYS87      -0.1245
    150  CA        -2.6990   23.4650   75.7950 C.3    87  LYS87       0.1561
    151  C         -2.2560   24.2100   74.5430 C.2    87  LYS87       0.2260
    152  O         -2.9790   25.0930   74.0610 O.2    87  LYS87      -0.2867
    153  CB        -2.1060   24.1260   77.0540 C.3    87  LYS87       0.0271
    154  CG        -2.8310   23.7550   78.3480 C.3    87  LYS87       0.0035
    155  CD        -2.1400   24.3500   79.5780 C.3    87  LYS87       0.0206
    156  CE        -2.8330   23.9870   80.8730 C.3    87  LYS87       0.1093
    157  NZ        -2.2390   24.7110   82.0290 N.3    87  LYS87      -0.1314
    158  N         -0.4570   16.1960   76.7510 N.3   128  GLN128     -0.1231
    159  CA        -0.6070   16.6680   78.1470 C.3   128  GLN128      0.1698
    160  C          0.6020   16.3070   79.0600 C.2   128  GLN128      0.2592
    161  O          0.8360   17.0260   80.0360 O.2   128  GLN128     -0.2718
    162  CB        -1.9400   16.2170   78.7710 C.3   128  GLN128      0.0381
    163  CG        -2.0260   14.7260   79.1220 C.3   128  GLN128      0.0905
    164  CD        -3.2810   14.3880   79.8910 C.2   128  GLN128      0.2608
    165  OE1       -4.3990   14.6950   79.4690 O.2   128  GLN128     -0.2717
    166  NE2       -3.1300   13.7100   81.0210 N.am  128  GLN128     -0.0878
    167  N          1.3790   15.2210   78.7300 N.am  129  ASN129     -0.1974
    168  CA         2.5730   14.8340   79.5160 C.3   129  ASN129      0.1688
    169  C          3.8400   15.4330   78.9430 C.2   129  ASN129      0.2292
    170  O          4.9310   15.1370   79.4190 O.2   129  ASN129     -0.2864
    171  CB         2.7120   13.3170   79.6860 C.3   129  ASN129      0.1181
    172  CG         1.6300   12.6840   80.4950 C.2   129  ASN129      0.2629
    173  OD1        0.9940   13.3220   81.3540 O.2   129  ASN129     -0.2716
    174  ND2        1.4610   11.3790   80.3040 N.am  129  ASN129     -0.0877
    175  N          5.5730   18.8470   78.7430 N.3   131  LEU131     -0.1245
    176  CA         5.5860   20.2110   79.2850 C.3   131  LEU131      0.1561
    177  C          6.4350   21.1530   78.4670 C.2   131  LEU131      0.2260
    178  O          7.4930   20.7600   77.9740 O.2   131  LEU131     -0.2867
    179  CB         6.0770   20.2360   80.7450 C.3   131  LEU131      0.0270
    180  CG         5.4210   19.3190   81.7560 C.3   131  LEU131      0.0019
    181  CD1        5.9480   19.6130   83.1350 C.3   131  LEU131      0.0001
    182  CD2        3.8900   19.4050   81.7370 C.3   131  LEU131      0.0001
    183  N          7.4860   14.5780   81.0570 N.3   141  ALA141     -0.1231
    184  CA         6.9720   14.5950   82.4140 C.3   141  ALA141      0.1694
    185  C          6.0250   13.4100   82.5830 C.2   141  ALA141      0.2592
    186  O          5.7070   12.7300   81.6010 O.2   141  ALA141     -0.2718
    187  CB         6.2170   15.8900   82.6550 C.3   141  ALA141      0.0304
    188  N          5.5870   13.1710   83.8260 N.am  142  ASP142     -0.1974
    189  CA         4.6890   12.0980   84.2390 C.3   142  ASP142      0.1709
    190  C          5.3150   10.7010   83.9730 C.2   142  ASP142      0.2293
    191  O          4.9380   10.0160   83.0210 O.2   142  ASP142     -0.2864
    192  CB         3.2660   12.2520   83.6580 C.3   142  ASP142      0.1436
    193  CG         2.2380   11.3180   84.2630 C.2   142  ASP142      0.3671
    194  OD1        1.0770   11.3850   83.8610 O.co2 142  ASP142     -0.2456
    195  OD2        2.5890   10.5540   85.1770 O.co2 142  ASP142     -0.2456
    196  N         -5.3070    3.0000   86.5900 N.3   156  GLU156     -0.1245
    197  CA        -6.1580    4.1490   86.2660 C.3   156  GLU156      0.1567
    198  C         -6.5950    4.0850   84.8010 C.2   156  GLU156      0.2260
    199  O         -5.8210    3.6340   83.9480 O.2   156  GLU156     -0.2867
    200  CB        -5.4260    5.4750   86.5460 C.3   156  GLU156      0.0388
    201  CG        -4.1010    5.5940   85.7310 C.3   156  GLU156      0.1160
    202  CD        -3.1990    6.7490   86.1760 C.2   156  GLU156      0.3649
    203  OE1       -3.5690    7.5300   87.0810 O.co2 156  GLU156     -0.2457
    204  OE2       -2.1160    6.8940   85.5940 O.co2 156  GLU156     -0.2457
@<TRIPOS>BOND
     1   152   151    2
     2   151   150    1
     3   140   139    1
     4   149   150    1
     5   150   153    1
     6   139   138    1
     7   144   143    2
     8   143   142    1
     9   158   159    1
    10   153   154    1
    11   138   137    1
    12   178   177    2
    13   147   146   ar
    14   159   162    1
    15   159   160    1
    16   142   141    1
    17   142   145    1
    18   136   137    1
    19   136   133    1
    20   154   155    1
    21   177   176    1
    22   141   134   am
    23   167   160   am
    24   167   168    1
    25   175   176    1
    26   162   163    1
    27   169   170    2
    28   169   168    1
    29   145   146    1
    30   160   161    2
    31   163   164    1
    32   146   148   ar
    33   176   179    1
    34   134   133    1
    35   134   135    2
    36   165   164    2
    37   168   171    1
    38   155   156    1
    39   171   172    1
    40   133   132    1
    41   164   166   am
    42   174   172   am
    43   131   130    1
    44   172   173    2
    45   179   180    1
    46   156   157    1
    47   183   184    1
    48   186   185    2
    49   182   180    1
    50   180   181    1
    51   130   129    1
    52   184   185    1
    53   184   187    1
    54   185   188   am
    55   128   129    1
    56   128   125    1
    57    86    87    1
    58   191   190    2
    59   126   125    1
    60   126   127    2
    61   125   124    1
    62   192   189    1
    63   192   193    1
    64   188   189    1
    65    87    90    1
    66    87    88    1
    67   194   193   ar
    68   199   198    2
    69   190   189    1
    70   112   110   ar
    71    90    91    1
    72    90    92    1
    73   111   110   ar
    74   193   195   ar
    75   110   109    1
    76   116   115    2
    77   124   115   am
    78   198   197    1
    79    88    89    2
    80   115   114    1
    81     4     3    2
    82   204   202   ar
    83   122   120   ar
    84   122   123   ar
    85   201   202    1
    86   201   200    1
    87   109   108    1
    88     6     5    1
    89   120   118   ar
    90   202   203   ar
    91   123   121   ar
    92   197   200    1
    93   197   196    1
    94    15    14    2
    95     3     8   am
    96     3     2    1
    97   114   113    1
    98   114   117    1
    99     9     8    1
   100     9    10    1
   101   108   105    1
   102   107   106    2
   103   118   117    1
   104   118   119   ar
   105    30    29    1
   106   121   119   ar
   107    12    10   am
   108    12    13    1
   109   113   106   am
   110   106   105    1
   111     5     2    1
   112     5     7    1
   113     2     1    1
   114    14    13    1
   115    14    21   am
   116    10    11    2
   117    16    13    1
   118    16    17    1
   119   105   104    1
   120    20    18   ar
   121    68    67    1
   122    22    21    1
   123    22    23    1
   124    85    83   ar
   125   100   102   ar
   126   100    98   ar
   127   102   103   ar
   128    29    31    1
   129    29    26    1
   130   104    95   am
   131    25    23   am
   132    25    26    1
   133    83    84   ar
   134    83    82    1
   135    82    81    1
   136    18    17    1
   137    18    19   ar
   138    97    98    1
   139    97    94    1
   140    23    24    2
   141    98    99   ar
   142   103   101   ar
   143    53    52    1
   144    54    52    1
   145    26    27    1
   146    52    49    1
   147    80    79    2
   148    67    66    1
   149    59    56    1
   150    95    94    1
   151    95    96    2
   152    99   101   ar
   153    66    65    1
   154    78    81    1
   155    78    79    1
   156    78    77    1
   157    94    93    1
   158    51    50    2
   159    41    39   ar
   160    41    42   ar
   161    43    42    1
   162    49    50    1
   163    49    48    1
   164    27    32   am
   165    27    28    2
   166    56    55    1
   167    56    57    1
   168    65    64    1
   169    39    37   ar
   170    47    46    2
   171    42    40   ar
   172    32    33    1
   173    64    61    1
   174    57    58    2
   175    37    36    1
   176    37    38   ar
   177    46    45    1
   178    61    60    1
   179    61    62    1
   180    40    38   ar
   181    33    36    1
   182    33    34    1
   183    76    74    1
   184    44    45    2
   185    44    34    1
   186    34    35    2
   187    62    63    2
   188    74    73    1
   189    75    73    1
   190    73    70    1
   191    70    69    1
   192    70    71    1
   193    71    72    2
