@<TRIPOS>MOLECULE
tmp/3nj3A01.pdb
 144 141 0 0 0
SMALL
GASTEIGER

@<TRIPOS>ATOM
      1  N         14.9460   13.4050    4.5030 N.3    50  GLU50      -0.1231
      2  CA        14.6290   14.6570    5.2050 C.3    50  GLU50       0.1699
      3  C         13.1170   14.9510    5.2160 C.2    50  GLU50       0.2592
      4  O         12.5860   15.3860    6.2040 O.2    50  GLU50      -0.2718
      5  CB        15.3680   15.8450    4.5630 C.3    50  GLU50       0.0402
      6  CG        15.6430   16.9740    5.5460 C.3    50  GLU50       0.1161
      7  CD        16.2420   18.1850    4.9150 C.2    50  GLU50       0.3649
      8  OE1       16.5640   18.1710    3.6880 O.co2  50  GLU50      -0.2457
      9  OE2       16.3680   19.1700    5.6610 O.co2  50  GLU50      -0.2457
     10  N         12.4440   14.6710    4.1050 N.am   51  ASN51      -0.1974
     11  CA        11.0420   15.0460    3.9090 C.3    51  ASN51       0.1688
     12  C         10.2990   14.0590    3.0690 C.2    51  ASN51       0.2292
     13  O          9.0650   14.1390    2.9880 O.2    51  ASN51      -0.2864
     14  CB        10.9320   16.3650    3.1320 C.3    51  ASN51       0.1181
     15  CG        11.4410   17.5220    3.8820 C.2    51  ASN51       0.2629
     16  OD1       12.3860   18.2000    3.4540 O.2    51  ASN51      -0.2716
     17  ND2       10.8660   17.7590    5.0250 N.am   51  ASN51      -0.0877
     18  N          7.4550   11.8530    4.3810 N.3    54  LYS54      -0.1245
     19  CA         6.3870   12.5890    5.0770 C.3    54  LYS54       0.1561
     20  C          5.0790   12.4740    4.3220 C.2    54  LYS54       0.2260
     21  O          5.0340   12.2110    3.0910 O.2    54  LYS54      -0.2867
     22  CB         6.7530   14.0550    5.2900 C.3    54  LYS54       0.0271
     23  CG         7.9730   14.1960    6.2080 C.3    54  LYS54       0.0035
     24  CD         8.3520   15.6450    6.4150 C.3    54  LYS54       0.0206
     25  CE         9.5840   15.7440    7.3160 C.3    54  LYS54       0.1093
     26  NZ        10.1240   17.1710    7.4610 N.3    54  LYS54      -0.1314
     27  N         10.9480    8.3770    8.5940 N.3    87  HIS87      -0.1241
     28  CA        10.5570    9.6840    9.1840 C.3    87  HIS87       0.1621
     29  C          9.4740   10.3730    8.3670 C.2    87  HIS87       0.2264
     30  O          9.7030   10.7110    7.2200 O.2    87  HIS87      -0.2867
     31  CB        11.8180   10.5820    9.3040 C.3    87  HIS87       0.0745
     32  CG        11.5580   11.9610    9.8530 C.ar   87  HIS87       0.0817
     33  ND1       11.4330   12.2390   11.2080 N.ar   87  HIS87      -0.2268
     34  CD2       11.4340   13.1450    9.2240 C.ar   87  HIS87       0.1154
     35  CE1       11.1900   13.5260   11.3720 C.ar   87  HIS87       0.1986
     36  NE2       11.1800   14.0960   10.1810 N.ar   87  HIS87      -0.2212
     37  N          2.6600   13.2130   12.4730 N.3    91  TRP91      -0.1241
     38  CA         3.1850   14.5530   12.8040 C.3    91  TRP91       0.1605
     39  C          2.1340   15.6310   12.3780 C.2    91  TRP91       0.2264
     40  O          1.2010   15.3540   11.5810 O.2    91  TRP91      -0.2867
     41  CB         4.5130   14.7560   12.0490 C.3    91  TRP91       0.0550
     42  CG         5.3820   15.9530   12.4570 C.ar   91  TRP91       0.0003
     43  CD1        5.6000   16.4540   13.7440 C.ar   91  TRP91       0.0946
     44  CD2        6.1560   16.7580   11.5770 C.ar   91  TRP91       0.0152
     45  NE1        6.4740   17.5370   13.6620 N.ar   91  TRP91      -0.2442
     46  CE2        6.8150   17.7490   12.3610 C.ar   91  TRP91       0.0810
     47  CE3        6.3760   16.7410   10.1990 C.ar   91  TRP91       0.0012
     48  CZ2        7.6830   18.7410   11.7880 C.ar   91  TRP91       0.0191
     49  CZ3        7.2340   17.7220    9.6250 C.ar   91  TRP91       0.0001
     50  CH2        7.8990   18.6880   10.4310 C.ar   91  TRP91       0.0015
     51  N          3.5440   19.3860    7.5760 N.3    94  GLN94      -0.1245
     52  CA         3.5950   18.7820    6.2750 C.3    94  GLN94       0.1566
     53  C          2.5020   17.7360    6.0410 C.2    94  GLN94       0.2260
     54  O          2.7620   16.6150    5.5690 O.2    94  GLN94      -0.2867
     55  CB         5.0260   18.2910    5.9900 C.3    94  GLN94       0.0367
     56  CG         5.9960   19.5070    5.7510 C.3    94  GLN94       0.0905
     57  CD         7.4390   19.0750    5.6860 C.2    94  GLN94       0.2608
     58  OE1        8.0930   18.8690    6.7260 O.2    94  GLN94      -0.2717
     59  NE2        7.9540   18.9140    4.4460 N.am   94  GLN94      -0.0878
     60  N          6.1210   11.9120   16.1790 N.3   135  ASN135     -0.1225
     61  CA         7.0540   13.0240   16.1300 C.3   135  ASN135      0.1785
     62  C          6.4200   14.2240   16.8370 C.2   135  ASN135      0.2597
     63  O          5.3300   14.5950   16.4700 O.2   135  ASN135     -0.2718
     64  CB         7.3260   13.4050   14.6470 C.3   135  ASN135      0.1169
     65  CG         8.6660   14.1510   14.4810 C.2   135  ASN135      0.2627
     66  OD1        9.6260   13.7750   15.1120 O.2   135  ASN135     -0.2716
     67  ND2        8.7160   15.2100   13.6780 N.am  135  ASN135     -0.0877
     68  N          7.0220   14.7490   17.9120 N.am  136  GLU136     -0.1979
     69  CA         6.6250   16.0390   18.5100 C.3   136  GLU136      0.1602
     70  C          5.1640   16.1190   18.9560 C.2   136  GLU136      0.2287
     71  O          4.4320   17.0350   18.5210 O.2   136  GLU136     -0.2864
     72  CB         6.9620   17.2020   17.5320 C.3   136  GLU136      0.0415
     73  CG         8.3470   17.1370   16.9690 C.3   136  GLU136      0.1163
     74  CD         8.6490   18.2480   15.9530 C.2   136  GLU136      0.3649
     75  OE1        7.7150   18.9980   15.5440 O.co2 136  GLU136     -0.2457
     76  OE2        9.8320   18.3450   15.5570 O.co2 136  GLU136     -0.2457
     77  N         12.0270   17.3950   19.9570 N.3   179  TYR179     -0.1241
     78  CA        13.0490   18.4010   20.2350 C.3   179  TYR179      0.1605
     79  C         12.9820   18.9910   21.6330 C.2   179  TYR179      0.2264
     80  O         11.9260   18.9800   22.2880 O.2   179  TYR179     -0.2867
     81  CB        13.0260   19.5710   19.2030 C.3   179  TYR179      0.0534
     82  CG        11.7220   20.3740   19.1990 C.ar  179  TYR179     -0.0201
     83  CD1       11.5710   21.4990   19.9830 C.ar  179  TYR179     -0.0009
     84  CD2       10.6430   19.9910   18.3910 C.ar  179  TYR179     -0.0009
     85  CE1       10.3050   22.1990   19.9910 C.ar  179  TYR179      0.0417
     86  CE2        9.4290   20.6940   18.3700 C.ar  179  TYR179      0.0417
     87  CZ         9.2740   21.7950   19.1740 C.ar  179  TYR179      0.1957
     88  OH         8.0480   22.4680   19.1570 O.3   179  TYR179     -0.2866
     89  N         16.1490   14.9770   19.0510 N.3   211  GLN211     -0.1245
     90  CA        16.5030   15.7130   17.8230 C.3   211  GLN211      0.1566
     91  C         17.8250   16.4640   17.8860 C.2   211  GLN211      0.2260
     92  O         18.5540   16.4680   16.9010 O.2   211  GLN211     -0.2867
     93  CB        15.3610   16.6080   17.3500 C.3   211  GLN211      0.0367
     94  CG        14.1060   15.8330   16.8670 C.3   211  GLN211      0.0905
     95  CD        13.0390   16.8070   16.4470 C.2   211  GLN211      0.2608
     96  OE1       13.2510   18.0340   16.4780 O.2   211  GLN211     -0.2717
     97  NE2       11.8740   16.3000   16.0900 N.am  211  GLN211     -0.0878
     98  N         18.5020   19.6670   17.9700 N.3   213  HIS213     -0.1241
     99  CA        18.5800   20.9750   17.2990 C.3   213  HIS213      0.1621
    100  C         19.0610   22.0460   18.2730 C.2   213  HIS213      0.2264
    101  O         18.2600   22.6670   18.9440 O.2   213  HIS213     -0.2867
    102  CB        17.2350   21.3350   16.6760 C.3   213  HIS213      0.0745
    103  CG        16.8480   20.4570   15.5240 C.ar  213  HIS213      0.0817
    104  ND1       17.6320   20.3310   14.3910 N.ar  213  HIS213     -0.2268
    105  CD2       15.7500   19.6840   15.3180 C.ar  213  HIS213      0.1154
    106  CE1       17.0540   19.4670   13.5740 C.ar  213  HIS213      0.1986
    107  NE2       15.9000   19.0890   14.0990 N.ar  213  HIS213     -0.2212
    108  N         18.5910   14.2880   14.9030 N.3   242  GLU242     -0.1245
    109  CA        18.5430   15.4320   13.9550 C.3   242  GLU242      0.1567
    110  C         19.5600   16.4900   14.2510 C.2   242  GLU242      0.2260
    111  O         19.2890   17.7010   14.1120 O.2   242  GLU242     -0.2867
    112  CB        17.1310   16.0810   13.9170 C.3   242  GLU242      0.0388
    113  CG        16.0190   15.0360   13.7570 C.3   242  GLU242      0.1160
    114  CD        14.6620   15.6410   13.4690 C.2   242  GLU242      0.3649
    115  OE1       14.5420   16.8870   13.3470 O.co2 242  GLU242     -0.2457
    116  OE2       13.7090   14.8360   13.4000 O.co2 242  GLU242     -0.2457
    117  N         21.1970   16.4960   11.0280 N.3   283  TRP283     -0.1241
    118  CA        20.0750   16.7890   10.1600 C.3   283  TRP283      0.1605
    119  C         20.6600   17.3830    8.8670 C.2   283  TRP283      0.2264
    120  O         20.4460   18.5300    8.5510 O.2   283  TRP283     -0.2867
    121  CB        18.9980   17.6070   10.8840 C.3   283  TRP283      0.0550
    122  CG        17.6350   17.5350   10.2730 C.ar  283  TRP283      0.0003
    123  CD1       16.9240   18.5760    9.6920 C.ar  283  TRP283      0.0946
    124  CD2       16.8360   16.3530   10.0730 C.ar  283  TRP283      0.0152
    125  NE1       15.7220   18.1080    9.1880 N.ar  283  TRP283     -0.2442
    126  CE2       15.6530   16.7460    9.3910 C.ar  283  TRP283      0.0810
    127  CE3       17.0030   15.0200   10.3850 C.ar  283  TRP283      0.0012
    128  CZ2       14.6310   15.8180    9.0720 C.ar  283  TRP283      0.0191
    129  CZ3       15.9970   14.1090   10.0700 C.ar  283  TRP283      0.0001
    130  CH2       14.8450   14.4960    9.4450 C.ar  283  TRP283      0.0015
    131  N         18.3580   23.0560    6.7730 N.3   291  TRP291     -0.1241
    132  CA        17.0850   23.7990    6.9960 C.3   291  TRP291      0.1605
    133  C         17.2610   25.0520    7.9280 C.2   291  TRP291      0.2264
    134  O         16.3530   25.9090    7.9790 O.2   291  TRP291     -0.2867
    135  CB        16.0170   22.8310    7.5760 C.3   291  TRP291      0.0550
    136  CG        16.2470   22.5450    9.0720 C.ar  291  TRP291      0.0003
    137  CD1       17.3970   22.1080    9.6750 C.ar  291  TRP291      0.0946
    138  CD2       15.3040   22.7460   10.1360 C.ar  291  TRP291      0.0152
    139  NE1       17.2070   21.9850   11.0440 N.ar  291  TRP291     -0.2442
    140  CE2       15.9360   22.3780   11.3400 C.ar  291  TRP291      0.0810
    141  CE3       13.9830   23.2150   10.1810 C.ar  291  TRP291      0.0012
    142  CZ2       15.2960   22.4660   12.5800 C.ar  291  TRP291      0.0191
    143  CZ3       13.3320   23.2680   11.4050 C.ar  291  TRP291      0.0001
    144  CH2       13.9890   22.9120   12.5830 C.ar  291  TRP291      0.0015
@<TRIPOS>BOND
     1    13    12    2
     2    12    11    1
     3    21    20    2
     4    14    15    1
     5    14    11    1
     6    16    15    2
     7     8     7   ar
     8    15    17   am
     9    11    10    1
    10    10     3   am
    11    20    19    1
    12    18    19    1
    13    59    57   am
    14     1     2    1
    15     5     2    1
    16     5     6    1
    17     7     6    1
    18     7     9   ar
    19    19    22    1
    20     2     3    1
    21     3     4    2
    22    22    23    1
    23    54    53    2
    24    57    56    1
    25    57    58    2
    26    56    55    1
    27    55    52    1
    28    53    52    1
    29    23    24    1
    30    52    51    1
    31    24    25    1
    32   131   132    1
    33   132   135    1
    34   132   133    1
    35    30    29    2
    36    25    26    1
    37   135   136    1
    38   133   134    2
    39    29    28    1
    40   120   119    2
    41    27    28    1
    42   119   118    1
    43   136   137   ar
    44   136   138   ar
    45   128   126   ar
    46   128   130   ar
    47    28    31    1
    48   125   126   ar
    49   125   123   ar
    50    34    32   ar
    51    34    36   ar
    52    31    32    1
    53   126   124   ar
    54   130   129   ar
    55    49    47   ar
    56    49    50   ar
    57   137   139   ar
    58   123   122   ar
    59    32    33   ar
    60   129   127   ar
    61   124   122   ar
    62   124   127   ar
    63   138   141   ar
    64   138   140   ar
    65   118   121    1
    66   118   117    1
    67    36    35   ar
    68   141   143   ar
    69    47    44   ar
    70   122   121    1
    71    50    48   ar
    72   139   140   ar
    73    33    35   ar
    74   140   142   ar
    75   143   144   ar
    76    44    46   ar
    77    44    42   ar
    78    40    39    2
    79    48    46   ar
    80    41    42    1
    81    41    38    1
    82    46    45   ar
    83    39    38    1
    84    42    43   ar
    85    37    38    1
    86   142   144   ar
    87   115   114   ar
    88   116   114   ar
    89   114   113    1
    90   106   107   ar
    91   106   104   ar
    92    45    43   ar
    93    67    65   am
    94   113   112    1
    95   112   109    1
    96   109   110    1
    97   109   108    1
    98   107   105   ar
    99   111   110    2
   100   104   103   ar
   101    65    64    1
   102    65    66    2
   103    64    61    1
   104   105   103   ar
   105   103   102    1
   106    75    74   ar
   107    76    74   ar
   108    74    73    1
   109    97    95   am
   110    61    60    1
   111    61    62    1
   112    95    96    2
   113    95    94    1
   114    63    62    2
   115   102    99    1
   116    62    68   am
   117    94    93    1
   118    92    91    2
   119    73    72    1
   120    99    98    1
   121    99   100    1
   122    93    90    1
   123    72    69    1
   124    90    91    1
   125    90    89    1
   126    68    69    1
   127   100   101    2
   128    86    84   ar
   129    86    87   ar
   130    84    82   ar
   131    69    70    1
   132    71    70    2
   133    88    87    1
   134    87    85   ar
   135    82    81    1
   136    82    83   ar
   137    81    78    1
   138    77    78    1
   139    83    85   ar
   140    78    79    1
   141    79    80    2
