@<TRIPOS>MOLECULE
tmp/3nj4A01.pdb
 181 170 0 0 0
SMALL
GASTEIGER

@<TRIPOS>ATOM
      1  N         30.7170   30.4540  113.7480 N.3    53  LEU53      -0.1231
      2  CA        29.8620   29.6230  112.9160 C.3    53  LEU53       0.1693
      3  C         28.3910   30.0420  113.0310 C.2    53  LEU53       0.2592
      4  O         27.9080   30.3600  114.1200 O.2    53  LEU53      -0.2718
      5  CB        30.0390   28.1600  113.3410 C.3    53  LEU53       0.0284
      6  CG        29.5450   26.9990  112.4750 C.3    53  LEU53       0.0019
      7  CD1       30.1960   25.7060  112.9580 C.3    53  LEU53       0.0001
      8  CD2       28.0310   26.8940  112.5280 C.3    53  LEU53       0.0001
      9  N         27.7000   30.0330  111.8920 N.am   54  HIS54      -0.1976
     10  CA        26.2830   30.3940  111.7700 C.3    54  HIS54       0.1656
     11  C         25.5240   30.1850  113.0580 C.2    54  HIS54       0.2291
     12  O         25.1720   29.0580  113.4040 O.2    54  HIS54      -0.2864
     13  CB        25.6380   29.5550  110.6530 C.3    54  HIS54       0.0771
     14  CG        26.4350   29.5440  109.3880 C.ar   54  HIS54       0.0820
     15  ND1       26.2240   30.4390  108.3600 N.ar   54  HIS54      -0.2267
     16  CD2       27.5120   28.8100  109.0290 C.ar   54  HIS54       0.1154
     17  CE1       27.1370   30.2580  107.4240 C.ar   54  HIS54       0.1986
     18  NE2       27.9320   29.2750  107.8060 N.ar   54  HIS54      -0.2212
     19  N         22.8640   29.4910  114.8450 N.3    56  THR56      -0.1218
     20  CA        21.5350   28.9580  114.6200 C.3    56  THR56       0.1862
     21  C         21.1100   28.0370  115.7500 C.2    56  THR56       0.2287
     22  O         21.8780   27.7730  116.6760 O.2    56  THR56      -0.2866
     23  CB        21.5150   28.1510  113.3280 C.3    56  THR56       0.1770
     24  OG1       22.4450   27.0620  113.4480 O.3    56  THR56      -0.2211
     25  CG2       21.9230   29.0250  112.1590 C.3    56  THR56       0.0375
     26  N         20.6910   24.8380  115.6580 N.3    58  GLU58      -0.1231
     27  CA        21.6020   23.6930  115.6680 C.3    58  GLU58       0.1699
     28  C         22.9150   24.0670  116.3600 C.2    58  GLU58       0.2592
     29  O         23.4080   23.3360  117.2240 O.2    58  GLU58      -0.2718
     30  CB        21.9090   23.2120  114.2390 C.3    58  GLU58       0.0402
     31  CG        20.7270   22.6230  113.4740 C.3    58  GLU58       0.1161
     32  CD        19.5500   23.5650  113.3790 C.2    58  GLU58       0.3649
     33  OE1       19.7740   24.7670  113.1130 O.co2  58  GLU58      -0.2457
     34  OE2       18.4030   23.1080  113.5660 O.co2  58  GLU58      -0.2457
     35  N         23.4780   25.2070  115.9650 N.am   59  THR59      -0.1953
     36  CA        24.7240   25.6810  116.5500 C.3    59  THR59       0.1897
     37  C         24.5660   25.9450  118.0480 C.2    59  THR59       0.2313
     38  O         25.5230   25.7990  118.8130 O.2    59  THR59      -0.2863
     39  CB        25.2050   26.9740  115.8740 C.3    59  THR59       0.1794
     40  OG1       25.4790   26.7160  114.4910 O.3    59  THR59      -0.2208
     41  CG2       26.4670   27.4980  116.5530 C.3    59  THR59       0.0378
     42  N         34.4190   28.0370  110.4940 N.3   130  ASP130     -0.1239
     43  CA        33.5430   27.5880  109.4140 C.3   130  ASP130      0.1674
     44  C         33.7190   28.6300  108.3270 C.2   130  ASP130      0.2266
     45  O         33.0060   29.6250  108.3230 O.2   130  ASP130     -0.2867
     46  CB        32.0860   27.6030  109.8560 C.3   130  ASP130      0.1410
     47  CG        31.1590   26.9830  108.8270 C.2   130  ASP130      0.3668
     48  OD1       31.3770   27.1910  107.6140 O.co2 130  ASP130     -0.2456
     49  OD2       30.2030   26.2890  109.2430 O.co2 130  ASP130     -0.2456
     50  N         34.7500   23.6180  109.6620 N.3   155  GLU155     -0.1231
     51  CA        33.4520   23.0020  109.4260 C.3   155  GLU155      0.1699
     52  C         33.1390   22.7550  107.9590 C.2   155  GLU155      0.2592
     53  O         32.6500   21.6830  107.5820 O.2   155  GLU155     -0.2718
     54  CB        32.3530   23.8940  109.9920 C.3   155  GLU155      0.0402
     55  CG        31.6480   23.3270  111.1950 C.3   155  GLU155      0.1161
     56  CD        30.9620   22.0130  110.8810 C.2   155  GLU155      0.3649
     57  OE1       30.0630   22.0030  110.0120 O.co2 155  GLU155     -0.2457
     58  OE2       31.3240   20.9910  111.5100 O.co2 155  GLU155     -0.2457
     59  N         33.4270   23.7540  107.1340 N.am  156  THR156     -0.1953
     60  CA        33.1000   23.6670  105.7240 C.3   156  THR156      0.1897
     61  C         34.2670   23.5160  104.7570 C.2   156  THR156      0.2313
     62  O         35.4170   23.8560  105.0680 O.2   156  THR156     -0.2863
     63  CB        32.2570   24.8860  105.3070 C.3   156  THR156      0.1794
     64  OG1       31.4860   24.5510  104.1520 O.3   156  THR156     -0.2208
     65  CG2       33.1600   26.0870  104.9970 C.3   156  THR156      0.0378
     66  N         35.2970   18.9340  107.8710 N.3   180  ASN180     -0.1240
     67  CA        34.4440   18.8280  106.6830 C.3   180  ASN180      0.1653
     68  C         34.6620   17.5510  105.8910 C.2   180  ASN180      0.2266
     69  O         33.7060   16.8890  105.4920 O.2   180  ASN180     -0.2867
     70  CB        34.6610   20.0100  105.7440 C.3   180  ASN180      0.1155
     71  CG        33.8350   19.8990  104.4690 C.2   180  ASN180      0.2627
     72  OD1       34.1120   19.0660  103.5960 O.2   180  ASN180     -0.2716
     73  ND2       32.8030   20.7380  104.3610 N.am  180  ASN180     -0.0877
     74  N         30.4780   13.7940  107.6650 N.3   185  LYS185     -0.1245
     75  CA        30.1930   15.2150  107.4510 C.3   185  LYS185      0.1561
     76  C         29.9070   15.5670  105.9890 C.2   185  LYS185      0.2260
     77  O         28.7750   15.8570  105.6290 O.2   185  LYS185     -0.2867
     78  CB        31.3510   16.0780  107.9500 C.3   185  LYS185      0.0271
     79  CG        30.9500   17.5160  108.2560 C.3   185  LYS185      0.0035
     80  CD        30.6880   18.3350  107.0090 C.3   185  LYS185      0.0206
     81  CE        30.3080   19.7680  107.3730 C.3   185  LYS185      0.1093
     82  NZ        30.1570   20.6500  106.1720 N.3   185  LYS185     -0.1314
     83  N         26.1740   16.0310  105.4510 N.3   189  ASP189     -0.1225
     84  CA        25.8450   17.4340  105.6360 C.3   189  ASP189      0.1805
     85  C         25.7450   18.1650  104.3040 C.2   189  ASP189      0.2597
     86  O         24.7440   18.8360  104.0220 O.2   189  ASP189     -0.2718
     87  CB        26.9230   18.0980  106.5170 C.3   189  ASP189      0.1424
     88  CG        26.7410   19.6020  106.6520 C.2   189  ASP189      0.3668
     89  OD1       26.7370   20.3100  105.6200 O.co2 189  ASP189     -0.2456
     90  OD2       26.6150   20.0810  107.8010 O.co2 189  ASP189     -0.2456
     91  N         26.7790   18.0330  103.4830 N.am  190  ASN190     -0.1974
     92  CA        26.8000   18.7040  102.1970 C.3   190  ASN190      0.1688
     93  C         25.7640   18.1180  101.2370 C.2   190  ASN190      0.2292
     94  O         25.0340   18.8520  100.5460 O.2   190  ASN190     -0.2864
     95  CB        28.2100   18.6180  101.5760 C.3   190  ASN190      0.1181
     96  CG        29.3180   19.1610  102.5030 C.2   190  ASN190      0.2629
     97  OD1       30.3520   19.6180  102.0350 O.2   190  ASN190     -0.2716
     98  ND2       29.1040   19.0920  103.8080 N.am  190  ASN190     -0.0877
     99  N         24.7510   28.9460   97.1120 N.3   298  ILE298     -0.1245
    100  CA        24.7450   28.1530   98.3250 C.3   298  ILE298      0.1561
    101  C         26.1790   27.8560   98.7760 C.2   298  ILE298      0.2260
    102  O         26.4010   27.1280   99.7390 O.2   298  ILE298     -0.2867
    103  CB        23.9290   26.8490   98.1120 C.3   298  ILE298      0.0252
    104  CG1       23.6530   26.1910   99.4650 C.3   298  ILE298      0.0019
    105  CG2       24.6560   25.9190   97.1550 C.3   298  ILE298      0.0019
    106  CD1       22.3970   25.3230   99.4880 C.3   298  ILE298      0.0001
    107  N         29.8360   28.7640  100.4200 N.3   300  HIS300     -0.1241
    108  CA        30.1450   29.5190  101.6230 C.3   300  HIS300      0.1621
    109  C         30.2120   31.0490  101.4850 C.2   300  HIS300      0.2264
    110  O         29.4740   31.7760  102.1520 O.2   300  HIS300     -0.2867
    111  CB        31.4400   29.0180  102.2400 C.3   300  HIS300      0.0745
    112  CG        31.7750   29.7060  103.5220 C.ar  300  HIS300      0.0817
    113  ND1       31.0690   29.4900  104.6860 N.ar  300  HIS300     -0.2268
    114  CD2       32.6780   30.6760  103.7980 C.ar  300  HIS300      0.1154
    115  CE1       31.5240   30.3020  105.6230 C.ar  300  HIS300      0.1986
    116  NE2       32.5000   31.0320  105.1100 N.ar  300  HIS300     -0.2212
    117  N         24.8610   32.5750  100.9920 N.3   343  LEU343     -0.1245
    118  CA        24.2870   31.2320  101.0620 C.3   343  LEU343      0.1561
    119  C         22.8030   31.3020  101.3790 C.2   343  LEU343      0.2260
    120  O         22.4010   31.7020  102.4790 O.2   343  LEU343     -0.2867
    121  CB        25.0370   30.3750  102.0900 C.3   343  LEU343      0.0270
    122  CG        24.9810   30.6160  103.6030 C.3   343  LEU343      0.0019
    123  CD1       25.7060   29.4890  104.2880 C.3   343  LEU343      0.0001
    124  CD2       25.6030   31.9370  103.9800 C.3   343  LEU343      0.0001
    125  N         20.4620   28.8430  101.7160 N.3   345  ASN345     -0.1225
    126  CA        19.8200   27.9190  102.6480 C.3   345  ASN345      0.1785
    127  C         19.7230   28.5140  104.0590 C.2   345  ASN345      0.2597
    128  O         18.7470   28.2740  104.7750 O.2   345  ASN345     -0.2718
    129  CB        20.5620   26.5850  102.6810 C.3   345  ASN345      0.1169
    130  CG        21.9610   26.7090  103.2280 C.2   345  ASN345      0.2627
    131  OD1       22.3840   25.8810  104.0340 O.2   345  ASN345     -0.2716
    132  ND2       22.6970   27.7390  102.7890 N.am  345  ASN345     -0.0877
    133  N         20.7250   29.3000  104.4490 N.am  346  LEU346     -0.1980
    134  CA        20.7300   29.9470  105.7600 C.3   346  LEU346      0.1596
    135  C         20.2160   31.3760  105.6390 C.2   346  LEU346      0.2287
    136  O         19.5890   31.8990  106.5680 O.2   346  LEU346     -0.2864
    137  CB        22.1500   29.9690  106.3520 C.3   346  LEU346      0.0297
    138  CG        22.5840   28.6910  107.0680 C.3   346  LEU346      0.0022
    139  CD1       24.0830   28.6370  107.1160 C.3   346  LEU346      0.0001
    140  CD2       21.9760   28.6460  108.4780 C.3   346  LEU346      0.0001
    141  N         16.2980   28.1890  107.4430 N.3   350  MET350     -0.1230
    142  CA        16.8940   27.7870  108.7100 C.3   350  MET350      0.1702
    143  C         18.0830   26.8490  108.5430 C.2   350  MET350      0.2593
    144  O         18.4390   26.1170  109.4690 O.2   350  MET350     -0.2718
    145  CB        15.8310   27.1120  109.5740 C.3   350  MET350      0.0401
    146  CG        14.5960   27.9650  109.7730 C.3   350  MET350      0.0596
    147  SD        15.0030   29.4420  110.6930 S.3   350  MET350     -0.1393
    148  CE        14.9570   28.8230  112.4220 C.3   350  MET350      0.0692
    149  N         18.7020   26.8780  107.3690 N.am  351  GLY351     -0.1942
    150  CA        19.8330   25.9970  107.1350 C.3   351  GLY351      0.2014
    151  C         19.3740   24.5470  107.1340 C.2   351  GLY351      0.2638
    152  O         18.1740   24.2760  107.0060 O.2   351  GLY351     -0.2714
    153  N         20.3240   23.6240  107.2760 N.am  352  HIS352     -0.1973
    154  CA        20.0200   22.1900  107.2960 C.3   352  HIS352      0.1656
    155  C         19.2610   21.8120  108.5740 C.2   352  HIS352      0.2291
    156  O         19.4080   22.4510  109.6130 O.2   352  HIS352     -0.2864
    157  CB        21.3070   21.3550  107.2390 C.3   352  HIS352      0.0771
    158  CG        22.1600   21.6240  106.0420 C.ar  352  HIS352      0.0820
    159  ND1       23.4630   21.1900  105.9540 N.ar  352  HIS352     -0.2267
    160  CD2       21.9030   22.2820  104.8890 C.ar  352  HIS352      0.1154
    161  CE1       23.9760   21.5710  104.7970 C.ar  352  HIS352      0.1986
    162  NE2       23.0490   22.2360  104.1330 N.ar  352  HIS352     -0.2212
    163  N         22.8000   17.9540  111.0300 N.3   357  MET357     -0.1245
    164  CA        23.7710   18.8570  111.6460 C.3   357  MET357      0.1570
    165  C         24.4520   18.2180  112.8490 C.2   357  MET357      0.2261
    166  O         25.5840   18.5670  113.1940 O.2   357  MET357     -0.2867
    167  CB        23.1020   20.1770  112.0280 C.3   357  MET357      0.0387
    168  CG        22.7830   21.0520  110.8110 C.3   357  MET357      0.0595
    169  SD        24.1720   21.0930  109.6280 S.3   357  MET357     -0.1393
    170  CE        25.5140   21.7410  110.6550 C.3   357  MET357      0.0692
    171  N         28.3100   18.5480  113.8110 N.3   361  PHE361     -0.1241
    172  CA        28.7420   19.0210  115.1150 C.3   361  PHE361      0.1605
    173  C         29.3260   17.9390  116.0220 C.2   361  PHE361      0.2264
    174  O         30.1540   18.2430  116.8840 O.2   361  PHE361     -0.2867
    175  CB        27.6010   19.7350  115.8230 C.3   361  PHE361      0.0534
    176  CG        27.1160   20.9570  115.0990 C.ar  361  PHE361     -0.0203
    177  CD1       27.9530   21.6420  114.2220 C.ar  361  PHE361     -0.0042
    178  CD2       25.8380   21.4460  115.3310 C.ar  361  PHE361     -0.0042
    179  CE1       27.5180   22.8030  113.5830 C.ar  361  PHE361     -0.0003
    180  CE2       25.3930   22.6000  114.6990 C.ar  361  PHE361     -0.0003
    181  CZ        26.2380   23.2850  113.8240 C.ar  361  PHE361     -0.0000
@<TRIPOS>BOND
     1    99   100    1
     2   105   103    1
     3   103   100    1
     4   103   104    1
     5   100   101    1
     6   101   102    2
     7   104   106    1
     8   107   108    1
     9    94    93    2
    10   117   118    1
    11   118   119    1
    12   118   121    1
    13    93    92    1
    14   119   120    2
    15   109   108    1
    16   109   110    2
    17    95    92    1
    18    95    96    1
    19   108   111    1
    20   125   126    1
    21    97    96    2
    22   121   122    1
    23    92    91    1
    24   111   112    1
    25    96    98   am
    26   126   129    1
    27   126   127    1
    28   129   130    1
    29   132   130   am
    30   130   131    2
    31    91    85   am
    32   112   114   ar
    33   112   113   ar
    34    72    71    2
    35   122   124    1
    36   122   123    1
    37   114   116   ar
    38    86    85    2
    39   127   133   am
    40   127   128    2
    41   162   161   ar
    42   162   160   ar
    43    64    63    1
    44    85    84    1
    45    73    71   am
    46   133   134    1
    47    71    70    1
    48   113   115   ar
    49    61    62    2
    50    61    60    1
    51   161   159   ar
    52   160   158   ar
    53    65    63    1
    54   116   115   ar
    55    63    60    1
    56    83    84    1
    57    69    68    2
    58    89    88   ar
    59    77    76    2
    60    84    87    1
    61   135   134    1
    62   135   136    2
    63    60    59    1
    64    70    67    1
    65   134   137    1
    66    68    67    1
    67   159   158   ar
    68    76    75    1
    69   158   157    1
    70    82    81    1
    71   137   138    1
    72    87    88    1
    73    88    90   ar
    74    67    66    1
    75   152   151    2
    76    80    81    1
    77    80    79    1
    78   138   139    1
    79   138   140    1
    80   151   150    1
    81   151   153   am
    82    59    52   am
    83   150   149    1
    84   157   154    1
    85   153   154    1
    86   154   155    1
    87   149   143   am
    88    17    18   ar
    89    17    15   ar
    90   141   142    1
    91    75    74    1
    92    75    78    1
    93    53    52    2
    94    48    47   ar
    95    18    16   ar
    96    78    79    1
    97    52    51    1
    98    45    44    2
    99    44    43    1
   100    15    14   ar
   101   143   142    1
   102   143   144    2
   103   155   156    2
   104   142   145    1
   105    47    49   ar
   106    47    46    1
   107    16    14   ar
   108    14    13    1
   109    43    46    1
   110    43    42    1
   111    51    50    1
   112    51    54    1
   113   145   146    1
   114   169   170    1
   115   169   168    1
   116   146   147    1
   117    54    55    1
   118    57    56   ar
   119    13    10    1
   120   147   148    1
   121   168   167    1
   122    56    55    1
   123    56    58   ar
   124   163   164    1
   125   164   167    1
   126   164   165    1
   127    10     9    1
   128    10    11    1
   129     9     3   am
   130    25    23    1
   131     6     8    1
   132     6     7    1
   133     6     5    1
   134   165   166    2
   135     2     3    1
   136     2     5    1
   137     2     1    1
   138     3     4    2
   139    11    12    2
   140    33    32   ar
   141    23    24    1
   142    23    20    1
   143    32    31    1
   144    32    34   ar
   145    31    30    1
   146   179   181   ar
   147   179   177   ar
   148   171   172    1
   149   181   180   ar
   150   177   176   ar
   151    30    27    1
   152    40    39    1
   153    20    19    1
   154    20    21    1
   155   180   178   ar
   156   176   178   ar
   157   176   175    1
   158   172   175    1
   159   172   173    1
   160    26    27    1
   161    27    28    1
   162    21    22    2
   163    39    36    1
   164    39    41    1
   165    35    28   am
   166    35    36    1
   167   173   174    2
   168    28    29    2
   169    36    37    1
   170    37    38    2
