@<TRIPOS>MOLECULE
tmp/3nj8A01.pdb
 171 162 0 0 0
SMALL
GASTEIGER

@<TRIPOS>ATOM
      1  N         22.7380   48.1990   61.6860 N.3    21  TYR21      -0.1241
      2  CA        23.5680   47.4980   60.7170 C.3    21  TYR21       0.1605
      3  C         23.1940   46.0260   60.6770 C.2    21  TYR21       0.2264
      4  O         23.1930   45.4050   59.6170 O.2    21  TYR21      -0.2867
      5  CB        25.0510   47.6400   61.0610 C.3    21  TYR21       0.0534
      6  CG        25.6260   49.0130   60.7930 C.ar   21  TYR21      -0.0201
      7  CD1       25.6810   49.5250   59.5040 C.ar   21  TYR21      -0.0009
      8  CD2       26.1310   49.7890   61.8280 C.ar   21  TYR21      -0.0009
      9  CE1       26.2110   50.7770   59.2540 C.ar   21  TYR21       0.0417
     10  CE2       26.6670   51.0400   61.5880 C.ar   21  TYR21       0.0417
     11  CZ        26.7040   51.5290   60.2990 C.ar   21  TYR21       0.1957
     12  OH        27.2340   52.7740   60.0520 O.3    21  TYR21      -0.2866
     13  N         26.4990   41.4050   65.7670 N.3   125  SER125     -0.1202
     14  CA        26.0810   42.7920   65.6300 C.3   125  SER125      0.2020
     15  C         25.3360   43.2450   66.8770 C.2   125  SER125      0.2619
     16  O         24.1100   43.3800   66.8680 O.2   125  SER125     -0.2717
     17  CB        25.2010   42.9640   64.3910 C.3   125  SER125      0.2103
     18  OG        24.7660   44.3050   64.2540 O.3   125  SER125     -0.2182
     19  N         26.0830   43.4720   67.9520 N.am  126  LEU126     -0.1965
     20  CA        25.4910   43.8950   69.2130 C.3   126  LEU126      0.1728
     21  C         26.5400   44.4930   70.1420 C.2   126  LEU126      0.2616
     22  O         27.7410   44.2410   69.9890 O.2   126  LEU126     -0.2715
     23  CB        24.7890   42.7190   69.8930 C.3   126  LEU126      0.0311
     24  CG        25.6710   41.5550   70.3460 C.3   126  LEU126      0.0022
     25  CD1       26.2910   41.8440   71.7050 C.3   126  LEU126      0.0001
     26  CD2       24.8520   40.2760   70.3950 C.3   126  LEU126      0.0001
     27  N         26.0730   45.2860   71.1020 N.am  127  ALA127     -0.1963
     28  CA        26.9400   45.9530   72.0660 C.3   127  ALA127      0.1728
     29  C         26.0660   46.6340   73.1070 C.2   127  ALA127      0.2616
     30  O         24.9060   46.9440   72.8330 O.2   127  ALA127     -0.2715
     31  CB        27.8300   46.9690   71.3680 C.3   127  ALA127      0.0334
     32  N         26.6120   46.8570   74.2990 N.am  128  ASN128     -0.1958
     33  CA        25.8370   47.4350   75.3960 C.3   128  ASN128      0.1819
     34  C         26.7210   47.9540   76.5230 C.2   128  ASN128      0.2621
     35  O         27.3660   47.1760   77.2240 O.2   128  ASN128     -0.2715
     36  CB        24.8350   46.4070   75.9410 C.3   128  ASN128      0.1195
     37  CG        23.8560   47.0050   76.9440 C.2   128  ASN128      0.2630
     38  OD1       24.1380   48.0140   77.5900 O.2   128  ASN128     -0.2716
     39  ND2       22.6970   46.3730   77.0800 N.am  128  ASN128     -0.0877
     40  N         26.7400   49.2730   76.6930 N.am  129  GLY129     -0.1954
     41  CA        27.5110   49.9070   77.7560 C.3   129  GLY129      0.1869
     42  C         26.6930   50.9560   78.4810 C.2   129  GLY129      0.2309
     43  O         26.5210   52.0670   77.9810 O.2   129  GLY129     -0.2863
     44  N         27.9170   54.7100   78.7260 N.3   132  VAL132     -0.1245
     45  CA        28.5040   55.2160   77.4900 C.3   132  VAL132      0.1561
     46  C         28.4210   56.7410   77.3600 C.2   132  VAL132      0.2260
     47  O         29.1670   57.3450   76.5900 O.2   132  VAL132     -0.2867
     48  CB        27.8530   54.5470   76.2610 C.3   132  VAL132      0.0252
     49  CG1       26.4060   55.0150   76.0980 C.3   132  VAL132      0.0019
     50  CG2       28.6650   54.8270   75.0050 C.3   132  VAL132      0.0019
     51  N         32.8740   47.2180   64.8530 N.3   176  SER176     -0.1202
     52  CA        33.6290   48.0930   65.7350 C.3   176  SER176      0.2020
     53  C         33.4700   49.5530   65.3410 C.2   176  SER176      0.2618
     54  O         32.9240   49.8670   64.2830 O.2   176  SER176     -0.2717
     55  CB        35.1100   47.6990   65.7340 C.3   176  SER176      0.2103
     56  OG        35.8820   48.6220   66.4760 O.3   176  SER176     -0.2182
     57  N         33.9460   50.4400   66.2070 N.am  177  TYR177     -0.1975
     58  CA        33.9830   51.8620   65.9100 C.3   177  TYR177      0.1639
     59  C         35.3970   52.4120   66.0800 C.2   177  TYR177      0.2290
     60  O         36.1670   51.9320   66.9100 O.2   177  TYR177     -0.2864
     61  CB        33.0020   52.6250   66.7960 C.3   177  TYR177      0.0560
     62  CG        33.0070   54.1160   66.5630 C.ar  177  TYR177     -0.0198
     63  CD1       32.8580   54.6370   65.2860 C.ar  177  TYR177     -0.0009
     64  CD2       33.1500   55.0050   67.6230 C.ar  177  TYR177     -0.0009
     65  CE1       32.8600   55.9990   65.0650 C.ar  177  TYR177      0.0417
     66  CE2       33.1540   56.3740   67.4140 C.ar  177  TYR177      0.0417
     67  CZ        33.0070   56.8650   66.1310 C.ar  177  TYR177      0.1957
     68  OH        33.0060   58.2250   65.9040 O.3   177  TYR177     -0.2866
     69  N         37.6030   59.1730   70.4640 N.3   184  VAL184     -0.1245
     70  CA        36.4260   59.8870   70.0010 C.3   184  VAL184      0.1561
     71  C         35.6250   60.2940   71.2290 C.2   184  VAL184      0.2260
     72  O         34.9370   59.4630   71.8260 O.2   184  VAL184     -0.2867
     73  CB        35.5560   59.0350   69.0650 C.3   184  VAL184      0.0252
     74  CG1       34.4070   59.8710   68.5140 C.3   184  VAL184      0.0019
     75  CG2       36.3950   58.4730   67.9290 C.3   184  VAL184      0.0019
     76  N         32.0560   59.0530   73.2860 N.3   187  TYR187     -0.1241
     77  CA        31.8880   57.6070   73.2080 C.3   187  TYR187      0.1605
     78  C         32.5710   57.0020   74.4260 C.2   187  TYR187      0.2264
     79  O         33.7000   56.5110   74.3410 O.2   187  TYR187     -0.2867
     80  CB        32.5140   57.0750   71.9150 C.3   187  TYR187      0.0534
     81  CG        32.2200   55.6200   71.5850 C.ar  187  TYR187     -0.0201
     82  CD1       31.0240   55.2480   70.9780 C.ar  187  TYR187     -0.0009
     83  CD2       33.1550   54.6260   71.8480 C.ar  187  TYR187     -0.0009
     84  CE1       30.7630   53.9190   70.6580 C.ar  187  TYR187      0.0417
     85  CE2       32.9040   53.3020   71.5320 C.ar  187  TYR187      0.0417
     86  CZ        31.7100   52.9540   70.9390 C.ar  187  TYR187      0.1957
     87  OH        31.4690   51.6350   70.6290 O.3   187  TYR187     -0.2866
     88  N         33.2820   51.8060   76.3880 N.3   191  MET191     -0.1245
     89  CA        32.9990   51.2250   75.0800 C.3   191  MET191      0.1570
     90  C         34.2260   51.2830   74.1710 C.2   191  MET191      0.2261
     91  O         34.5310   50.3200   73.4700 O.2   191  MET191     -0.2867
     92  CB        31.7910   51.8970   74.4180 C.3   191  MET191      0.0387
     93  CG        30.4430   51.5310   75.0300 C.3   191  MET191      0.0595
     94  SD        29.9840   49.8010   74.8090 S.3   191  MET191     -0.1393
     95  CE        29.8560   49.6970   73.0300 C.3   191  MET191      0.0692
     96  N         35.6180   47.9410   72.4780 N.3   195  LYS195     -0.1245
     97  CA        35.7960   47.7070   71.0500 C.3   195  LYS195      0.1561
     98  C         37.2460   47.3590   70.7200 C.2   195  LYS195      0.2260
     99  O         37.5170   46.6370   69.7630 O.2   195  LYS195     -0.2867
    100  CB        35.3540   48.9310   70.2450 C.3   195  LYS195      0.0271
    101  CG        33.8700   49.2220   70.3370 C.3   195  LYS195      0.0035
    102  CD        33.0670   48.1630   69.6080 C.3   195  LYS195      0.0206
    103  CE        31.6220   48.1460   70.0750 C.3   195  LYS195      0.1093
    104  NZ        30.8710   46.9930   69.4950 N.3   195  LYS195     -0.1314
    105  N         31.4370   53.5730   60.2130 N.3   223  GLY223     -0.1210
    106  CA        31.1460   54.9490   60.5800 C.3   223  GLY223      0.1940
    107  C         29.7970   55.0370   61.2690 C.2   223  GLY223      0.2454
    108  O         29.1410   54.0180   61.4910 O.2   223  GLY223     -0.2732
    109  N         29.3710   56.2640   61.6070 N.am  224  PRO224     -0.2717
    110  CA        28.1450   56.5450   62.3540 C.3   224  PRO224      0.1535
    111  C         26.8660   56.2970   61.5630 C.2   224  PRO224      0.2598
    112  O         26.7830   56.6510   60.3910 O.2   224  PRO224     -0.2715
    113  CB        28.2690   58.0370   62.6720 C.3   224  PRO224      0.0310
    114  CG        29.1450   58.5790   61.6030 C.3   224  PRO224      0.0237
    115  CD        30.1310   57.4920   61.3150 C.3   224  PRO224      0.0939
    116  N         25.8750   55.7050   62.2220 N.am  225  LEU225     -0.1978
    117  CA        24.5870   55.4100   61.6050 C.3   225  LEU225      0.1596
    118  C         23.4630   55.6210   62.6060 C.2   225  LEU225      0.2287
    119  O         23.5230   55.1230   63.7320 O.2   225  LEU225     -0.2864
    120  CB        24.5570   53.9630   61.1170 C.3   225  LEU225      0.0297
    121  CG        23.1880   53.3820   60.7530 C.3   225  LEU225      0.0022
    122  CD1       22.8110   53.7620   59.3270 C.3   225  LEU225      0.0001
    123  CD2       23.1830   51.8700   60.9230 C.3   225  LEU225      0.0001
    124  N         20.7350   54.6020   64.3020 N.3   227  SER227     -0.1217
    125  CA        20.0090   53.3870   64.6240 C.3   227  SER227      0.1889
    126  C         19.3790   53.5950   65.9900 C.2   227  SER227      0.2288
    127  O         19.7700   54.5030   66.7210 O.2   227  SER227     -0.2866
    128  CB        20.9670   52.1950   64.6590 C.3   227  SER227      0.2089
    129  OG        21.9540   52.3670   65.6630 O.3   227  SER227     -0.2183
    130  N         19.8760   52.1040   68.6670 N.3   229  ALA229     -0.1231
    131  CA        20.9540   52.0580   69.6560 C.3   229  ALA229      0.1694
    132  C         21.7750   53.3400   69.7250 C.2   229  ALA229      0.2591
    133  O         22.2560   53.7190   70.7930 O.2   229  ALA229     -0.2718
    134  CB        21.8610   50.8720   69.3920 C.3   229  ALA229      0.0304
    135  N         21.9450   54.0010   68.5870 N.am  230  ALA230     -0.1980
    136  CA        22.7040   55.2450   68.5400 C.3   230  ALA230      0.1597
    137  C         21.9050   56.4020   69.1350 C.2   230  ALA230      0.2287
    138  O         22.4030   57.1420   69.9800 O.2   230  ALA230     -0.2864
    139  CB        23.1210   55.5610   67.1090 C.3   230  ALA230      0.0319
    140  N         22.1250   57.0350   72.6780 N.3   233  ILE233     -0.1245
    141  CA        23.2970   57.6990   73.2360 C.3   233  ILE233      0.1561
    142  C         22.9420   59.1400   73.5900 C.2   233  ILE233      0.2260
    143  O         22.6250   59.9470   72.7140 O.2   233  ILE233     -0.2867
    144  CB        24.4920   57.6840   72.2660 C.3   233  ILE233      0.0252
    145  CG1       25.0830   56.2760   72.1600 C.3   233  ILE233      0.0019
    146  CG2       25.5510   58.6740   72.7180 C.3   233  ILE233      0.0019
    147  CD1       26.1210   56.1250   71.0640 C.3   233  ILE233      0.0001
    148  N         23.7060   63.1620   69.8270 N.3   238  PHE238     -0.1227
    149  CA        25.1510   62.9750   69.8140 C.3   238  PHE238      0.1736
    150  C         25.5570   62.2400   68.5480 C.2   238  PHE238      0.2595
    151  O         26.6220   62.4900   67.9840 O.2   238  PHE238     -0.2718
    152  CB        25.6230   62.1830   71.0340 C.3   238  PHE238      0.0547
    153  CG        27.0590   61.7380   70.9450 C.ar  238  PHE238     -0.0202
    154  CD1       28.0910   62.6320   71.1800 C.ar  238  PHE238     -0.0042
    155  CD2       27.3770   60.4290   70.6170 C.ar  238  PHE238     -0.0042
    156  CE1       29.4130   62.2260   71.0940 C.ar  238  PHE238     -0.0003
    157  CE2       28.6970   60.0170   70.5310 C.ar  238  PHE238     -0.0003
    158  CZ        29.7150   60.9150   70.7700 C.ar  238  PHE238     -0.0000
    159  N         24.7000   61.3230   68.1110 N.am  239  ILE239     -0.1980
    160  CA        24.9340   60.5760   66.8830 C.3   239  ILE239      0.1595
    161  C         24.8700   61.4920   65.6590 C.2   239  ILE239      0.2287
    162  O         25.6320   61.3240   64.7070 O.2   239  ILE239     -0.2864
    163  CB        23.9270   59.4130   66.7320 C.3   239  ILE239      0.0276
    164  CG1       24.0270   58.7880   65.3370 C.3   239  ILE239      0.0022
    165  CG2       22.5090   59.8850   67.0210 C.3   239  ILE239      0.0022
    166  CD1       25.3160   58.0260   65.1040 C.3   239  ILE239      0.0001
    167  N         28.0330   63.4390   64.9640 N.3   242  ALA242     -0.1245
    168  CA        28.9950   62.5190   64.3590 C.3   242  ALA242      0.1562
    169  C         28.7370   62.3690   62.8640 C.2   242  ALA242      0.2260
    170  O         29.6260   62.6080   62.0480 O.2   242  ALA242     -0.2867
    171  CB        28.9450   61.1660   65.0480 C.3   242  ALA242      0.0290
@<TRIPOS>BOND
     1     9     7   ar
     2     9    11   ar
     3   122   121    1
     4     7     6   ar
     5     4     3    2
     6    12    11    1
     7   105   106    1
     8    11    10   ar
     9   112   111    2
    10   106   107    1
    11     3     2    1
    12     2     5    1
    13     2     1    1
    14   121   123    1
    15   121   120    1
    16     6     5    1
    17     6     8   ar
    18   120   117    1
    19   107   108    2
    20   107   109   am
    21   115   114    1
    22   115   109    1
    23   111   116   am
    24   111   110    1
    25    10     8   ar
    26   114   113    1
    27   117   116    1
    28   117   118    1
    29   109   110    1
    30   170   169    2
    31   110   113    1
    32   118   119    2
    33   169   168    1
    34    18    17    1
    35    54    53    2
    36   124   125    1
    37   168   167    1
    38   168   171    1
    39    17    14    1
    40   125   128    1
    41   125   126    1
    42   128   129    1
    43   162   161    2
    44    51    52    1
    45    65    63   ar
    46    65    67   ar
    47   166   164    1
    48    63    62   ar
    49   164   163    1
    50    53    52    1
    51    53    57   am
    52    14    13    1
    53    14    15    1
    54   161   160    1
    55    55    52    1
    56    55    56    1
    57    68    67    1
    58    58    59    1
    59    58    57    1
    60    58    61    1
    61   126   127    2
    62    59    60    2
    63    67    66   ar
    64    62    61    1
    65    62    64   ar
    66   163   160    1
    67   163   165    1
    68    16    15    2
    69    15    19   am
    70   160   159    1
    71   139   136    1
    72    66    64   ar
    73    75    73    1
    74    19    20    1
    75   151   150    2
    76   159   150   am
    77    74    73    1
    78   136   135    1
    79   136   137    1
    80   150   149    1
    81   135   132   am
    82   130   131    1
    83    73    70    1
    84   137   138    2
    85    20    23    1
    86    20    21    1
    87   134   131    1
    88   104   103    1
    89   102   103    1
    90   102   101    1
    91   131   132    1
    92   132   133    2
    93    99    98    2
    94   149   148    1
    95   149   152    1
    96    23    24    1
    97    22    21    2
    98    70    69    1
    99    70    71    1
   100    21    27   am
   101   100   101    1
   102   100    97    1
   103    24    26    1
   104    24    25    1
   105   157   155   ar
   106   157   158   ar
   107   155   153   ar
   108    87    86    1
   109    84    86   ar
   110    84    82   ar
   111    98    97    1
   112   158   156   ar
   113    86    85   ar
   114   153   152    1
   115   153   154   ar
   116    82    81   ar
   117    97    96    1
   118   147   145    1
   119   156   154   ar
   120    27    28    1
   121    71    72    2
   122    31    28    1
   123    85    83   ar
   124    81    83   ar
   125    81    80    1
   126    80    77    1
   127    28    29    1
   128   145   144    1
   129   144   146    1
   130   144   141    1
   131   140   141    1
   132   143   142    2
   133    30    29    2
   134    95    94    1
   135    29    32   am
   136    77    76    1
   137    77    78    1
   138   141   142    1
   139    91    90    2
   140    90    89    1
   141    32    33    1
   142    79    78    2
   143    92    93    1
   144    92    89    1
   145    94    93    1
   146    50    48    1
   147    89    88    1
   148    33    36    1
   149    33    34    1
   150    36    37    1
   151    49    48    1
   152    48    45    1
   153    34    40   am
   154    34    35    2
   155    47    46    2
   156    40    41    1
   157    37    39   am
   158    37    38    2
   159    46    45    1
   160    45    44    1
   161    41    42    1
   162    43    42    2
