@<TRIPOS>MOLECULE
tmp/3nj9A00.pdb
 194 191 0 0 0
SMALL
GASTEIGER

@<TRIPOS>ATOM
      1  N         12.0160    2.1290   17.7910 N.3    16  ASP16      -0.1225
      2  CA        11.5440    3.4110   17.2520 C.3    16  ASP16       0.1805
      3  C         10.5080    4.0980   18.1160 C.2    16  ASP16       0.2598
      4  O         10.4210    5.3270   18.1080 O.2    16  ASP16      -0.2718
      5  CB        11.0070    3.2630   15.8340 C.3    16  ASP16       0.1424
      6  CG        12.1050    3.2430   14.8000 C.2    16  ASP16       0.3668
      7  OD1       13.2650    3.5400   15.1460 O.co2  16  ASP16      -0.2456
      8  OD2       11.8080    2.9270   13.6330 O.co2  16  ASP16      -0.2456
      9  N          9.7200    3.3050   18.8450 N.am   17  PHE17      -0.1963
     10  CA         8.6010    3.8210   19.6230 C.3    17  PHE17       0.1756
     11  C          8.6920    3.3020   21.0630 C.2    17  PHE17       0.2461
     12  O          8.0270    2.3280   21.4010 O.2    17  PHE17      -0.2730
     13  CB         7.2510    3.4480   18.9530 C.3    17  PHE17       0.0574
     14  CG         7.2060    3.7230   17.4610 C.ar   17  PHE17      -0.0200
     15  CD1        6.9290    5.0000   16.9810 C.ar   17  PHE17      -0.0042
     16  CD2        7.4610    2.7010   16.5430 C.ar   17  PHE17      -0.0042
     17  CE1        6.9060    5.2640   15.6010 C.ar   17  PHE17      -0.0003
     18  CE2        7.4560    2.9430   15.1700 C.ar   17  PHE17      -0.0003
     19  CZ         7.1660    4.2380   14.6930 C.ar   17  PHE17      -0.0000
     20  N          9.5220    3.9570   21.9120 N.am   18  PRO18      -0.2716
     21  CA         9.8320    3.5830   23.3060 C.3    18  PRO18       0.1536
     22  C          8.5960    3.2910   24.1410 C.2    18  PRO18       0.2598
     23  O          8.6260    2.4370   25.0320 O.2    18  PRO18      -0.2715
     24  CB        10.5180    4.8460   23.8580 C.3    18  PRO18       0.0310
     25  CG        11.1240    5.4680   22.7030 C.3    18  PRO18       0.0237
     26  CD        10.2510    5.1800   21.5220 C.3    18  PRO18       0.0939
     27  N          7.5200    4.0050   23.8340 N.am   19  ILE19      -0.1978
     28  CA         6.2450    3.8740   24.5300 C.3    19  ILE19       0.1596
     29  C          5.6360    2.4690   24.4240 C.2    19  ILE19       0.2287
     30  O          4.6980    2.1510   25.1570 O.2    19  ILE19      -0.2864
     31  CB         5.2380    4.9650   24.0510 C.3    19  ILE19       0.0276
     32  CG1        4.1410    5.1820   25.1000 C.3    19  ILE19       0.0022
     33  CG2        4.6960    4.6400   22.6420 C.3    19  ILE19       0.0022
     34  CD1        3.5040    6.5560   25.0600 C.3    19  ILE19       0.0001
     35  N         -0.5220   -2.4600    6.1320 N.3    61  HIS61      -0.1241
     36  CA        -0.6630   -3.2380    7.3580 C.3    61  HIS61       0.1621
     37  C         -2.0930   -3.6930    7.5980 C.2    61  HIS61       0.2264
     38  O         -2.3080   -4.8090    8.0950 O.2    61  HIS61      -0.2867
     39  CB        -0.0390   -2.5560    8.5930 C.3    61  HIS61       0.0745
     40  CG        -0.6050   -1.2120    8.9250 C.ar   61  HIS61       0.0817
     41  ND1        0.0010   -0.0360    8.5350 N.ar   61  HIS61      -0.2268
     42  CD2       -1.6840   -0.8520    9.6610 C.ar   61  HIS61       0.1154
     43  CE1       -0.6960    0.9880    8.9910 C.ar   61  HIS61       0.1986
     44  NE2       -1.7210    0.5200    9.6820 N.ar   61  HIS61      -0.2212
     45  N         -8.1940    0.6350    5.9600 N.3    64  ASN64      -0.1240
     46  CA        -9.0030    1.5890    6.7140 C.3    64  ASN64       0.1653
     47  C        -10.1770    2.0620    5.8830 C.2    64  ASN64       0.2266
     48  O         -9.9990    2.5050    4.7340 O.2    64  ASN64      -0.2867
     49  CB        -8.1740    2.8150    7.1420 C.3    64  ASN64       0.1155
     50  CG        -6.9870    2.4610    8.0170 C.2    64  ASN64       0.2627
     51  OD1       -5.9970    3.1860    8.0390 O.2    64  ASN64      -0.2716
     52  ND2       -7.0620    1.3420    8.7160 N.am   64  ASN64      -0.0877
     53  N        -12.4450    6.4090   11.3450 N.3    89  GLN89      -0.1245
     54  CA       -12.1430    5.2420   10.5150 C.3    89  GLN89       0.1566
     55  C        -12.3940    3.9480   11.2680 C.2    89  GLN89       0.2260
     56  O        -12.4950    3.9390   12.4960 O.2    89  GLN89      -0.2867
     57  CB       -10.6980    5.2790    9.9950 C.3    89  GLN89       0.0367
     58  CG        -9.6390    5.4290   11.0800 C.3    89  GLN89       0.0905
     59  CD        -8.8960    4.1390   11.3950 C.2    89  GLN89       0.2608
     60  OE1       -9.4620    3.0460   11.3920 O.2    89  GLN89      -0.2717
     61  NE2       -7.6140    4.2680   11.6800 N.am   89  GLN89      -0.0878
     62  N        -11.0250   -0.4160   10.9680 N.3    91  HIS91      -0.1241
     63  CA       -10.1170   -1.3780   10.3660 C.3    91  HIS91       0.1621
     64  C        -10.2040   -2.6330   11.1970 C.2    91  HIS91       0.2264
     65  O        -10.8740   -2.6590   12.2370 O.2    91  HIS91      -0.2867
     66  CB        -8.6740   -0.8580   10.3550 C.3    91  HIS91       0.0745
     67  CG        -8.1580   -0.5160   11.7190 C.ar   91  HIS91       0.0817
     68  ND1       -8.3720    0.7110   12.3030 N.ar   91  HIS91      -0.2268
     69  CD2       -7.4990   -1.2640   12.6360 C.ar   91  HIS91       0.1154
     70  CE1       -7.8440    0.7170   13.5140 C.ar   91  HIS91       0.1986
     71  NE2       -7.3020   -0.4690   13.7380 N.ar   91  HIS91      -0.2212
     72  N         -8.0260   -6.4140   12.5670 N.3    93  HIS93      -0.1241
     73  CA        -6.8250   -7.2210   12.7120 C.3    93  HIS93       0.1621
     74  C         -7.2880   -8.6640   12.5970 C.2    93  HIS93       0.2264
     75  O         -8.2950   -9.0330   13.1910 O.2    93  HIS93      -0.2867
     76  CB        -6.1650   -6.9980   14.0710 C.3    93  HIS93       0.0745
     77  CG        -5.8870   -5.5620   14.3650 C.ar   93  HIS93       0.0817
     78  ND1       -4.6870   -4.9610   14.0610 N.ar   93  HIS93      -0.2268
     79  CD2       -6.6640   -4.5990   14.9090 C.ar   93  HIS93       0.1154
     80  CE1       -4.7330   -3.6900   14.4140 C.ar   93  HIS93       0.1986
     81  NE2       -5.9210   -3.4450   14.9330 N.ar   93  HIS93      -0.2212
     82  N        -11.7920   -2.5340   14.9380 N.3   116  HIS116     -0.1241
     83  CA       -11.5940   -1.3040   15.7060 C.3   116  HIS116      0.1621
     84  C        -12.2430   -0.1160   15.0180 C.2   116  HIS116      0.2264
     85  O        -11.8270    0.2760   13.9370 O.2   116  HIS116     -0.2867
     86  CB       -10.0950   -1.0100   15.8910 C.3   116  HIS116      0.0745
     87  CG        -9.3940   -2.0010   16.7610 C.ar  116  HIS116      0.0817
     88  ND1       -8.0340   -2.1980   16.7290 N.ar  116  HIS116     -0.2268
     89  CD2       -9.8800   -2.8790   17.6720 C.ar  116  HIS116      0.1154
     90  CE1       -7.7090   -3.1430   17.5930 C.ar  116  HIS116      0.1986
     91  NE2       -8.8110   -3.5720   18.1760 N.ar  116  HIS116     -0.2212
     92  N        -12.4960    3.7030   15.3230 N.3   118  VAL118     -0.1245
     93  CA       -11.6980    4.7320   15.9600 C.3   118  VAL118      0.1561
     94  C        -12.4370    6.0700   15.9560 C.2   118  VAL118      0.2260
     95  O        -12.8760    6.5420   14.9090 O.2   118  VAL118     -0.2867
     96  CB       -10.2740    4.8550   15.3090 C.3   118  VAL118      0.0252
     97  CG1       -9.3980    5.8160   16.0880 C.3   118  VAL118      0.0019
     98  CG2       -9.6070    3.5140   15.2150 C.3   118  VAL118      0.0019
     99  N         -8.2570   15.2720   14.9190 N.3   127  PHE127     -0.1227
    100  CA        -7.6090   14.0040   15.2950 C.3   127  PHE127      0.1736
    101  C         -6.1760   14.1970   15.7840 C.2   127  PHE127      0.2596
    102  O         -5.7840   13.6410   16.8110 O.2   127  PHE127     -0.2718
    103  CB        -7.6130   13.0280   14.1190 C.3   127  PHE127      0.0547
    104  CG        -6.9760   11.6880   14.4240 C.ar  127  PHE127     -0.0202
    105  CD1       -5.6520   11.4450   14.1030 C.ar  127  PHE127     -0.0042
    106  CD2       -7.7200   10.6690   15.0170 C.ar  127  PHE127     -0.0042
    107  CE1       -5.0560   10.2030   14.3770 C.ar  127  PHE127     -0.0003
    108  CE2       -7.1440    9.4180   15.2910 C.ar  127  PHE127     -0.0003
    109  CZ        -5.8020    9.1910   14.9720 C.ar  127  PHE127     -0.0000
    110  N         -5.4010   14.9740   15.0280 N.am  128  GLY128     -0.1957
    111  CA        -3.9890   15.1820   15.3250 C.3   128  GLY128      0.1869
    112  C         -3.7610   15.7960   16.6870 C.2   128  GLY128      0.2309
    113  O         -2.7800   15.4930   17.3410 O.2   128  GLY128     -0.2863
    114  N         -4.8340   13.0590   19.6280 N.3   131  VAL131     -0.1231
    115  CA        -3.7700   12.0820   19.9070 C.3   131  VAL131      0.1692
    116  C         -2.5610   12.6480   20.6620 C.2   131  VAL131      0.2591
    117  O         -1.5010   12.0290   20.7030 O.2   131  VAL131     -0.2718
    118  CB        -3.2800   11.3510   18.6110 C.3   131  VAL131      0.0266
    119  CG1       -4.4020   10.5760   17.9950 C.3   131  VAL131      0.0020
    120  CG2       -2.6850   12.3240   17.6250 C.3   131  VAL131      0.0020
    121  N         -2.7270   13.8270   21.2440 N.am  132  GLN132     -0.1979
    122  CA        -1.7530   14.3840   22.1570 C.3   132  GLN132      0.1601
    123  C         -2.3650   14.4660   23.5590 C.2   132  GLN132      0.2287
    124  O         -1.8010   15.0920   24.4630 O.2   132  GLN132     -0.2864
    125  CB        -1.3530   15.7730   21.6760 C.3   132  GLN132      0.0394
    126  CG        -0.6370   15.7730   20.3180 C.3   132  GLN132      0.0908
    127  CD        -0.4480   17.1780   19.7690 C.2   132  GLN132      0.2608
    128  OE1       -1.0240   17.5340   18.7420 O.2   132  GLN132     -0.2717
    129  NE2        0.3460   17.9900   20.4620 N.am  132  GLN132     -0.0878
    130  N        -11.8910    3.9300   21.2210 N.3   139  VAL139     -0.1245
    131  CA       -11.9570    2.8600   20.2250 C.3   139  VAL139      0.1561
    132  C        -12.9850    1.8290   20.6680 C.2   139  VAL139      0.2260
    133  O        -12.9660    1.3770   21.8100 O.2   139  VAL139     -0.2867
    134  CB       -10.5790    2.1830   19.9280 C.3   139  VAL139      0.0252
    135  CG1      -10.7080    1.2160   18.7590 C.3   139  VAL139      0.0019
    136  CG2       -9.4940    3.2130   19.6020 C.3   139  VAL139      0.0019
    137  N         -3.2370    3.1720   21.1270 N.3   194  LEU194     -0.1231
    138  CA        -3.3370    2.5810   19.8020 C.3   194  LEU194      0.1693
    139  C         -2.4260    1.3460   19.7340 C.2   194  LEU194      0.2593
    140  O         -1.4060    1.2770   20.4260 O.2   194  LEU194     -0.2718
    141  CB        -3.0140    3.5930   18.7120 C.3   194  LEU194      0.0284
    142  CG        -3.9410    4.8220   18.6670 C.3   194  LEU194      0.0019
    143  CD1       -3.4890    5.7990   17.6290 C.3   194  LEU194      0.0001
    144  CD2       -5.3900    4.4000   18.4020 C.3   194  LEU194      0.0001
    145  N         -2.8090    0.3640   18.9240 N.am  195  THR195     -0.1939
    146  CA        -2.1050   -0.9100   18.9060 C.3   195  THR195      0.2028
    147  C         -1.1210   -1.0430   17.7480 C.2   195  THR195      0.2643
    148  O         -0.5300   -2.1030   17.5250 O.2   195  THR195     -0.2714
    149  CB        -3.0740   -2.0930   18.8960 C.3   195  THR195      0.1808
    150  OG1       -3.7810   -2.1220   17.6500 O.3   195  THR195     -0.2208
    151  CG2       -4.0580   -2.0110   20.0610 C.3   195  THR195      0.0379
    152  N         -0.9820    0.0370   16.9900 N.am  196  THR196     -0.1937
    153  CA         0.0020    0.1270   15.9220 C.3   196  THR196      0.2013
    154  C          0.8630    1.3360   16.2360 C.2   196  THR196      0.2484
    155  O          0.3770    2.2900   16.8430 O.2   196  THR196     -0.2729
    156  CB        -0.6840    0.3450   14.5660 C.3   196  THR196      0.1807
    157  OG1       -1.5240    1.4910   14.6690 O.3   196  THR196     -0.2208
    158  CG2       -1.5620   -0.8590   14.1990 C.3   196  THR196      0.0379
    159  N          2.1520    1.3030   15.8380 N.am  197  PRO197     -0.2715
    160  CA         2.9710    2.5090   15.9450 C.3   197  PRO197      0.1521
    161  C          2.2870    3.7420   15.3530 C.2   197  PRO197      0.2440
    162  O          1.6840    3.6560   14.2720 O.2   197  PRO197     -0.2731
    163  CB         4.2180    2.1430   15.1410 C.3   197  PRO197      0.0310
    164  CG         4.3630    0.6590   15.3990 C.3   197  PRO197      0.0237
    165  CD         2.9300    0.1650   15.3090 C.3   197  PRO197      0.0939
    166  N          2.4270    4.9060   16.0120 N.am  198  PRO198     -0.2727
    167  CA         3.2950    5.2340   17.1530 C.3   198  PRO198      0.1402
    168  C          2.7480    4.7840   18.4990 C.2   198  PRO198      0.2269
    169  O          3.2290    5.2230   19.5580 O.2   198  PRO198     -0.2865
    170  CB         3.3770    6.7640   17.0930 C.3   198  PRO198      0.0296
    171  CG         2.1330    7.1840   16.4260 C.3   198  PRO198      0.0237
    172  CD         1.6670    6.0780   15.5410 C.3   198  PRO198      0.0939
    173  N          0.7160    5.1660   21.3250 N.3   200  LEU200     -0.1245
    174  CA         0.1060    6.4440   21.7320 C.3   200  LEU200      0.1561
    175  C         -1.0200    6.1300   22.6630 C.2   200  LEU200      0.2260
    176  O         -2.0230    5.5240   22.2910 O.2   200  LEU200     -0.2867
    177  CB        -0.4060    7.3420   20.5740 C.3   200  LEU200      0.0270
    178  CG         0.4930    8.1020   19.5700 C.3   200  LEU200      0.0019
    179  CD1       -0.3260    9.1140   18.7520 C.3   200  LEU200      0.0001
    180  CD2        1.6670    8.7800   20.2430 C.3   200  LEU200      0.0001
    181  N        -10.6320    2.3800   25.7200 N.3   205  TRP205     -0.1241
    182  CA       -11.0480    1.1750   25.0300 C.3   205  TRP205      0.1605
    183  C        -12.3910    0.7500   25.5490 C.2   205  TRP205      0.2264
    184  O        -12.6380    0.7610   26.7570 O.2   205  TRP205     -0.2867
    185  CB       -10.0250    0.0570   25.2050 C.3   205  TRP205      0.0550
    186  CG        -8.9180    0.1320   24.2050 C.ar  205  TRP205      0.0003
    187  CD1       -7.6750    0.6590   24.3830 C.ar  205  TRP205      0.0946
    188  CD2       -8.9710   -0.3450   22.8530 C.ar  205  TRP205      0.0152
    189  NE1       -6.9380    0.5420   23.2130 N.ar  205  TRP205     -0.2442
    190  CE2       -7.7150   -0.0760   22.2630 C.ar  205  TRP205      0.0810
    191  CE3       -9.9600   -0.9840   22.0910 C.ar  205  TRP205      0.0012
    192  CZ2       -7.4240   -0.4080   20.9370 C.ar  205  TRP205      0.0191
    193  CZ3       -9.6760   -1.3130   20.7780 C.ar  205  TRP205      0.0001
    194  CH2       -8.4010   -1.0390   20.2170 C.ar  205  TRP205      0.0015
@<TRIPOS>BOND
     1    48    47    2
     2    47    46    1
     3    45    46    1
     4    35    36    1
     5    46    49    1
     6    49    50    1
     7    36    37    1
     8    36    39    1
     9    37    38    2
    10    50    51    2
    11    50    52   am
    12    41    40   ar
    13    41    43   ar
    14    39    40    1
    15    40    42   ar
    16    43    44   ar
    17    42    44   ar
    18    57    54    1
    19    57    58    1
    20    66    63    1
    21    66    67    1
    22    63    62    1
    23    63    64    1
    24    54    55    1
    25    54    53    1
    26    58    59    1
    27    64    65    2
    28    55    56    2
    29    60    59    2
    30    59    61   am
    31    67    68   ar
    32    67    69   ar
    33    68    70   ar
    34    72    73    1
    35    74    73    1
    36    74    75    2
    37    69    71   ar
    38    73    76    1
    39    70    71   ar
    40     8     6   ar
    41    85    84    2
    42    78    77   ar
    43    78    80   ar
    44    76    77    1
    45   105   107   ar
    46   105   104   ar
    47   103   104    1
    48   103   100    1
    49   158   156    1
    50   162   161    2
    51    77    79   ar
    52   107   109   ar
    53    80    81   ar
    54   104   106   ar
    55   156   157    1
    56   156   153    1
    57    19    18   ar
    58    19    17   ar
    59     6     7   ar
    60     6     5    1
    61    95    94    2
    62    79    81   ar
    63    99   100    1
    64    82    83    1
    65   109   108   ar
    66   106   108   ar
    67    84    83    1
    68   110   111    1
    69   110   101   am
    70   163   164    1
    71   163   160    1
    72    18    16   ar
    73    98    96    1
    74   100   101    1
    75   165   164    1
    76   165   159    1
    77    96    93    1
    78    96    97    1
    79    92    93    1
    80   111   112    1
    81   161   160    1
    82   161   166   am
    83   172   166    1
    84   172   171    1
    85    17    15   ar
    86    83    86    1
    87   101   102    2
    88     5     2    1
    89   159   160    1
    90   159   154   am
    91    86    87    1
    92   153   154    1
    93   153   152    1
    94    94    93    1
    95   166   167    1
    96   154   155    2
    97   171   170    1
    98    16    14   ar
    99   112   113    2
   100    88    87   ar
   101    88    90   ar
   102    87    89   ar
   103    15    14   ar
   104   152   147   am
   105   170   167    1
   106   167   168    1
   107     2     1    1
   108     2     3    1
   109    14    13    1
   110   148   147    2
   111    90    91   ar
   112   120   118    1
   113   143   142    1
   114   150   149    1
   115    89    91   ar
   116   147   146    1
   117   119   118    1
   118     4     3    2
   119     3     9   am
   120   144   142    1
   121   168   169    2
   122   118   115    1
   123   142   141    1
   124   141   138    1
   125   128   127    2
   126   179   178    1
   127   135   134    1
   128     9    10    1
   129   149   146    1
   130   149   151    1
   131   146   145    1
   132   145   139   am
   133    13    10    1
   134   178   180    1
   135   178   177    1
   136   136   134    1
   137    10    11    1
   138   114   115    1
   139   139   138    1
   140   139   140    2
   141   127   126    1
   142   127   129   am
   143   138   137    1
   144   115   116    1
   145   134   131    1
   146   194   193   ar
   147   194   192   ar
   148   131   132    1
   149   131   130    1
   150   126   125    1
   151   177   174    1
   152   116   117    2
   153   116   121   am
   154   132   133    2
   155   193   191   ar
   156   192   190   ar
   157    11    12    2
   158    11    20   am
   159   121   122    1
   160   173   174    1
   161    26    20    1
   162    26    25    1
   163   125   122    1
   164   174   175    1
   165    20    21    1
   166   191   188   ar
   167   122   123    1
   168   190   188   ar
   169   190   189   ar
   170   176   175    2
   171    33    31    1
   172    25    24    1
   173   188   186   ar
   174   189   187   ar
   175    21    24    1
   176    21    22    1
   177   123   124    2
   178    27    22   am
   179    27    28    1
   180    31    28    1
   181    31    32    1
   182    22    23    2
   183   186   187   ar
   184   186   185    1
   185    29    28    1
   186    29    30    2
   187   182   185    1
   188   182   183    1
   189   182   181    1
   190    34    32    1
   191   183   184    2
