@<TRIPOS>MOLECULE
tmp/3njnC00.pdb
 202 197 0 0 0
SMALL
GASTEIGER

@<TRIPOS>ATOM
      1  N        -25.4390   30.7850  118.7920 N.3    24  TYR24      -0.1241
      2  CA       -25.8200   32.0360  118.2270 C.3    24  TYR24       0.1605
      3  C        -26.9190   32.6830  119.0540 C.2    24  TYR24       0.2264
      4  O        -27.8940   31.9990  119.4320 O.2    24  TYR24      -0.2867
      5  CB       -26.2690   31.8230  116.7640 C.3    24  TYR24       0.0534
      6  CG       -25.1860   31.1420  115.9760 C.ar   24  TYR24      -0.0201
      7  CD1      -24.0220   31.8050  115.6470 C.ar   24  TYR24      -0.0009
      8  CD2      -25.2700   29.8220  115.6220 C.ar   24  TYR24      -0.0009
      9  CE1      -22.9760   31.1750  114.9900 C.ar   24  TYR24       0.0417
     10  CE2      -24.1880   29.1860  114.9560 C.ar   24  TYR24       0.0417
     11  CZ       -23.0670   29.8810  114.6550 C.ar   24  TYR24       0.1957
     12  OH       -21.9840   29.3270  114.0290 O.3    24  TYR24      -0.2866
     13  N        -31.2000   29.6760  116.1170 N.3    33  GLN33      -0.1231
     14  CA       -30.6040   28.6070  115.3580 C.3    33  GLN33       0.1698
     15  C        -29.3940   29.0710  114.5460 C.2    33  GLN33       0.2593
     16  O        -28.4690   28.3050  114.3500 O.2    33  GLN33      -0.2718
     17  CB       -31.6990   27.9400  114.5170 C.3    33  GLN33       0.0381
     18  CG       -31.1960   26.7330  113.7660 C.3    33  GLN33       0.0905
     19  CD       -30.5960   27.0860  112.4160 C.2    33  GLN33       0.2608
     20  OE1      -30.7810   28.2170  111.9140 O.2    33  GLN33      -0.2717
     21  NE2      -29.8430   26.1500  111.8320 N.am   33  GLN33      -0.0878
     22  N        -29.4080   30.3230  114.1170 N.am   34  GLY34      -0.1942
     23  CA       -28.2320   30.9160  113.5150 C.3    34  GLY34       0.2014
     24  C        -28.3420   31.2360  112.0320 C.2    34  GLY34       0.2639
     25  O        -27.5980   32.0680  111.5470 O.2    34  GLY34      -0.2714
     26  N        -29.1830   30.5410  111.3040 N.am   35  ASP35      -0.1957
     27  CA       -29.3350   30.8340  109.8900 C.3    35  ASP35       0.1840
     28  C        -30.0950   32.1560  109.6630 C.2    35  ASP35       0.2622
     29  O        -30.9400   32.5320  110.4810 O.2    35  ASP35      -0.2715
     30  CB       -30.0880   29.7110  109.2240 C.3    35  ASP35       0.1450
     31  CG       -29.3580   28.3730  109.2780 C.2    35  ASP35       0.3671
     32  OD1      -28.1450   28.3200  109.5940 O.co2  35  ASP35      -0.2456
     33  OD2      -30.0070   27.3430  108.9440 O.co2  35  ASP35      -0.2456
     34  N        -29.8120   32.8310  108.5600 N.am   36  ILE36      -0.1963
     35  CA       -30.4020   34.1180  108.2430 C.3    36  ILE36       0.1727
     36  C        -31.0490   34.0620  106.8650 C.2    36  ILE36       0.2617
     37  O        -30.4350   33.5400  105.9070 O.2    36  ILE36      -0.2715
     38  CB       -29.3380   35.2370  108.3330 C.3    36  ILE36       0.0290
     39  CG1      -28.9100   35.4900  109.7950 C.3    36  ILE36       0.0022
     40  CG2      -29.8280   36.5270  107.6560 C.3    36  ILE36       0.0023
     41  CD1      -29.9060   36.1690  110.7050 C.3    36  ILE36       0.0001
     42  N        -32.2540   34.6250  106.7740 N.am   37  THR37      -0.1937
     43  CA       -32.9920   34.7260  105.5190 C.3    37  THR37       0.2028
     44  C        -32.9330   36.1780  105.0460 C.2    37  THR37       0.2642
     45  O        -33.1750   37.1290  105.8200 O.2    37  THR37      -0.2714
     46  CB       -34.4410   34.2880  105.7050 C.3    37  THR37       0.1808
     47  OG1      -34.4630   32.9450  106.2050 O.3    37  THR37      -0.2208
     48  CG2      -35.2170   34.3050  104.3890 C.3    37  THR37       0.0379
     49  N        -32.6570   36.3290  103.7520 N.am   38  VAL38      -0.1963
     50  CA       -32.5120   37.6190  103.1250 C.3    38  VAL38       0.1727
     51  C        -33.5490   37.7330  102.0120 C.2    38  VAL38       0.2616
     52  O        -33.6430   36.8520  101.1230 O.2    38  VAL38      -0.2715
     53  CB       -31.0800   37.7740  102.5750 C.3    38  VAL38       0.0290
     54  CG1      -30.9550   39.0500  101.7730 C.3    38  VAL38       0.0023
     55  CG2      -30.0240   37.7940  103.7410 C.3    38  VAL38       0.0023
     56  N        -34.3270   38.8010  102.0640 N.am   39  THR39      -0.1951
     57  CA       -35.4420   38.9610  101.1390 C.3    39  THR39       0.1897
     58  C        -35.2770   40.2100  100.2990 C.2    39  THR39       0.2313
     59  O        -36.1110   40.4970   99.4400 O.2    39  THR39      -0.2863
     60  CB       -36.7830   39.0370  101.8850 C.3    39  THR39       0.1794
     61  OG1      -36.8060   40.2210  102.6920 O.3    39  THR39      -0.2208
     62  CG2      -37.0060   37.8020  102.7880 C.3    39  THR39       0.0378
     63  N        -25.4570   41.3060  106.8590 N.3    44  ILE44      -0.1245
     64  CA       -25.5530   40.5020  108.0610 C.3    44  ILE44       0.1561
     65  C        -24.2440   40.7150  108.8310 C.2    44  ILE44       0.2260
     66  O        -23.1650   40.5300  108.2730 O.2    44  ILE44      -0.2867
     67  CB       -25.7560   38.9850  107.7370 C.3    44  ILE44       0.0252
     68  CG1      -26.8270   38.7680  106.6290 C.3    44  ILE44       0.0019
     69  CG2      -26.0100   38.2520  109.0230 C.3    44  ILE44       0.0019
     70  CD1      -26.3340   38.8860  105.1270 C.3    44  ILE44       0.0001
     71  N        -21.9510   39.7950  112.1890 N.3    46  TYR46      -0.1241
     72  CA       -21.6570   38.7690  113.1800 C.3    46  TYR46       0.1605
     73  C        -20.6130   39.3030  114.1380 C.2    46  TYR46       0.2264
     74  O        -19.5180   39.7000  113.7370 O.2    46  TYR46      -0.2867
     75  CB       -21.1630   37.4720  112.5400 C.3    46  TYR46       0.0534
     76  CG       -22.1450   36.8270  111.6200 C.ar   46  TYR46      -0.0201
     77  CD1      -23.0650   35.8970  112.0740 C.ar   46  TYR46      -0.0009
     78  CD2      -22.1640   37.1360  110.2710 C.ar   46  TYR46      -0.0009
     79  CE1      -23.9920   35.3080  111.1620 C.ar   46  TYR46       0.0417
     80  CE2      -23.0630   36.6140  109.4170 C.ar   46  TYR46       0.0417
     81  CZ       -23.9550   35.7070  109.8310 C.ar   46  TYR46       0.1957
     82  OH       -24.8390   35.1550  108.8950 O.3    46  TYR46      -0.2866
     83  N        -22.6640   32.9700   94.4090 N.3    69  GLY69      -0.1210
     84  CA       -23.3370   34.2240   94.2620 C.3    69  GLY69       0.1956
     85  C        -24.3140   34.5780   95.3680 C.2    69  GLY69       0.2612
     86  O        -24.9170   35.6310   95.3260 O.2    69  GLY69      -0.2717
     87  N        -24.4930   33.7300   96.3790 N.am   70  ILE70      -0.1965
     88  CA       -25.4280   34.0110   97.4360 C.3    70  ILE70       0.1727
     89  C        -24.9170   35.1790   98.2930 C.2    70  ILE70       0.2616
     90  O        -25.6930   36.0910   98.5940 O.2    70  ILE70      -0.2715
     91  CB       -25.7270   32.7360   98.2630 C.3    70  ILE70       0.0290
     92  CG1      -26.3740   31.6600   97.3860 C.3    70  ILE70       0.0022
     93  CG2      -26.6520   33.1050   99.4680 C.3    70  ILE70       0.0023
     94  CD1      -27.6450   32.0560   96.7230 C.3    70  ILE70       0.0001
     95  N        -23.6550   35.1050   98.7010 N.am   71  ILE71      -0.1977
     96  CA       -22.9860   36.1950   99.4260 C.3    71  ILE71       0.1596
     97  C        -21.9860   36.8480   98.4580 C.2    71  ILE71       0.2287
     98  O        -21.2300   36.1490   97.7920 O.2    71  ILE71      -0.2864
     99  CB       -22.2460   35.7040  100.6760 C.3    71  ILE71       0.0276
    100  CG1      -23.2870   35.1660  101.6510 C.3    71  ILE71       0.0022
    101  CG2      -21.3500   36.8170  101.2870 C.3    71  ILE71       0.0022
    102  CD1      -24.3680   36.1440  102.0940 C.3    71  ILE71       0.0001
    103  N        -21.3090   40.3650  106.1630 N.3    85  LEU85      -0.1245
    104  CA       -21.5810   39.8880  104.8410 C.3    85  LEU85       0.1561
    105  C        -22.4710   40.8350  104.0780 C.2    85  LEU85       0.2260
    106  O        -23.4110   41.3840  104.6530 O.2    85  LEU85      -0.2867
    107  CB       -22.2960   38.5460  104.8990 C.3    85  LEU85       0.0270
    108  CG       -21.7010   37.4260  105.7340 C.3    85  LEU85       0.0019
    109  CD1      -22.4620   36.1360  105.6720 C.3    85  LEU85       0.0001
    110  CD2      -20.2640   37.2110  105.4330 C.3    85  LEU85       0.0001
    111  N        -25.0110   40.9670  100.9910 N.3    87  ASP87      -0.1239
    112  CA       -25.9560   40.0710  100.2510 C.3    87  ASP87       0.1674
    113  C        -26.9320   40.9100   99.4970 C.2    87  ASP87       0.2266
    114  O        -27.8550   41.5110  100.0480 O.2    87  ASP87      -0.2867
    115  CB       -26.6780   39.1610  101.2390 C.3    87  ASP87       0.1410
    116  CG       -27.4900   38.0660  100.5600 C.2    87  ASP87       0.3668
    117  OD1      -27.8350   38.1980   99.3500 O.co2  87  ASP87      -0.2456
    118  OD2      -27.8370   37.0910  101.2790 O.co2  87  ASP87      -0.2456
    119  N        -28.8570   39.8980   97.2920 N.3    89  ASP89      -0.1239
    120  CA       -30.0610   39.0960   97.1180 C.3    89  ASP89       0.1674
    121  C        -30.4950   39.0250   95.6670 C.2    89  ASP89       0.2266
    122  O        -31.6720   39.1120   95.3920 O.2    89  ASP89      -0.2867
    123  CB       -31.2050   39.5790   98.0380 C.3    89  ASP89       0.1410
    124  CG       -32.3850   38.6120   98.0530 C.2    89  ASP89       0.3668
    125  OD1      -33.5460   39.0830   98.1870 O.co2  89  ASP89      -0.2456
    126  OD2      -32.1640   37.3800   97.8970 O.co2  89  ASP89      -0.2456
    127  N        -29.2140   36.5740   93.5470 N.3    91  THR91      -0.1204
    128  CA       -29.1780   35.1570   93.2170 C.3    91  THR91       0.1979
    129  C        -29.9930   34.4760   94.2890 C.2    91  THR91       0.2460
    130  O        -29.6750   34.5780   95.4960 O.2    91  THR91      -0.2732
    131  CB       -27.7290   34.6080   93.2500 C.3    91  THR91       0.1783
    132  OG1      -27.0040   35.2390   92.1940 O.3    91  THR91      -0.2211
    133  CG2      -27.7030   33.1080   93.0520 C.3    91  THR91       0.0376
    134  N        -31.0410   33.7760   93.8710 N.am   92  PRO92      -0.2717
    135  CA       -31.8000   33.0010   94.8290 C.3    92  PRO92       0.1536
    136  C        -31.0960   31.7090   95.1970 C.2    92  PRO92       0.2599
    137  O        -30.2990   31.2020   94.4170 O.2    92  PRO92      -0.2715
    138  CB       -33.0660   32.6980   94.0670 C.3    92  PRO92       0.0310
    139  CG       -32.6470   32.6330   92.7140 C.3    92  PRO92       0.0237
    140  CD       -31.5090   33.5500   92.4920 C.3    92  PRO92       0.0939
    141  N        -31.4000   31.1650   96.3600 N.am   93  GLY93      -0.1941
    142  CA       -30.7990   29.9120   96.7880 C.3    93  GLY93       0.2014
    143  C        -30.2600   29.9810   98.1920 C.2    93  GLY93       0.2640
    144  O        -30.4370   30.9740   98.8870 O.2    93  GLY93      -0.2714
    145  N        -29.5700   28.9230   98.5770 N.am   94  THR94      -0.1936
    146  CA       -29.0270   28.7510   99.9190 C.3    94  THR94       0.2028
    147  C        -27.5090   28.4910   99.8040 C.2    94  THR94       0.2643
    148  O        -27.0600   27.7950   98.8960 O.2    94  THR94      -0.2714
    149  CB       -29.7460   27.5510  100.6490 C.3    94  THR94       0.1808
    150  OG1      -31.1220   27.8740  100.9850 O.3    94  THR94      -0.2208
    151  CG2      -29.0150   27.1530  101.8950 C.3    94  THR94       0.0379
    152  N        -26.7430   29.0700  100.7140 N.am   95  THR95      -0.1936
    153  CA       -25.3270   28.6940  100.8740 C.3    95  THR95       0.2028
    154  C        -25.0300   28.4310  102.3450 C.2    95  THR95       0.2642
    155  O        -25.7150   28.9450  103.2400 O.2    95  THR95      -0.2714
    156  CB       -24.4010   29.8050  100.3490 C.3    95  THR95       0.1808
    157  OG1      -23.0640   29.3080  100.0810 O.3    95  THR95      -0.2208
    158  CG2      -24.3180   30.9920  101.3230 C.3    95  THR95       0.0379
    159  N        -24.0400   27.5780  102.5420 N.am   96  LYS96      -0.1963
    160  CA       -23.5600   27.2160  103.8640 C.3    96  LYS96       0.1728
    161  C        -22.1620   27.7720  104.0110 C.2    96  LYS96       0.2616
    162  O        -21.4020   27.7180  103.0690 O.2    96  LYS96      -0.2715
    163  CB       -23.5670   25.6920  104.0020 C.3    96  LYS96       0.0311
    164  CG       -23.1760   25.1480  105.3370 C.3    96  LYS96       0.0038
    165  CD       -23.4640   23.6300  105.4320 C.3    96  LYS96       0.0206
    166  CE       -23.1980   23.1440  106.8180 C.3    96  LYS96       0.1093
    167  NZ       -21.7650   23.1290  107.1790 N.3    96  LYS96      -0.1314
    168  N        -21.8260   28.2360  105.1890 N.am   97  PHE97      -0.1974
    169  CA       -20.5140   28.7810  105.4470 C.3    97  PHE97       0.1639
    170  C        -20.0360   28.3640  106.8350 C.2    97  PHE97       0.2290
    171  O        -20.8140   27.9530  107.6860 O.2    97  PHE97      -0.2864
    172  CB       -20.4690   30.3100  105.2420 C.3    97  PHE97       0.0560
    173  CG       -21.3060   31.0600  106.2230 C.ar   97  PHE97      -0.0200
    174  CD1      -20.7930   31.3780  107.4580 C.ar   97  PHE97      -0.0042
    175  CD2      -22.5960   31.4520  105.9390 C.ar   97  PHE97      -0.0042
    176  CE1      -21.4950   32.0840  108.3900 C.ar   97  PHE97      -0.0003
    177  CE2      -23.3560   32.1960  106.9430 C.ar   97  PHE97      -0.0003
    178  CZ       -22.7470   32.4910  108.1360 C.ar   97  PHE97      -0.0000
    179  N        -17.3770   29.9790  109.8810 N.3    99  PHE99      -0.1241
    180  CA       -16.4860   30.9850  110.3670 C.3    99  PHE99       0.1605
    181  C        -15.0710   30.4400  110.4480 C.2    99  PHE99       0.2264
    182  O        -14.8970   29.2700  110.7970 O.2    99  PHE99      -0.2867
    183  CB       -16.8960   31.4900  111.7520 C.3    99  PHE99       0.0534
    184  CG       -18.2640   32.1090  111.7670 C.ar   99  PHE99      -0.0203
    185  CD1      -18.4180   33.4100  111.3070 C.ar   99  PHE99      -0.0042
    186  CD2      -19.3810   31.4370  112.2190 C.ar   99  PHE99      -0.0042
    187  CE1      -19.6550   33.9910  111.2920 C.ar   99  PHE99      -0.0003
    188  CE2      -20.6090   32.0110  112.1860 C.ar   99  PHE99      -0.0003
    189  CZ       -20.7660   33.2710  111.7490 C.ar   99  PHE99      -0.0000
    190  N        -16.0880   26.8380  112.4610 N.3   112  SER112     -0.1203
    191  CA       -17.3560   26.3920  112.9710 C.3   112  SER112      0.2005
    192  C        -17.8150   25.1820  112.1550 C.2   112  SER112      0.2460
    193  O        -17.2880   24.9290  111.0720 O.2   112  SER112     -0.2732
    194  CB       -18.3720   27.5210  112.9020 C.3   112  SER112      0.2103
    195  OG       -18.6280   27.9830  111.5830 O.3   112  SER112     -0.2182
    196  N        -18.7780   24.3910  112.6510 N.am  113  PRO113     -0.2728
    197  CA       -19.1170   23.1610  111.9640 C.3   113  PRO113      0.1401
    198  C        -19.6420   23.3300  110.5550 C.2   113  PRO113      0.2269
    199  O        -20.3150   24.3200  110.2490 O.2   113  PRO113     -0.2865
    200  CB       -20.1530   22.5170  112.8740 C.3   113  PRO113      0.0296
    201  CG       -19.9460   23.1250  114.1790 C.3   113  PRO113      0.0237
    202  CD       -19.4000   24.4980  113.9710 C.3   113  PRO113      0.0939
@<TRIPOS>BOND
     1   132   131    1
     2   140   139    1
     3   140   134    1
     4   139   138    1
     5   133   131    1
     6   128   131    1
     7   128   127    1
     8   128   129    1
     9   134   129   am
    10   134   135    1
    11   138   135    1
    12    84    83    1
    13    84    85    1
    14   129   130    2
    15   137   136    2
    16   135   136    1
    17   136   141   am
    18    86    85    2
    19    85    87   am
    20   122   121    2
    21   121   120    1
    22   141   142    1
    23    87    88    1
    24    94    92    1
    25   142   143    1
    26   120   119    1
    27   120   123    1
    28    92    91    1
    29    88    91    1
    30    88    89    1
    31    98    97    2
    32   126   124   ar
    33   123   124    1
    34   124   125   ar
    35   143   145   am
    36   143   144    2
    37    91    93    1
    38    89    90    2
    39    89    95   am
    40    97    96    1
    41   145   146    1
    42    95    96    1
    43   148   147    2
    44   117   116   ar
    45    96    99    1
    46    59    58    2
    47   113   114    2
    48   113   112    1
    49   147   146    1
    50   147   152   am
    51   146   149    1
    52   157   156    1
    53   112   111    1
    54   112   115    1
    55    58    57    1
    56   156   153    1
    57   156   158    1
    58   116   115    1
    59   116   118   ar
    60   149   150    1
    61   149   151    1
    62    99   101    1
    63    99   100    1
    64   152   153    1
    65   153   154    1
    66    52    51    2
    67    57    60    1
    68    57    56    1
    69   100   102    1
    70    54    53    1
    71    60    61    1
    72    60    62    1
    73    51    56   am
    74    51    50    1
    75   154   159   am
    76   154   155    2
    77   159   160    1
    78    53    50    1
    79    53    55    1
    80   162   161    2
    81    50    49    1
    82    49    44   am
    83   160   163    1
    84   160   161    1
    85   163   164    1
    86   161   168   am
    87   105   106    2
    88   105   104    1
    89    48    46    1
    90   104   107    1
    91   104   103    1
    92   107   108    1
    93    44    43    1
    94    44    45    2
    95    70    68    1
    96   168   169    1
    97   172   169    1
    98   172   173    1
    99   164   165    1
   100   165   166    1
   101   110   108    1
   102   169   170    1
   103    43    46    1
   104    43    42    1
   105   109   108    1
   106    46    47    1
   107    37    36    2
   108   175   173   ar
   109   175   177   ar
   110   173   174   ar
   111    68    67    1
   112    42    36   am
   113   166   167    1
   114   170   171    2
   115    63    64    1
   116    36    35    1
   117   177   178   ar
   118   174   176   ar
   119    40    38    1
   120    67    64    1
   121    67    69    1
   122    64    65    1
   123   178   176   ar
   124    35    38    1
   125    35    34    1
   126    66    65    2
   127    38    39    1
   128    34    28   am
   129    82    81    1
   130    33    31   ar
   131    30    31    1
   132    30    27    1
   133    31    32   ar
   134    80    81   ar
   135    80    78   ar
   136    28    27    1
   137    28    29    2
   138    39    41    1
   139    81    79   ar
   140   179   180    1
   141    27    26    1
   142   199   198    2
   143    78    76   ar
   144   180   181    1
   145   180   183    1
   146   181   182    2
   147   198   197    1
   148   193   192    2
   149    79    77   ar
   150   187   185   ar
   151   187   189   ar
   152    26    24   am
   153   185   184   ar
   154    25    24    2
   155   195   194    1
   156    76    77   ar
   157    76    75    1
   158   189   188   ar
   159   183   184    1
   160   184   186   ar
   161    21    19   am
   162    20    19    2
   163   197   196    1
   164   197   200    1
   165    24    23    1
   166   192   196   am
   167   192   191    1
   168   188   186   ar
   169    71    72    1
   170    19    18    1
   171   190   191    1
   172    75    72    1
   173   196   202    1
   174   200   201    1
   175   194   191    1
   176    72    73    1
   177    23    22    1
   178    74    73    2
   179    18    17    1
   180   202   201    1
   181    12    11    1
   182    22    15   am
   183    16    15    2
   184    17    14    1
   185    15    14    1
   186    11    10   ar
   187    11     9   ar
   188    10     8   ar
   189     9     7   ar
   190    14    13    1
   191     8     6   ar
   192     7     6   ar
   193     6     5    1
   194     5     2    1
   195     2     1    1
   196     2     3    1
   197     3     4    2
