@<TRIPOS>MOLECULE
tmp/3njpB02.pdb
 100 93 0 0 0
SMALL
GASTEIGER

@<TRIPOS>ATOM
      1  N         67.5040   33.9060   44.9820 N.3   320  GLU320     -0.1231
      2  CA        66.9700   32.7650   44.2500 C.3   320  GLU320      0.1699
      3  C         65.5730   32.3730   44.7210 C.2   320  GLU320      0.2592
      4  O         64.8900   31.5850   44.0670 O.2   320  GLU320     -0.2718
      5  CB        67.9120   31.5680   44.3800 C.3   320  GLU320      0.0402
      6  CG        68.2890   31.2350   45.8130 C.3   320  GLU320      0.1161
      7  CD        69.0930   29.9540   45.9230 C.2   320  GLU320      0.3649
      8  OE1       69.8670   29.8190   46.8940 O.co2 320  GLU320     -0.2457
      9  OE2       68.9530   29.0840   45.0370 O.co2 320  GLU320     -0.2457
     10  N         65.1510   32.9200   45.8560 N.am  321  PHE321     -0.1976
     11  CA        63.8520   32.5750   46.4220 C.3   321  PHE321      0.1639
     12  C         62.9790   33.8030   46.6390 C.2   321  PHE321      0.2290
     13  O         62.1560   33.8380   47.5530 O.2   321  PHE321     -0.2864
     14  CB        64.0270   31.8110   47.7350 C.3   321  PHE321      0.0560
     15  CG        64.9000   30.5990   47.6110 C.ar  321  PHE321     -0.0200
     16  CD1       64.5940   29.6020   46.7020 C.ar  321  PHE321     -0.0042
     17  CD2       66.0260   30.4550   48.4020 C.ar  321  PHE321     -0.0042
     18  CE1       65.3940   28.4890   46.5810 C.ar  321  PHE321     -0.0003
     19  CE2       66.8290   29.3410   48.2870 C.ar  321  PHE321     -0.0003
     20  CZ        66.5120   28.3560   47.3750 C.ar  321  PHE321     -0.0000
     21  N         60.5510   34.7960   44.8960 N.3   323  ASP323     -0.1225
     22  CA        59.1520   34.5100   44.5910 C.3   323  ASP323      0.1805
     23  C         58.5740   33.3740   45.4310 C.2   323  ASP323      0.2598
     24  O         57.3840   33.3680   45.7430 O.2   323  ASP323     -0.2718
     25  CB        58.9750   34.2090   43.1010 C.3   323  ASP323      0.1424
     26  CG        59.1130   35.4460   42.2360 C.2   323  ASP323      0.3668
     27  OD1       58.9670   35.3270   41.0010 O.co2 323  ASP323     -0.2456
     28  OD2       59.3640   36.5360   42.7910 O.co2 323  ASP323     -0.2456
     29  N         59.4140   32.4080   45.7870 N.am  324  SER324     -0.1938
     30  CA        58.9790   31.3110   46.6440 C.3   324  SER324      0.2055
     31  C         58.5960   31.8390   48.0200 C.2   324  SER324      0.2643
     32  O         59.4040   32.4740   48.6940 O.2   324  SER324     -0.2714
     33  CB        60.0790   30.2610   46.7620 C.3   324  SER324      0.2130
     34  OG        61.3520   30.8770   46.7840 O.3   324  SER324     -0.2179
     35  N         57.3620   31.5780   48.4350 N.am  325  LEU325     -0.1963
     36  CA        56.8450   32.1520   49.6730 C.3   325  LEU325      0.1728
     37  C         56.9380   31.2040   50.8660 C.2   325  LEU325      0.2616
     38  O         56.5500   31.5550   51.9790 O.2   325  LEU325     -0.2715
     39  CB        55.4070   32.6440   49.4800 C.3   325  LEU325      0.0311
     40  CG        54.3840   31.6740   48.8870 C.3   325  LEU325      0.0022
     41  CD1       53.9190   30.6760   49.9340 C.3   325  LEU325      0.0001
     42  CD2       53.2030   32.4450   48.3270 C.3   325  LEU325      0.0001
     43  N         57.4550   30.0060   50.6330 N.am  326  SER326     -0.1950
     44  CA        57.6390   29.0440   51.7110 C.3   326  SER326      0.1924
     45  C         58.5930   27.9370   51.3020 C.2   326  SER326      0.2314
     46  O         58.6770   27.5780   50.1280 O.2   326  SER326     -0.2863
     47  CB        56.3010   28.4400   52.1390 C.3   326  SER326      0.2116
     48  OG        56.5000   27.3760   53.0550 O.3   326  SER326     -0.2180
     49  N         59.4890   24.8630   50.2030 N.3   328  ASN328     -0.1240
     50  CA        58.7360   23.7830   49.5770 C.3   328  ASN328      0.1653
     51  C         59.6280   22.6320   49.1200 C.2   328  ASN328      0.2266
     52  O         60.8540   22.7200   49.1850 O.2   328  ASN328     -0.2867
     53  CB        57.8920   24.3140   48.4130 C.3   328  ASN328      0.1155
     54  CG        58.7070   25.1140   47.4150 C.2   328  ASN328      0.2627
     55  OD1       59.5780   24.5760   46.7320 O.2   328  ASN328     -0.2716
     56  ND2       58.4240   26.4090   47.3240 N.am  328  ASN328     -0.0877
     57  N         60.4480   21.7190   46.3860 N.3   330  THR330     -0.1203
     58  CA        61.2720   22.0750   45.2390 C.3   330  THR330      0.1994
     59  C         62.5580   22.7840   45.6540 C.2   330  THR330      0.2617
     60  O         63.6560   22.3380   45.3250 O.2   330  THR330     -0.2717
     61  CB        60.5030   22.9750   44.2560 C.3   330  THR330      0.1784
     62  OG1       59.5000   22.2030   43.5840 O.3   330  THR330     -0.2211
     63  CG2       61.4500   23.5740   43.2270 C.3   330  THR330      0.0376
     64  N         62.4180   23.8870   46.3810 N.am  331  ASN331     -0.1974
     65  CA        63.5670   24.7080   46.7450 C.3   331  ASN331      0.1688
     66  C         64.3160   24.2160   47.9800 C.2   331  ASN331      0.2292
     67  O         65.2820   24.8400   48.4150 O.2   331  ASN331     -0.2864
     68  CB        63.1440   26.1680   46.9340 C.3   331  ASN331      0.1181
     69  CG        62.1410   26.3480   48.0590 C.2   331  ASN331      0.2629
     70  OD1       62.2120   25.6770   49.0880 O.2   331  ASN331     -0.2716
     71  ND2       61.2030   27.2670   47.8680 N.am  331  ASN331     -0.0877
     72  N         51.0470   25.5890   52.9110 N.3   350  VAL350     -0.1245
     73  CA        51.0090   25.3710   51.4690 C.3   350  VAL350      0.1561
     74  C         52.1670   24.4890   51.0090 C.2   350  VAL350      0.2260
     75  O         52.1280   23.9090   49.9250 O.2   350  VAL350     -0.2867
     76  CB        51.0510   26.7090   50.7060 C.3   350  VAL350      0.0252
     77  CG1       52.3460   27.4430   51.0060 C.3   350  VAL350      0.0019
     78  CG2       50.8870   26.4820   49.2100 C.3   350  VAL350      0.0019
     79  N         51.3930   22.7580   46.3730 N.3   355  ASP355     -0.1239
     80  CA        50.7590   23.9110   45.7450 C.3   355  ASP355      0.1674
     81  C         50.6180   23.6970   44.2420 C.2   355  ASP355      0.2266
     82  O         51.6080   23.4910   43.5400 O.2   355  ASP355     -0.2867
     83  CB        51.5640   25.1810   46.0210 C.3   355  ASP355      0.1410
     84  CG        50.8520   26.4350   45.5530 C.2   355  ASP355      0.3668
     85  OD1       49.6100   26.4020   45.4200 O.co2 355  ASP355     -0.2456
     86  OD2       51.5350   27.4550   45.3220 O.co2 355  ASP355     -0.2456
     87  N         51.8780   27.0980   41.8370 N.3   358  THR358     -0.1218
     88  CA        53.2960   27.2820   41.5630 C.3   358  THR358      0.1862
     89  C         53.9140   25.9800   41.0630 C.2   358  THR358      0.2287
     90  O         55.1220   25.8950   40.8290 O.2   358  THR358     -0.2866
     91  CB        54.0490   27.7890   42.8070 C.3   358  THR358      0.1770
     92  OG1       53.8750   26.8640   43.8860 O.3   358  THR358     -0.2211
     93  CG2       53.5120   29.1460   43.2260 C.3   358  THR358      0.0375
     94  N         54.3540   22.9310   42.4790 N.3   360  THR360     -0.1218
     95  CA        55.2940   22.2630   43.3700 C.3   360  THR360      0.1862
     96  C         54.5950   21.1790   44.1830 C.2   360  THR360      0.2287
     97  O         53.5190   21.4040   44.7350 O.2   360  THR360     -0.2866
     98  CB        55.9830   23.2550   44.3300 C.3   360  THR360      0.1770
     99  OG1       55.0080   23.8310   45.2080 O.3   360  THR360     -0.2211
    100  CG2       56.6810   24.3600   43.5490 C.3   360  THR360      0.0375
@<TRIPOS>BOND
     1    90    89    2
     2    27    26   ar
     3    89    88    1
     4    88    87    1
     5    88    91    1
     6    26    28   ar
     7    26    25    1
     8    94    95    1
     9    91    93    1
    10    91    92    1
    11    25    22    1
    12    63    61    1
    13    95    96    1
    14    95    98    1
    15    82    81    2
    16   100    98    1
    17    62    61    1
    18     4     3    2
    19    96    97    2
    20    81    80    1
    21     2     5    1
    22     2     3    1
    23     2     1    1
    24    61    58    1
    25    98    99    1
    26     5     6    1
    27    22    21    1
    28    22    23    1
    29     3    10   am
    30     9     7   ar
    31    58    59    1
    32    58    57    1
    33    86    84   ar
    34    60    59    2
    35    85    84   ar
    36    23    24    2
    37    23    29   am
    38    84    83    1
    39    59    64   am
    40    80    83    1
    41    80    79    1
    42    29    30    1
    43     6     7    1
    44    10    11    1
    45     7     8   ar
    46    64    65    1
    47    11    12    1
    48    11    14    1
    49    18    16   ar
    50    18    20   ar
    51    12    13    2
    52    30    33    1
    53    30    31    1
    54    16    15   ar
    55    55    54    2
    56    65    68    1
    57    65    66    1
    58    33    34    1
    59    68    69    1
    60    56    54   am
    61    20    19   ar
    62    54    53    1
    63    15    14    1
    64    15    17   ar
    65    71    69   am
    66    66    67    2
    67    31    35   am
    68    31    32    2
    69    69    70    2
    70    19    17   ar
    71    42    40    1
    72    53    50    1
    73    35    36    1
    74    40    39    1
    75    40    41    1
    76    51    52    2
    77    51    50    1
    78    78    76    1
    79    39    36    1
    80    50    49    1
    81    36    37    1
    82    75    74    2
    83    46    45    2
    84    43    37   am
    85    43    44    1
    86    76    77    1
    87    76    73    1
    88    37    38    2
    89    74    73    1
    90    45    44    1
    91    73    72    1
    92    44    47    1
    93    47    48    1
