@<TRIPOS>MOLECULE
tmp/3njqA00.pdb
 130 124 0 0 0
SMALL
GASTEIGER

@<TRIPOS>ATOM
      1  N        -23.1560  -16.3320  -34.5680 N.3    40  ILE40      -0.1231
      2  CA       -24.1500  -15.7870  -35.4890 C.3    40  ILE40       0.1692
      3  C        -25.4210  -15.5670  -34.7080 C.2    40  ILE40       0.2591
      4  O        -25.9200  -16.4910  -34.0550 O.2    40  ILE40      -0.2718
      5  CB       -24.3750  -16.6890  -36.7240 C.3    40  ILE40       0.0266
      6  CG1      -23.0760  -16.7180  -37.5810 C.3    40  ILE40       0.0019
      7  CG2      -25.5130  -16.1140  -37.6090 C.3    40  ILE40       0.0020
      8  CD1      -22.9770  -17.9600  -38.5030 C.3    40  ILE40       0.0001
      9  N        -25.9020  -14.3220  -34.7480 N.am   41  GLU41      -0.1979
     10  CA       -27.1800  -13.9650  -34.2100 C.3    41  GLU41       0.1602
     11  C        -27.3480  -14.3940  -32.7460 C.2    41  GLU41       0.2287
     12  O        -28.4550  -14.7850  -32.3410 O.2    41  GLU41      -0.2864
     13  CB       -28.3210  -14.5650  -35.0810 C.3    41  GLU41       0.0415
     14  CG       -28.6540  -13.7940  -36.3390 C.3    41  GLU41       0.1163
     15  CD       -29.2510  -12.3960  -36.0310 C.2    41  GLU41       0.3649
     16  OE1      -29.8260  -12.2150  -34.9560 O.co2  41  GLU41      -0.2457
     17  OE2      -29.1810  -11.5080  -36.8870 O.co2  41  GLU41      -0.2457
     18  N        -22.9960  -21.5850  -32.7140 N.3    46  THR46      -0.1218
     19  CA       -22.6290  -21.0400  -34.0530 C.3    46  THR46       0.1862
     20  C        -21.3030  -20.1900  -34.0270 C.2    46  THR46       0.2287
     21  O        -21.1710  -19.2130  -34.7480 O.2    46  THR46      -0.2866
     22  CB       -23.7760  -20.2410  -34.7360 C.3    46  THR46       0.1770
     23  OG1      -24.0120  -18.9970  -34.0470 O.3    46  THR46      -0.2211
     24  CG2      -25.0880  -21.0850  -34.7580 C.3    46  THR46       0.0375
     25  N        -17.3490  -23.3320  -41.4150 N.3    72  PHE72      -0.1241
     26  CA       -18.0910  -22.1500  -41.7840 C.3    72  PHE72       0.1605
     27  C        -17.5140  -21.5400  -43.0210 C.2    72  PHE72       0.2264
     28  O        -18.2620  -21.1540  -43.9110 O.2    72  PHE72      -0.2867
     29  CB       -18.0920  -21.1040  -40.6870 C.3    72  PHE72       0.0534
     30  CG       -18.7400  -19.7680  -41.0940 C.ar   72  PHE72      -0.0203
     31  CD1      -20.1250  -19.6180  -41.0890 C.ar   72  PHE72      -0.0042
     32  CD2      -17.9610  -18.6830  -41.4620 C.ar   72  PHE72      -0.0042
     33  CE1      -20.7570  -18.3950  -41.4760 C.ar   72  PHE72      -0.0003
     34  CE2      -18.5890  -17.3980  -41.8280 C.ar   72  PHE72      -0.0003
     35  CZ       -19.9740  -17.2890  -41.8490 C.ar   72  PHE72      -0.0000
     36  N        -18.2530  -23.6950  -46.0220 N.3    75  LEU75      -0.1231
     37  CA       -19.6430  -23.6480  -46.3740 C.3    75  LEU75       0.1693
     38  C        -19.9370  -22.3050  -46.9910 C.2    75  LEU75       0.2591
     39  O        -20.5690  -22.2560  -48.0560 O.2    75  LEU75      -0.2718
     40  CB       -20.5420  -23.8310  -45.1610 C.3    75  LEU75       0.0284
     41  CG       -22.0450  -23.5630  -45.4070 C.3    75  LEU75       0.0019
     42  CD1      -22.5870  -24.6280  -46.4350 C.3    75  LEU75       0.0001
     43  CD2      -22.6570  -23.7860  -44.0770 C.3    75  LEU75       0.0001
     44  N        -19.5340  -21.1930  -46.3390 N.am   76  ALA76      -0.1980
     45  CA       -19.9070  -19.8670  -46.9050 C.3    76  ALA76       0.1597
     46  C        -19.3400  -19.6320  -48.3470 C.2    76  ALA76       0.2287
     47  O        -19.9940  -19.0410  -49.2250 O.2    76  ALA76      -0.2864
     48  CB       -19.4420  -18.6910  -45.9640 C.3    76  ALA76       0.0319
     49  N        -21.3730  -21.6520  -50.9390 N.3    79  LEU79      -0.1245
     50  CA       -22.6060  -20.9410  -51.1450 C.3    79  LEU79       0.1561
     51  C        -22.4380  -19.6140  -51.9290 C.2    79  LEU79       0.2260
     52  O        -23.2450  -19.2980  -52.7870 O.2    79  LEU79      -0.2867
     53  CB       -23.2190  -20.6650  -49.7670 C.3    79  LEU79       0.0270
     54  CG       -24.2590  -21.6200  -49.1890 C.3    79  LEU79       0.0019
     55  CD1      -24.0960  -23.0490  -49.5380 C.3    79  LEU79       0.0001
     56  CD2      -24.5230  -21.3950  -47.6580 C.3    79  LEU79       0.0001
     57  N        -28.0500  -16.7930  -52.0090 N.3    86  ALA86      -0.1245
     58  CA       -27.0150  -16.0270  -51.3890 C.3    86  ALA86       0.1562
     59  C        -26.6310  -14.8670  -52.2790 C.2    86  ALA86       0.2260
     60  O        -26.1880  -13.8110  -51.7790 O.2    86  ALA86      -0.2867
     61  CB       -25.7730  -16.9020  -51.1030 C.3    86  ALA86       0.0290
     62  N        -20.7300  -11.5160  -50.0360 N.3   101  ILE101     -0.1231
     63  CA       -21.8470  -12.2320  -49.4730 C.3   101  ILE101      0.1692
     64  C        -21.9150  -12.0690  -47.9330 C.2   101  ILE101      0.2591
     65  O        -22.9950  -11.7940  -47.3690 O.2   101  ILE101     -0.2718
     66  CB       -21.7670  -13.7320  -49.9380 C.3   101  ILE101      0.0266
     67  CG1      -22.7240  -13.9550  -51.1080 C.3   101  ILE101      0.0019
     68  CG2      -22.0990  -14.7300  -48.8500 C.3   101  ILE101      0.0020
     69  CD1      -22.2780  -13.4470  -52.3250 C.3   101  ILE101      0.0001
     70  N        -20.7540  -12.1860  -47.2650 N.am  102  LEU102     -0.1980
     71  CA       -20.6700  -11.8640  -45.8450 C.3   102  LEU102      0.1596
     72  C        -21.0120  -10.4220  -45.4950 C.2   102  LEU102      0.2287
     73  O        -21.7800  -10.1710  -44.5610 O.2   102  LEU102     -0.2864
     74  CB       -19.2950  -12.2270  -45.2600 C.3   102  LEU102      0.0297
     75  CG       -19.0080  -13.7370  -45.3320 C.3   102  LEU102      0.0022
     76  CD1      -17.5460  -13.9520  -45.0020 C.3   102  LEU102      0.0001
     77  CD2      -19.9390  -14.6390  -44.4840 C.3   102  LEU102      0.0001
     78  N        -24.9840  -10.2740  -46.1070 N.3   105  TRP105     -0.1227
     79  CA       -25.8670  -11.0460  -45.2790 C.3   105  TRP105      0.1737
     80  C        -25.6430  -10.8900  -43.7610 C.2   105  TRP105      0.2595
     81  O        -26.5750  -11.0930  -42.9850 O.2   105  TRP105     -0.2718
     82  CB       -25.7240  -12.5420  -45.6590 C.3   105  TRP105      0.0564
     83  CG       -26.4870  -12.9030  -46.9250 C.ar  105  TRP105      0.0003
     84  CD1      -25.9870  -12.9040  -48.2120 C.ar  105  TRP105      0.0946
     85  CD2      -27.8800  -13.2870  -47.0370 C.ar  105  TRP105      0.0152
     86  NE1      -26.9850  -13.2810  -49.1010 N.ar  105  TRP105     -0.2442
     87  CE2      -28.1450  -13.5120  -48.4140 C.ar  105  TRP105      0.0810
     88  CE3      -28.9170  -13.4690  -46.1140 C.ar  105  TRP105      0.0012
     89  CZ2      -29.3970  -13.9560  -48.8920 C.ar  105  TRP105      0.0191
     90  CZ3      -30.1600  -13.9030  -46.5890 C.ar  105  TRP105      0.0001
     91  CH2      -30.3880  -14.1330  -47.9770 C.ar  105  TRP105      0.0015
     92  N        -24.4050  -10.5580  -43.3460 N.am  106  LEU106     -0.1980
     93  CA       -24.0500  -10.4380  -41.9210 C.3   106  LEU106      0.1596
     94  C        -23.3640   -9.0590  -41.7100 C.2   106  LEU106      0.2287
     95  O        -22.1660   -8.9680  -41.4090 O.2   106  LEU106     -0.2864
     96  CB       -23.1410  -11.6230  -41.5270 C.3   106  LEU106      0.0297
     97  CG       -23.7940  -13.0230  -41.4520 C.3   106  LEU106      0.0022
     98  CD1      -22.6820  -14.0960  -41.1620 C.3   106  LEU106      0.0001
     99  CD2      -25.0130  -13.1380  -40.4440 C.3   106  LEU106      0.0001
    100  N        -27.7650  -10.4530  -38.8950 N.3   135  ALA135     -0.1245
    101  CA       -28.5200  -10.1420  -40.1200 C.3   135  ALA135      0.1562
    102  C        -29.4470   -9.0310  -39.7740 C.2   135  ALA135      0.2260
    103  O        -29.7430   -8.1890  -40.6040 O.2   135  ALA135     -0.2867
    104  CB       -29.3510  -11.3260  -40.5670 C.3   135  ALA135      0.0290
    105  N        -18.8540  -24.0460  -34.4630 N.3   185  PHE185     -0.1241
    106  CA       -19.7670  -24.1910  -35.6570 C.3   185  PHE185      0.1605
    107  C        -19.6490  -25.5480  -36.3680 C.2   185  PHE185      0.2264
    108  O        -18.5310  -26.0790  -36.5410 O.2   185  PHE185     -0.2867
    109  CB       -19.5820  -23.0450  -36.6560 C.3   185  PHE185      0.0534
    110  CG       -20.4720  -23.1390  -37.8820 C.ar  185  PHE185     -0.0203
    111  CD1      -21.7830  -22.6340  -37.8490 C.ar  185  PHE185     -0.0042
    112  CD2      -20.0060  -23.7720  -39.0660 C.ar  185  PHE185     -0.0042
    113  CE1      -22.6200  -22.6980  -38.9970 C.ar  185  PHE185     -0.0003
    114  CE2      -20.8310  -23.8440  -40.2030 C.ar  185  PHE185     -0.0003
    115  CZ       -22.1440  -23.3520  -40.1630 C.ar  185  PHE185     -0.0000
    116  N        -24.5070  -27.5740  -41.3920 N.3   188  PRO188     -0.2102
    117  CA       -25.7560  -28.3130  -41.6650 C.3   188  PRO188      0.1504
    118  C        -25.5700  -29.2510  -42.8440 C.2   188  PRO188      0.2575
    119  O        -26.2180  -30.2680  -42.9040 O.2   188  PRO188     -0.2718
    120  CB       -26.7400  -27.2030  -42.0530 C.3   188  PRO188      0.0282
    121  CG       -25.8500  -25.9560  -42.3160 C.3   188  PRO188      0.0208
    122  CD       -24.7330  -26.1200  -41.3380 C.3   188  PRO188      0.0893
    123  N        -24.6760  -28.9080  -43.7690 N.am  189  LEU189     -0.1980
    124  CA       -24.4030  -29.7850  -44.9060 C.3   189  LEU189      0.1596
    125  C        -23.2920  -30.7910  -44.5580 C.2   189  LEU189      0.2287
    126  O        -23.5480  -31.7590  -43.8230 O.2   189  LEU189     -0.2864
    127  CB       -24.0700  -28.9760  -46.1610 C.3   189  LEU189      0.0297
    128  CG       -25.2550  -28.4050  -46.9600 C.3   189  LEU189      0.0022
    129  CD1      -26.4410  -27.9860  -46.0830 C.3   189  LEU189      0.0001
    130  CD2      -24.7920  -27.2520  -47.8550 C.3   189  LEU189      0.0001
@<TRIPOS>BOND
     1    52    51    2
     2    69    67    1
     3    59    60    2
     4    59    58    1
     5    57    58    1
     6    51    50    1
     7    58    61    1
     8    50    49    1
     9    50    53    1
    10    67    66    1
    11    62    63    1
    12    66    63    1
    13    66    68    1
    14    53    54    1
    15    55    54    1
    16    63    64    1
    17    47    46    2
    18    54    56    1
    19    86    87   ar
    20    86    84   ar
    21    89    87   ar
    22    89    91   ar
    23    87    85   ar
    24    46    45    1
    25    84    83   ar
    26    39    38    2
    27    91    90   ar
    28    64    65    2
    29    64    70   am
    30   130   128    1
    31    70    71    1
    32    85    83   ar
    33    85    88   ar
    34    38    37    1
    35    38    44   am
    36   128   127    1
    37   128   129    1
    38    83    82    1
    39    45    44    1
    40    45    48    1
    41    90    88   ar
    42    42    41    1
    43    37    36    1
    44    37    40    1
    45   127   124    1
    46    78    79    1
    47    71    72    1
    48    71    74    1
    49    82    79    1
    50    72    73    2
    51    41    40    1
    52    41    43    1
    53    75    74    1
    54    75    76    1
    55    75    77    1
    56    79    80    1
    57   124   125    1
    58   124   123    1
    59   125   126    2
    60    28    27    2
    61   123   118   am
    62    80    92   am
    63    80    81    2
    64    92    93    1
    65    27    26    1
    66   119   118    2
    67   118   117    1
    68   121   120    1
    69   121   122    1
    70   120   117    1
    71    93    94    1
    72    93    96    1
    73    35    34   ar
    74    35    33   ar
    75    34    32   ar
    76    26    25    1
    77    26    29    1
    78    94    95    2
    79   117   116    1
    80    96    97    1
    81    33    31   ar
    82    32    30   ar
    83    97    98    1
    84    97    99    1
    85   116   122    1
    86    30    31   ar
    87    30    29    1
    88   103   102    2
    89   104   101    1
    90   114   115   ar
    91   114   112   ar
    92   115   113   ar
    93   101   102    1
    94   101   100    1
    95   112   110   ar
    96   113   111   ar
    97     8     6    1
    98   110   111   ar
    99   110   109    1
   100     7     5    1
   101     6     5    1
   102    17    15   ar
   103     5     2    1
   104   109   106    1
   105   108   107    2
   106   107   106    1
   107    14    15    1
   108    14    13    1
   109    15    16   ar
   110   106   105    1
   111     2     3    1
   112     2     1    1
   113    13    10    1
   114    24    22    1
   115    21    20    2
   116     9     3   am
   117     9    10    1
   118    22    19    1
   119    22    23    1
   120     3     4    2
   121    10    11    1
   122    19    20    1
   123    19    18    1
   124    11    12    2
