@<TRIPOS>MOLECULE
tmp/3njrA00.pdb
 160 155 0 0 0
SMALL
GASTEIGER

@<TRIPOS>ATOM
      1  N         32.4380    2.2080  -25.7190 N.3    17  GLN17      -0.1231
      2  CA        33.1390    1.0870  -26.3600 C.3    17  GLN17       0.1698
      3  C         33.1930   -0.2220  -25.5410 C.2    17  GLN17       0.2592
      4  O         33.8360   -1.1920  -25.9500 O.2    17  GLN17      -0.2718
      5  CB        34.5540    1.5150  -26.7750 C.3    17  GLN17       0.0381
      6  CG        35.1990    0.6560  -27.8860 C.3    17  GLN17       0.0905
      7  CD        34.2600    0.4030  -29.0890 C.2    17  GLN17       0.2608
      8  OE1       33.5780    1.3200  -29.5780 O.2    17  GLN17      -0.2717
      9  NE2       34.2350   -0.8480  -29.5680 N.am   17  GLN17      -0.0878
     10  N         32.5010   -0.2540  -24.4060 N.am   18  ILE18      -0.1966
     11  CA        32.5010   -1.4040  -23.4890 C.3    18  ILE18       0.1727
     12  C         32.1090   -2.7270  -24.1810 C.2    18  ILE18       0.2616
     13  O         31.3920   -2.7000  -25.1720 O.2    18  ILE18      -0.2715
     14  CB        31.5690   -1.0980  -22.2700 C.3    18  ILE18       0.0290
     15  CG1       31.7410   -2.1280  -21.1500 C.3    18  ILE18       0.0022
     16  CG2       30.1120   -0.9570  -22.7080 C.3    18  ILE18       0.0023
     17  CD1       31.3340   -1.6360  -19.7600 C.3    18  ILE18       0.0001
     18  N         32.6010   -3.8650  -23.6760 N.am   19  THR19      -0.1951
     19  CA        32.0660   -5.2010  -24.0430 C.3    19  THR19       0.1897
     20  C         30.6910   -5.4500  -23.3800 C.2    19  THR19       0.2313
     21  O         30.5520   -5.3030  -22.1700 O.2    19  THR19      -0.2863
     22  CB        33.0420   -6.3850  -23.6730 C.3    19  THR19       0.1794
     23  OG1       34.2760   -6.2690  -24.3980 O.3    19  THR19      -0.2208
     24  CG2       32.4140   -7.7550  -23.9870 C.3    19  THR19       0.0378
     25  N         45.3240   -8.2660  -21.4110 N.3    41  ASP41      -0.1225
     26  CA        44.0800   -7.8300  -22.0510 C.3    41  ASP41       0.1805
     27  C         44.4410   -6.8040  -23.1120 C.2    41  ASP41       0.2598
     28  O         44.6730   -5.6350  -22.8030 O.2    41  ASP41      -0.2718
     29  CB        43.1010   -7.2520  -21.0010 C.3    41  ASP41       0.1424
     30  CG        41.8220   -6.6180  -21.6150 C.2    41  ASP41       0.3668
     31  OD1       41.6610   -6.5740  -22.8790 O.co2  41  ASP41      -0.2456
     32  OD2       40.9580   -6.1420  -20.8150 O.co2  41  ASP41      -0.2456
     33  N         44.4970   -7.2390  -24.3640 N.am   42  ILE42      -0.1966
     34  CA        44.8230   -6.3250  -25.4490 C.3    42  ILE42       0.1727
     35  C         43.5670   -5.6420  -25.9780 C.2    42  ILE42       0.2617
     36  O         42.5810   -6.3010  -26.3090 O.2    42  ILE42      -0.2715
     37  CB        45.5920   -7.0250  -26.5750 C.3    42  ILE42       0.0290
     38  CG1       46.9520   -7.5100  -26.0550 C.3    42  ILE42       0.0022
     39  CG2       45.7720   -6.0770  -27.7640 C.3    42  ILE42       0.0023
     40  CD1       47.4100   -8.8050  -26.6500 C.3    42  ILE42       0.0001
     41  N         43.5970   -4.3180  -26.0310 N.am   43  GLY43      -0.1940
     42  CA        42.4450   -3.5550  -26.4940 C.3    43  GLY43       0.2014
     43  C         41.5020   -3.2630  -25.3500 C.2    43  GLY43       0.2639
     44  O         40.2730   -3.3390  -25.5000 O.2    43  GLY43      -0.2714
     45  N         42.0860   -2.9120  -24.2100 N.am   44  GLY44      -0.1939
     46  CA        41.3450   -2.7330  -22.9710 C.3    44  GLY44       0.2014
     47  C         40.0310   -1.9940  -23.1040 C.2    44  GLY44       0.2639
     48  O         39.0260   -2.4360  -22.5720 O.2    44  GLY44      -0.2714
     49  N         40.0310   -0.8720  -23.8150 N.am   45  GLY45      -0.1939
     50  CA        38.8350   -0.0660  -23.9410 C.3    45  GLY45       0.2014
     51  C         38.5310    0.5390  -22.5940 C.2    45  GLY45       0.2640
     52  O         39.1690    1.5090  -22.1810 O.2    45  GLY45      -0.2714
     53  N         37.5560   -0.0330  -21.8990 N.am   46  SER46      -0.1935
     54  CA        37.2140    0.4530  -20.5770 C.3    46  SER46       0.2055
     55  C         37.6170   -0.5440  -19.4890 C.2    46  SER46       0.2644
     56  O         37.2980   -0.3440  -18.3130 O.2    46  SER46      -0.2714
     57  CB        35.7220    0.7750  -20.4980 C.3    46  SER46       0.2130
     58  OG        34.9600   -0.3880  -20.1540 O.3    46  SER46      -0.2179
     59  N         38.3010   -1.6120  -19.9040 N.am   47  GLY47      -0.1939
     60  CA        38.8920   -2.6140  -19.0120 C.3    47  GLY47       0.2014
     61  C         37.9430   -3.5790  -18.3210 C.2    47  GLY47       0.2640
     62  O         38.2910   -4.1620  -17.2930 O.2    47  GLY47      -0.2714
     63  N         36.7460   -3.7720  -18.8600 N.am   48  SER48      -0.1935
     64  CA        35.7250   -4.5440  -18.1350 C.3    48  SER48       0.2055
     65  C         36.0630   -6.0400  -18.0110 C.2    48  SER48       0.2642
     66  O         35.7620   -6.6750  -17.0030 O.2    48  SER48      -0.2714
     67  CB        34.3410   -4.3530  -18.7730 C.3    48  SER48       0.2130
     68  OG        34.2420   -5.0680  -20.0040 O.3    48  SER48      -0.2179
     69  N         36.6740   -6.5950  -19.0500 N.am   49  VAL49      -0.1977
     70  CA        37.1040   -7.9900  -19.0420 C.3    49  VAL49       0.1596
     71  C         38.1040   -8.2280  -17.9090 C.2    49  VAL49       0.2287
     72  O         37.9740   -9.2150  -17.1480 O.2    49  VAL49      -0.2864
     73  CB        37.7040   -8.3830  -20.4160 C.3    49  VAL49       0.0276
     74  CG1       38.4710   -9.6740  -20.3380 C.3    49  VAL49       0.0022
     75  CG2       36.6120   -8.4830  -21.4390 C.3    49  VAL49       0.0022
     76  N         46.0850   -3.2130  -21.7920 N.3    63  ILE63      -0.1231
     77  CA        46.7860   -2.4100  -22.7970 C.3    63  ILE63       0.1692
     78  C         45.8110   -1.6140  -23.6560 C.2    63  ILE63       0.2592
     79  O         45.0390   -2.2040  -24.4040 O.2    63  ILE63      -0.2718
     80  CB        47.5540   -3.3410  -23.7710 C.3    63  ILE63       0.0266
     81  CG1       47.9890   -4.6590  -23.0890 C.3    63  ILE63       0.0019
     82  CG2       48.6790   -2.5930  -24.5270 C.3    63  ILE63       0.0020
     83  CD1       49.0980   -4.5310  -22.0860 C.3    63  ILE63       0.0001
     84  N         45.8550   -0.2850  -23.5660 N.am   64  GLU64      -0.1966
     85  CA        44.9770    0.6040  -24.3540 C.3    64  GLU64       0.1718
     86  C         45.7360    1.8820  -24.8210 C.2    64  GLU64       0.2458
     87  O         46.4150    2.5320  -24.0000 O.2    64  GLU64      -0.2730
     88  CB        43.7320    0.9530  -23.5230 C.3    64  GLU64       0.0428
     89  CG        42.8400    2.0990  -24.0230 C.3    64  GLU64       0.1163
     90  CD        42.2550    1.8660  -25.4230 C.2    64  GLU64       0.3649
     91  OE1       41.5160    0.8740  -25.6320 O.co2  64  GLU64      -0.2457
     92  OE2       42.5350    2.6950  -26.3160 O.co2  64  GLU64      -0.2457
     93  N         45.6550    2.2390  -26.1300 N.am   65  PRO65      -0.2716
     94  CA        46.3910    3.4460  -26.5510 C.3    65  PRO65       0.1536
     95  C         45.7550    4.7540  -26.0930 C.2    65  PRO65       0.2598
     96  O         46.4770    5.6720  -25.6910 O.2    65  PRO65      -0.2715
     97  CB        46.4220    3.3490  -28.0890 C.3    65  PRO65       0.0310
     98  CG        45.2850    2.4610  -28.4310 C.3    65  PRO65       0.0237
     99  CD        45.1560    1.4830  -27.2880 C.3    65  PRO65       0.0939
    100  N         44.4300    4.8270  -26.1140 N.am   66  ARG66      -0.1978
    101  CA        43.7380    6.1000  -25.8950 C.3    66  ARG66       0.1597
    102  C         43.7310    6.5750  -24.4400 C.2    66  ARG66       0.2287
    103  O         43.1230    5.9410  -23.5670 O.2    66  ARG66      -0.2864
    104  CB        42.3150    6.0370  -26.4460 C.3    66  ARG66       0.0334
    105  CG        42.2670    5.9420  -27.9520 C.3    66  ARG66       0.0492
    106  CD        40.8550    6.0390  -28.4690 C.3    66  ARG66       0.2205
    107  NE        40.0980    7.0390  -27.7310 N.pl3  66  ARG66      -0.0865
    108  CZ        38.8340    7.3580  -27.9830 C.cat  66  ARG66       0.5346
    109  NH1       38.1790    6.7660  -28.9760 N.pl3  66  ARG66       0.1354
    110  NH2       38.2250    8.2770  -27.2370 N.pl3  66  ARG66       0.1354
    111  N         40.3910    6.6920  -22.6300 N.3    69  ARG69      -0.1245
    112  CA        39.8590    5.3820  -22.2520 C.3    69  ARG69       0.1563
    113  C         40.6390    4.7800  -21.0900 C.2    69  ARG69       0.2260
    114  O         40.0570    4.1350  -20.2070 O.2    69  ARG69      -0.2867
    115  CB        39.8380    4.4340  -23.4460 C.3    69  ARG69       0.0307
    116  CG        38.9450    4.9180  -24.5590 C.3    69  ARG69       0.0489
    117  CD        38.6790    3.7960  -25.4970 C.3    69  ARG69       0.2205
    118  NE        37.3640    3.8620  -26.1190 N.pl3  69  ARG69      -0.0865
    119  CZ        37.1510    3.8120  -27.4330 C.cat  69  ARG69       0.5346
    120  NH1       38.1710    3.6940  -28.2780 N.pl3  69  ARG69       0.1354
    121  NH2       35.9110    3.8670  -27.9090 N.pl3  69  ARG69       0.1354
    122  N         49.2870    2.2720  -24.4050 N.3    91  GLY91      -0.1210
    123  CA        50.0970    1.9010  -25.5610 C.3    91  GLY91       0.1956
    124  C         49.4250    0.9950  -26.5710 C.2    91  GLY91       0.2613
    125  O         48.2110    0.7680  -26.5320 O.2    91  GLY91      -0.2717
    126  N         50.2400    0.4700  -27.4740 N.am   92  THR92      -0.1938
    127  CA        49.7800   -0.3350  -28.5920 C.3    92  THR92       0.2028
    128  C         50.4900   -1.6800  -28.5460 C.2    92  THR92       0.2642
    129  O         51.7010   -1.7470  -28.3240 O.2    92  THR92      -0.2714
    130  CB        50.1130    0.3850  -29.9180 C.3    92  THR92       0.1808
    131  OG1       49.3450    1.5850  -29.9930 O.3    92  THR92      -0.2208
    132  CG2       49.7820   -0.4660  -31.1270 C.3    92  THR92       0.0379
    133  N         49.7300   -2.7520  -28.7300 N.am   93  ALA93      -0.1977
    134  CA        50.3280   -4.0620  -28.9690 C.3    93  ALA93       0.1597
    135  C         50.7130   -4.1170  -30.4450 C.2    93  ALA93       0.2287
    136  O         49.9120   -3.7260  -31.3070 O.2    93  ALA93      -0.2864
    137  CB        49.3610   -5.1920  -28.6090 C.3    93  ALA93       0.0319
    138  N         43.7390  -12.0300  -23.8470 N.3   107  PHE107     -0.1241
    139  CA        42.4710  -11.6970  -24.4710 C.3   107  PHE107      0.1605
    140  C         42.7060  -10.6050  -25.4640 C.2   107  PHE107      0.2264
    141  O         43.2730   -9.5680  -25.1370 O.2   107  PHE107     -0.2867
    142  CB        41.4120  -11.2480  -23.4460 C.3   107  PHE107      0.0534
    143  CG        40.1690  -10.6480  -24.0750 C.ar  107  PHE107     -0.0203
    144  CD1       39.2540  -11.4490  -24.7530 C.ar  107  PHE107     -0.0042
    145  CD2       39.9320   -9.2700  -24.0160 C.ar  107  PHE107     -0.0042
    146  CE1       38.1120  -10.8970  -25.3570 C.ar  107  PHE107     -0.0003
    147  CE2       38.7840   -8.7000  -24.6280 C.ar  107  PHE107     -0.0003
    148  CZ        37.8660   -9.5270  -25.2870 C.ar  107  PHE107     -0.0000
    149  N         40.4970   -8.2170  -27.5570 N.3   109  GLY109     -0.1210
    150  CA        39.3760   -7.4390  -28.0820 C.3   109  GLY109      0.1956
    151  C         39.9790   -6.3000  -28.9040 C.2   109  GLY109      0.2612
    152  O         39.2930   -5.6760  -29.7150 O.2   109  GLY109     -0.2717
    153  N         41.2750   -6.0410  -28.6980 N.am  110  GLY110     -0.1942
    154  CA        42.0040   -4.9700  -29.3840 C.3   110  GLY110      0.2014
    155  C         42.3110   -5.2800  -30.8320 C.2   110  GLY110      0.2639
    156  O         41.8900   -6.3220  -31.3490 O.2   110  GLY110     -0.2714
    157  N         43.0320   -4.3690  -31.4920 N.am  111  GLY111     -0.1954
    158  CA        43.3940   -4.5160  -32.9130 C.3   111  GLY111      0.1869
    159  C         44.2340   -5.7570  -33.1570 C.2   111  GLY111      0.2309
    160  O         45.4740   -5.7170  -33.0870 O.2   111  GLY111     -0.2863
@<TRIPOS>BOND
     1   159   160    2
     2   159   158    1
     3   158   157    1
     4   157   155   am
     5   156   155    2
     6   136   135    2
     7   132   130    1
     8   155   154    1
     9   135   134    1
    10   131   130    1
    11   130   127    1
    12   152   151    2
    13     8     7    2
    14     9     7   am
    15   154   153    1
    16     7     6    1
    17   109   108    1
    18   134   133    1
    19   134   137    1
    20   151   153   am
    21   151   150    1
    22   133   128   am
    23   127   128    1
    24   127   126    1
    25   128   129    2
    26   106   105    1
    27   106   107    1
    28    98    97    1
    29    98    99    1
    30   120   119    1
    31    97    94    1
    32   150   149    1
    33   108   107    2
    34   108   110    1
    35   105   104    1
    36   121   119    1
    37     6     5    1
    38    39    37    1
    39   126   124   am
    40   119   118    2
    41    99    93    1
    42     5     2    1
    43    40    38    1
    44    37    38    1
    45    37    34    1
    46   124   125    2
    47   124   123    1
    48    94    93    1
    49    94    95    1
    50    42    41    1
    51    42    43    1
    52   104   101    1
    53     2     1    1
    54     2     3    1
    55    92    90   ar
    56    36    35    2
    57    93    86   am
    58   118   117    1
    59   100    95   am
    60   100   101    1
    61    95    96    2
    62    41    35   am
    63    35    34    1
    64     4     3    2
    65   101   102    1
    66    91    90   ar
    67   123   122    1
    68     3    10   am
    69    44    43    2
    70   117   116    1
    71   140   141    2
    72   140   139    1
    73    34    33    1
    74    90    89    1
    75   146   148   ar
    76   146   144   ar
    77    43    45   am
    78   148   147   ar
    79    13    12    2
    80    86    85    1
    81    86    87    2
    82   144   143   ar
    83   147   145   ar
    84   116   115    1
    85    82    80    1
    86   139   138    1
    87   139   142    1
    88   102   103    2
    89    10    11    1
    90    79    78    2
    91    23    22    1
    92    33    27   am
    93    85    84    1
    94    85    88    1
    95    45    46    1
    96    12    18   am
    97    12    11    1
    98   143   145   ar
    99   143   142    1
   100    19    18    1
   101    19    22    1
   102    19    20    1
   103    89    88    1
   104    24    22    1
   105    50    49    1
   106    50    51    1
   107    49    47   am
   108    80    81    1
   109    80    77    1
   110    78    84   am
   111    78    77    1
   112    11    14    1
   113   115   112    1
   114    20    21    2
   115    27    28    2
   116    27    26    1
   117    47    46    1
   118    47    48    2
   119    81    83    1
   120    31    30   ar
   121    77    76    1
   122    16    14    1
   123   111   112    1
   124    51    52    2
   125    51    53   am
   126    14    15    1
   127   112   113    1
   128    26    25    1
   129    26    29    1
   130    53    54    1
   131    30    29    1
   132    30    32   ar
   133    75    73    1
   134    15    17    1
   135   113   114    2
   136    54    57    1
   137    54    55    1
   138    57    58    1
   139    73    74    1
   140    73    70    1
   141    68    67    1
   142    59    55   am
   143    59    60    1
   144    55    56    2
   145    69    70    1
   146    69    65   am
   147    70    71    1
   148    60    61    1
   149    63    61   am
   150    63    64    1
   151    67    64    1
   152    61    62    2
   153    64    65    1
   154    65    66    2
   155    71    72    2
