@<TRIPOS>MOLECULE
tmp/3njuA00.pdb
 147 146 0 0 0
SMALL
GASTEIGER

@<TRIPOS>ATOM
      1  N         -2.5020  -12.7940   -9.1730 N.3     2  LEU2       -0.1245
      2  CA        -3.4870  -13.0980   -8.1780 C.3     2  LEU2        0.1561
      3  C         -3.8000  -14.6070   -8.0880 C.2     2  LEU2        0.2260
      4  O         -4.0230  -15.1120   -7.0330 O.2     2  LEU2       -0.2867
      5  CB        -4.7870  -12.3570   -8.5170 C.3     2  LEU2        0.0270
      6  CG        -5.1870  -11.2150   -7.5920 C.3     2  LEU2        0.0019
      7  CD1       -5.9920  -11.8870   -6.5250 C.3     2  LEU2        0.0001
      8  CD2       -4.0100  -10.5440   -6.9990 C.3     2  LEU2        0.0001
      9  N         -1.1120  -16.2040   -6.0670 N.3     5  PHE5       -0.1227
     10  CA        -1.2960  -15.8930   -4.6510 C.3     5  PHE5        0.1736
     11  C         -2.4050  -16.7540   -4.0470 C.2     5  PHE5        0.2595
     12  O         -2.2160  -17.2750   -2.9390 O.2     5  PHE5       -0.2718
     13  CB        -1.5830  -14.4070   -4.4770 C.3     5  PHE5        0.0547
     14  CG        -1.6490  -13.9500   -3.0700 C.ar    5  PHE5       -0.0202
     15  CD1       -0.8220  -14.4340   -2.0950 C.ar    5  PHE5       -0.0042
     16  CD2       -2.5640  -12.9500   -2.7550 C.ar    5  PHE5       -0.0042
     17  CE1       -0.8710  -13.9380   -0.7750 C.ar    5  PHE5       -0.0003
     18  CE2       -2.6190  -12.3970   -1.4810 C.ar    5  PHE5       -0.0003
     19  CZ        -1.8210  -12.8990   -0.4820 C.ar    5  PHE5       -0.0000
     20  N         -3.5370  -16.8660   -4.7190 N.am    6  LYS6       -0.1980
     21  CA        -4.6200  -17.7340   -4.2340 C.3     6  LYS6        0.1596
     22  C         -4.0740  -19.1600   -3.9980 C.2     6  LYS6        0.2287
     23  O         -4.3550  -19.7820   -2.9550 O.2     6  LYS6       -0.2864
     24  CB        -5.7460  -17.6890   -5.2720 C.3     6  LYS6        0.0298
     25  CG        -6.8690  -18.7120   -5.1690 C.3     6  LYS6        0.0038
     26  CD        -7.5120  -18.8590   -6.5360 C.3     6  LYS6        0.0206
     27  CE        -7.7820  -17.5040   -7.2000 C.3     6  LYS6        0.1093
     28  NZ        -8.2630  -17.6570   -8.6190 N.3     6  LYS6       -0.1314
     29  N         -2.1380  -19.4480   -0.8930 N.3     9  ILE9       -0.1245
     30  CA        -3.0470  -19.4380    0.2570 C.3     9  ILE9        0.1561
     31  C         -3.6930  -20.8250    0.4040 C.2     9  ILE9        0.2260
     32  O         -3.7310  -21.3700    1.5230 O.2     9  ILE9       -0.2867
     33  CB        -4.1380  -18.3490    0.0810 C.3     9  ILE9        0.0252
     34  CG1       -3.5270  -16.9270    0.1060 C.3     9  ILE9        0.0019
     35  CG2       -5.1910  -18.4330    1.2180 C.3     9  ILE9        0.0019
     36  CD1       -4.5050  -15.8930   -0.4340 C.3     9  ILE9        0.0001
     37  N        -10.1670  -20.1340    0.2570 N.3    18  TRP18      -0.1241
     38  CA        -9.2760  -19.0190    0.0400 C.3    18  TRP18       0.1605
     39  C        -10.0570  -17.6820    0.0500 C.2    18  TRP18       0.2264
     40  O         -9.5160  -16.6370    0.3960 O.2    18  TRP18      -0.2867
     41  CB        -8.5620  -19.2260   -1.2880 C.3    18  TRP18       0.0550
     42  CG        -9.4510  -19.0760   -2.4620 C.ar   18  TRP18       0.0003
     43  CD1      -10.1200  -20.0680   -3.1440 C.ar   18  TRP18       0.0946
     44  CD2       -9.7590  -17.8540   -3.1210 C.ar   18  TRP18       0.0152
     45  NE1      -10.8400  -19.5180   -4.1890 N.ar   18  TRP18      -0.2442
     46  CE2      -10.6380  -18.1590   -4.1900 C.ar   18  TRP18       0.0810
     47  CE3       -9.3980  -16.5170   -2.8960 C.ar   18  TRP18       0.0012
     48  CZ2      -11.1470  -17.1780   -5.0410 C.ar   18  TRP18       0.0191
     49  CZ3       -9.9330  -15.5430   -3.7270 C.ar   18  TRP18       0.0001
     50  CH2      -10.7740  -15.8850   -4.8020 C.ar   18  TRP18       0.0015
     51  N        -10.0870  -14.9010    2.7040 N.3    21  PHE21      -0.1227
     52  CA        -9.0580  -13.8560    2.8250 C.3    21  PHE21       0.1736
     53  C         -9.2110  -12.7420    1.8010 C.2    21  PHE21       0.2595
     54  O         -8.4060  -11.8050    1.7990 O.2    21  PHE21      -0.2718
     55  CB        -7.6650  -14.4920    2.6740 C.3    21  PHE21       0.0547
     56  CG        -7.3950  -15.5270    3.6990 C.ar   21  PHE21      -0.0202
     57  CD1       -6.9900  -15.1670    4.9880 C.ar   21  PHE21      -0.0042
     58  CD2       -7.5700  -16.8780    3.4010 C.ar   21  PHE21      -0.0042
     59  CE1       -6.7240  -16.1050    5.9400 C.ar   21  PHE21      -0.0003
     60  CE2       -7.3360  -17.8220    4.3530 C.ar   21  PHE21      -0.0003
     61  CZ        -6.9190  -17.4540    5.6400 C.ar   21  PHE21      -0.0000
     62  N        -10.1840  -12.8640    0.8950 N.am   22  ALA22      -0.1980
     63  CA       -10.2920  -11.9430   -0.2400 C.3    22  ALA22       0.1597
     64  C        -11.1130  -10.7220    0.1050 C.2    22  ALA22       0.2287
     65  O        -11.1830   -9.8040   -0.6950 O.2    22  ALA22      -0.2864
     66  CB       -10.8950  -12.5990   -1.4050 C.3    22  ALA22       0.0319
     67  N         -7.5810   -4.2940    4.8510 N.3    27  TYR27      -0.1227
     68  CA        -6.5070   -4.4800    3.8810 C.3    27  TYR27       0.1736
     69  C         -6.5620   -5.7560    3.0580 C.2    27  TYR27       0.2596
     70  O         -5.8810   -5.8050    2.0320 O.2    27  TYR27      -0.2718
     71  CB        -5.1540   -4.3650    4.5920 C.3    27  TYR27       0.0548
     72  CG        -4.8690   -2.9520    4.9960 C.ar   27  TYR27      -0.0200
     73  CD1       -5.2190   -2.4990    6.2710 C.ar   27  TYR27      -0.0009
     74  CD2       -4.2450   -2.0680    4.1150 C.ar   27  TYR27      -0.0009
     75  CE1       -4.9760   -1.1800    6.6520 C.ar   27  TYR27       0.0417
     76  CE2       -3.9800   -0.7550    4.5120 C.ar   27  TYR27       0.0417
     77  CZ        -4.3690   -0.3120    5.7840 C.ar   27  TYR27       0.1957
     78  OH        -4.1250    1.0070    6.1750 O.3    27  TYR27      -0.2866
     79  N         -7.3090   -6.7740    3.4860 N.am   28  CYS28      -0.1956
     80  CA        -7.3490   -7.9980    2.7020 C.3    28  CYS28       0.1843
     81  C         -8.3990   -7.8550    1.6210 C.2    28  CYS28       0.2626
     82  O         -9.5970   -7.9140    1.9060 O.2    28  CYS28      -0.2714
     83  CB        -7.6260   -9.2220    3.5950 C.3    28  CYS28       0.0997
     84  SG        -6.6240   -9.3900    5.0800 S.3    28  CYS28      -0.0797
     85  N         -7.9600   -7.7220    0.3820 N.am   29  GLY29      -0.1954
     86  CA        -8.8470   -7.5960   -0.7740 C.3    29  GLY29       0.1869
     87  C         -8.7280   -6.2100   -1.3760 C.2    29  GLY29       0.2309
     88  O         -7.6970   -5.5760   -1.2200 O.2    29  GLY29      -0.2863
     89  N         -2.1730   -8.3840    5.8250 N.3    44  CYS44      -0.1235
     90  CA        -2.5970   -7.8370    4.5460 C.3    44  CYS44       0.1677
     91  C         -2.1380   -6.4280    4.2850 C.2    44  CYS44       0.2270
     92  O         -1.8390   -6.0740    3.1220 O.2    44  CYS44      -0.2867
     93  CB        -4.1010   -7.8480    4.4810 C.3    44  CYS44       0.0956
     94  SG        -4.7060   -9.5810    4.4540 S.3    44  CYS44      -0.0801
     95  N          1.3110   -6.8150    3.0500 N.3    47  HIS47      -0.1226
     96  CA         1.2590   -7.3310    1.6580 C.3    47  HIS47       0.1752
     97  C          0.9030   -6.2230    0.6810 C.2    47  HIS47       0.2596
     98  O          1.5390   -6.0570   -0.3780 O.2    47  HIS47      -0.2718
     99  CB         0.2330   -8.4540    1.6400 C.3    47  HIS47       0.0759
    100  CG         0.1060   -9.0990    0.3010 C.ar   47  HIS47       0.0818
    101  ND1       -0.9350   -8.8270   -0.5720 N.ar   47  HIS47      -0.2268
    102  CD2        0.9380   -9.9400   -0.3520 C.ar   47  HIS47       0.1154
    103  CE1       -0.7540   -9.5180   -1.6970 C.ar   47  HIS47       0.1986
    104  NE2        0.3880  -10.1940   -1.5910 N.ar   47  HIS47      -0.2212
    105  N         -0.0700   -5.3790    1.0020 N.am   48  ASP48      -0.1974
    106  CA        -0.4750   -4.2660    0.1670 C.3    48  ASP48       0.1709
    107  C          0.6710   -3.2820   -0.0010 C.2    48  ASP48       0.2293
    108  O          0.9240   -2.7690   -1.1030 O.2    48  ASP48      -0.2864
    109  CB        -1.6750   -3.5640    0.8200 C.3    48  ASP48       0.1436
    110  CG        -2.9420   -4.4110    0.8400 C.2    48  ASP48       0.3671
    111  OD1       -3.0810   -5.4050    0.1430 O.co2  48  ASP48      -0.2456
    112  OD2       -3.8810   -4.0390    1.6030 O.co2  48  ASP48      -0.2456
    113  N          3.2570   -4.7280   -2.3620 N.3    51  TYR51      -0.1241
    114  CA         2.8390   -4.4960   -3.7530 C.3    51  TYR51       0.1605
    115  C          3.0930   -3.0790   -4.1700 C.2    51  TYR51       0.2264
    116  O          3.5970   -2.8640   -5.2760 O.2    51  TYR51      -0.2867
    117  CB         1.3730   -4.8140   -3.9460 C.3    51  TYR51       0.0534
    118  CG         1.0560   -6.2650   -4.2180 C.ar   51  TYR51      -0.0201
    119  CD1        1.9810   -7.2900   -3.9610 C.ar   51  TYR51      -0.0009
    120  CD2       -0.1880   -6.6100   -4.6840 C.ar   51  TYR51      -0.0009
    121  CE1        1.6630   -8.6200   -4.2690 C.ar   51  TYR51       0.0417
    122  CE2       -0.5220   -7.9290   -4.9530 C.ar   51  TYR51       0.0417
    123  CZ         0.4010   -8.9110   -4.7340 C.ar   51  TYR51       0.1957
    124  OH         0.0010  -10.2180   -4.9970 O.3    51  TYR51      -0.2866
    125  N         -0.5350   -7.7240   -9.4610 N.3    63  TYR63      -0.1241
    126  CA        -1.7110   -8.6020   -9.6480 C.3    63  TYR63       0.1605
    127  C         -1.5580   -9.4660  -10.9000 C.2    63  TYR63       0.2264
    128  O         -2.2990  -10.4750  -11.0520 O.2    63  TYR63      -0.2867
    129  CB        -3.0410   -7.8360   -9.8090 C.3    63  TYR63       0.0534
    130  CG        -3.6790   -7.1990   -8.5920 C.ar   63  TYR63      -0.0201
    131  CD1       -5.0030   -6.7730   -8.6650 C.ar   63  TYR63      -0.0009
    132  CD2       -2.9540   -6.8310   -7.4780 C.ar   63  TYR63      -0.0009
    133  CE1       -5.5910   -6.1790   -7.5730 C.ar   63  TYR63       0.0417
    134  CE2       -3.5400   -6.2280   -6.3550 C.ar   63  TYR63       0.0417
    135  CZ        -4.8300   -5.8740   -6.4210 C.ar   63  TYR63       0.1957
    136  OH        -5.3950   -5.2830   -5.3110 O.3    63  TYR63      -0.2866
    137  N         -0.6660  -15.4780    6.9630 N.3   100  PHE100     -0.1241
    138  CA        -2.0590  -15.8850    7.0340 C.3   100  PHE100      0.1605
    139  C         -2.2190  -17.1550    7.8490 C.2   100  PHE100      0.2264
    140  O         -3.1450  -17.2730    8.6660 O.2   100  PHE100     -0.2867
    141  CB        -2.6710  -16.1230    5.6520 C.3   100  PHE100      0.0534
    142  CG        -2.9420  -14.8810    4.8390 C.ar  100  PHE100     -0.0203
    143  CD1       -2.5670  -13.5980    5.2540 C.ar  100  PHE100     -0.0042
    144  CD2       -3.5490  -15.0360    3.6010 C.ar  100  PHE100     -0.0042
    145  CE1       -2.7690  -12.4960    4.4000 C.ar  100  PHE100     -0.0003
    146  CE2       -3.7600  -13.9600    2.7810 C.ar  100  PHE100     -0.0003
    147  CZ        -3.4120  -12.6870    3.1840 C.ar  100  PHE100     -0.0000
@<TRIPOS>BOND
     1   128   127    2
     2   127   126    1
     3   129   126    1
     4   129   130    1
     5   126   125    1
     6     1     2    1
     7   131   130   ar
     8   131   133   ar
     9    28    27    1
    10   130   132   ar
    11     5     2    1
    12     5     6    1
    13     2     3    1
    14     3     4    2
    15     6     8    1
    16     6     7    1
    17   133   135   ar
    18   132   134   ar
    19    27    26    1
    20    26    25    1
    21   135   134   ar
    22   135   136    1
    23     9    10    1
    24   116   115    2
    25    24    25    1
    26    24    21    1
    27    48    50   ar
    28    48    46   ar
    29   124   123    1
    30   122   123   ar
    31   122   120   ar
    32    50    49   ar
    33   123   121   ar
    34    20    21    1
    35    20    11   am
    36   120   118   ar
    37    10    13    1
    38    10    11    1
    39    13    14    1
    40   121   119   ar
    41    21    22    1
    42   118   119   ar
    43   118   117    1
    44    46    45   ar
    45    46    44   ar
    46    45    43   ar
    47   115   114    1
    48    11    12    2
    49    22    23    2
    50   117   114    1
    51   114   113    1
    52    49    47   ar
    53    43    42   ar
    54    44    47   ar
    55    44    42   ar
    56    14    16   ar
    57    14    15   ar
    58    16    18   ar
    59    42    41    1
    60    15    17   ar
    61   103   104   ar
    62   103   101   ar
    63   104   102   ar
    64    18    19   ar
    65    66    63    1
    66    87    88    2
    67    87    86    1
    68    41    38    1
    69   108   107    2
    70    29    30    1
    71    17    19   ar
    72    86    85    1
    73    65    64    2
    74   101   100   ar
    75    36    34    1
    76    98    97    2
    77   102   100   ar
    78    63    64    1
    79    63    62    1
    80   107   106    1
    81    38    39    1
    82    38    37    1
    83    39    40    2
    84    33    34    1
    85    33    30    1
    86    33    35    1
    87   111   110   ar
    88   106   109    1
    89   106   105    1
    90    30    31    1
    91   100    99    1
    92    85    81   am
    93    31    32    2
    94    97   105   am
    95    97    96    1
    96   109   110    1
    97   110   112   ar
    98    62    53   am
    99    81    82    2
   100    81    80    1
   101    99    96    1
   102    96    95    1
   103    54    53    2
   104    53    52    1
   105    70    69    2
   106    55    52    1
   107    55    56    1
   108    80    79    1
   109    80    83    1
   110    51    52    1
   111   146   147   ar
   112   146   144   ar
   113    69    79   am
   114    69    68    1
   115    92    91    2
   116   147   145   ar
   117    58    56   ar
   118    58    60   ar
   119    83    84    1
   120   144   142   ar
   121    56    57   ar
   122    68    71    1
   123    68    67    1
   124    74    76   ar
   125    74    72   ar
   126    91    90    1
   127    60    61   ar
   128   145   143   ar
   129    94    93    1
   130    94    84    1
   131    93    90    1
   132    76    77   ar
   133    90    89    1
   134    71    72    1
   135   142   143   ar
   136   142   141    1
   137    57    59   ar
   138    72    73   ar
   139    61    59   ar
   140   141   138    1
   141    77    78    1
   142    77    75   ar
   143    73    75   ar
   144   137   138    1
   145   138   139    1
   146   139   140    2
