@<TRIPOS>MOLECULE
tmp/3njvA00.pdb
 225 213 0 0 0
SMALL
GASTEIGER

@<TRIPOS>ATOM
      1  N         24.6360   26.1490   38.8660 N.3    47  GLN47      -0.1245
      2  CA        25.4660   25.3380   37.9750 C.3    47  GLN47       0.1566
      3  C         25.3480   25.8550   36.5530 C.2    47  GLN47       0.2260
      4  O         24.2710   26.2770   36.1310 O.2    47  GLN47      -0.2867
      5  CB        25.0420   23.8630   38.0130 C.3    47  GLN47       0.0367
      6  CG        25.7470   23.0270   39.0500 C.3    47  GLN47       0.0905
      7  CD        25.2280   21.6020   39.1110 C.2    47  GLN47       0.2608
      8  OE1       25.9700   20.6520   38.8480 O.2    47  GLN47      -0.2717
      9  NE2       23.9510   21.4410   39.4660 N.am   47  GLN47      -0.0878
     10  N         29.3340   17.5470   33.5030 N.3    53  SER53      -0.1217
     11  CA        29.0500   18.2850   34.7310 C.3    53  SER53       0.1889
     12  C         29.9210   19.5350   34.7870 C.2    53  SER53       0.2288
     13  O         30.0120   20.2070   35.8200 O.2    53  SER53      -0.2866
     14  CB        29.3050   17.4090   35.9560 C.3    53  SER53       0.2089
     15  OG        28.4370   16.2940   35.9670 O.3    53  SER53      -0.2183
     16  N         33.8970   10.2190   32.6220 N.3   103  ILE103     -0.1231
     17  CA        32.6170    9.7170   33.1270 C.3   103  ILE103      0.1692
     18  C         32.0190    8.5780   32.2860 C.2   103  ILE103      0.2593
     19  O         31.1240    7.8590   32.7490 O.2   103  ILE103     -0.2718
     20  CB        31.5870   10.8720   33.3850 C.3   103  ILE103      0.0266
     21  CG1       30.4430   10.4020   34.2950 C.3   103  ILE103      0.0019
     22  CG2       31.0560   11.4620   32.0800 C.3   103  ILE103      0.0020
     23  CD1       30.8860    9.8580   35.6540 C.3   103  ILE103      0.0001
     24  N         32.5290    8.3940   31.0700 N.am  104  GLY104     -0.1942
     25  CA        32.0780    7.2840   30.2250 C.3   104  GLY104      0.2014
     26  C         30.7890    7.5810   29.4790 C.2   104  GLY104      0.2638
     27  O         30.1000    6.6710   29.0290 O.2   104  GLY104     -0.2714
     28  N         30.4660    8.8650   29.3700 N.am  105  GLU105     -0.1977
     29  CA        29.3970    9.3430   28.5130 C.3   105  GLU105      0.1602
     30  C         29.7780   10.7260   27.9980 C.2   105  GLU105      0.2287
     31  O         30.6450   11.3920   28.5710 O.2   105  GLU105     -0.2864
     32  CB        28.0650    9.3910   29.2610 C.3   105  GLU105      0.0415
     33  CG        28.0980   10.2530   30.5180 C.3   105  GLU105      0.1163
     34  CD        26.7700   10.3330   31.2030 C.2   105  GLU105      0.3649
     35  OE1       26.4870   11.3840   31.8120 O.co2 105  GLU105     -0.2457
     36  OE2       26.0060    9.3490   31.1280 O.co2 105  GLU105     -0.2457
     37  N         27.7290   14.1460   27.0340 N.3   107  ARG107     -0.1245
     38  CA        26.4850   14.9060   26.9580 C.3   107  ARG107      0.1563
     39  C         26.7500   16.4030   27.0050 C.2   107  ARG107      0.2260
     40  O         27.7500   16.8440   27.5830 O.2   107  ARG107     -0.2867
     41  CB        25.5280   14.5150   28.1030 C.3   107  ARG107      0.0307
     42  CG        25.9940   14.9630   29.4810 C.3   107  ARG107      0.0489
     43  CD        24.9090   14.9270   30.5320 C.3   107  ARG107      0.2205
     44  NE        25.3500   15.6070   31.7480 N.pl3 107  ARG107     -0.0865
     45  CZ        24.9000   15.3540   32.9760 C.cat 107  ARG107      0.5346
     46  NH1       23.9750   14.4220   33.1870 N.pl3 107  ARG107      0.1354
     47  NH2       25.3820   16.0350   34.0030 N.pl3 107  ARG107      0.1354
     48  N         24.5040   19.4770   28.6310 N.3   109  ILE109     -0.1245
     49  CA        23.3390   19.7880   29.4510 C.3   109  ILE109      0.1561
     50  C         23.1170   21.2980   29.5730 C.2   109  ILE109      0.2260
     51  O         24.0080   22.0430   29.9690 O.2   109  ILE109     -0.2867
     52  CB        23.3970   19.1000   30.8520 C.3   109  ILE109      0.0252
     53  CG1       22.1370   19.4440   31.6670 C.3   109  ILE109      0.0019
     54  CG2       24.7070   19.4380   31.5920 C.3   109  ILE109      0.0019
     55  CD1       22.0390   18.7900   33.0000 C.3   109  ILE109      0.0001
     56  N         21.0890   23.7640   31.7880 N.3   111  ARG111     -0.1245
     57  CA        20.3910   23.8100   33.0690 C.3   111  ARG111      0.1563
     58  C         19.6370   25.1330   33.1580 C.2   111  ARG111      0.2260
     59  O         20.2240   26.1780   33.4500 O.2   111  ARG111     -0.2867
     60  CB        21.3720   23.6470   34.2340 C.3   111  ARG111      0.0307
     61  CG        22.2970   22.4460   34.1190 C.3   111  ARG111      0.0489
     62  CD        23.2060   22.3780   35.3290 C.3   111  ARG111      0.2205
     63  NE        24.3520   21.4880   35.1540 N.pl3 111  ARG111     -0.0865
     64  CZ        24.4640   20.2790   35.7010 C.cat 111  ARG111      0.5346
     65  NH1       23.4900   19.7780   36.4660 N.pl3 111  ARG111      0.1354
     66  NH2       25.5600   19.5620   35.4800 N.pl3 111  ARG111      0.1354
     67  N         14.1020    3.7260   42.1480 N.3   136  GLU136     -0.1231
     68  CA        15.1170    2.9000   41.5100 C.3   136  GLU136      0.1699
     69  C         16.3610    3.7400   41.2530 C.2   136  GLU136      0.2593
     70  O         16.2770    4.8140   40.6510 O.2   136  GLU136     -0.2718
     71  CB        14.5770    2.3050   40.2120 C.3   136  GLU136      0.0402
     72  CG        15.4330    1.2090   39.6250 C.3   136  GLU136      0.1161
     73  CD        14.9060    0.7310   38.2920 C.2   136  GLU136      0.3649
     74  OE1       15.4200    1.1890   37.2510 O.co2 136  GLU136     -0.2457
     75  OE2       13.9640   -0.0840   38.2870 O.co2 136  GLU136     -0.2457
     76  N         17.5050    3.2430   41.7200 N.am  137  GLY137     -0.1942
     77  CA        18.7510    4.0010   41.7250 C.3   137  GLY137      0.2014
     78  C         18.4960    5.4080   42.2250 C.2   137  GLY137      0.2640
     79  O         17.8490    5.6030   43.2570 O.2   137  GLY137     -0.2714
     80  N         18.9870    6.3910   41.4840 N.am  138  SER138     -0.1935
     81  CA        18.5790    7.7680   41.6980 C.3   138  SER138      0.2055
     82  C         18.1060    8.3860   40.3820 C.2   138  SER138      0.2643
     83  O         18.3490    9.5600   40.1160 O.2   138  SER138     -0.2714
     84  CB        19.7160    8.5830   42.3220 C.3   138  SER138      0.2130
     85  OG        20.8490    8.5790   41.4830 O.3   138  SER138     -0.2179
     86  N         17.4200    7.5880   39.5630 N.am  139  ASP139     -0.1971
     87  CA        17.0090    8.0470   38.2320 C.3   139  ASP139      0.1709
     88  C         15.5460    7.7630   37.8740 C.2   139  ASP139      0.2293
     89  O         15.0650    8.2220   36.8440 O.2   139  ASP139     -0.2864
     90  CB        17.9660    7.5230   37.1450 C.3   139  ASP139      0.1436
     91  CG        18.0910    6.0090   37.1430 C.2   139  ASP139      0.3671
     92  OD1       18.9190    5.4810   36.3650 O.co2 139  ASP139     -0.2456
     93  OD2       17.3700    5.3390   37.9100 O.co2 139  ASP139     -0.2456
     94  N         14.6300    9.4190   31.6640 N.3   151  PHE151     -0.1241
     95  CA        14.6530    8.4450   30.5760 C.3   151  PHE151      0.1605
     96  C         13.3520    8.3850   29.7760 C.2   151  PHE151      0.2264
     97  O         13.3680    7.9960   28.6080 O.2   151  PHE151     -0.2867
     98  CB        15.0280    7.0650   31.1190 C.3   151  PHE151      0.0534
     99  CG        16.4780    6.9410   31.4930 C.ar  151  PHE151     -0.0203
    100  CD1       16.9460    7.4410   32.7130 C.ar  151  PHE151     -0.0042
    101  CD2       17.3830    6.3340   30.6250 C.ar  151  PHE151     -0.0042
    102  CE1       18.2960    7.3330   33.0600 C.ar  151  PHE151     -0.0003
    103  CE2       18.7220    6.2210   30.9600 C.ar  151  PHE151     -0.0003
    104  CZ        19.1830    6.7220   32.1840 C.ar  151  PHE151     -0.0000
    105  N         18.4000   10.1220   27.1950 N.3   191  ILE191     -0.1245
    106  CA        17.8140   11.2220   27.9560 C.3   191  ILE191      0.1561
    107  C         17.7750   12.5020   27.1260 C.2   191  ILE191      0.2260
    108  O         18.7930   12.9200   26.5610 O.2   191  ILE191     -0.2867
    109  CB        18.5910   11.4830   29.2860 C.3   191  ILE191      0.0252
    110  CG1       18.7190   10.1890   30.1040 C.3   191  ILE191      0.0019
    111  CG2       17.9180   12.6020   30.0940 C.3   191  ILE191      0.0019
    112  CD1       19.5330   10.3290   31.3550 C.3   191  ILE191      0.0001
    113  N         14.6010   16.8210   31.5360 N.3   194  ASN194     -0.1240
    114  CA        14.3130   16.4360   32.9040 C.3   194  ASN194      0.1653
    115  C         14.1170   17.6840   33.7650 C.2   194  ASN194      0.2266
    116  O         15.0790   18.4020   34.0660 O.2   194  ASN194     -0.2867
    117  CB        15.4490   15.5520   33.4520 C.3   194  ASN194      0.1155
    118  CG        15.2100   15.0640   34.8860 C.2   194  ASN194      0.2627
    119  OD1       16.1610   14.9090   35.6510 O.2   194  ASN194     -0.2716
    120  ND2       13.9570   14.8010   35.2430 N.am  194  ASN194     -0.0877
    121  N         15.8310   22.9370   38.4260 N.3   199  TYR199     -0.1241
    122  CA        15.8700   23.5270   37.0850 C.3   199  TYR199      0.1605
    123  C         15.3160   22.4850   36.1150 C.2   199  TYR199      0.2264
    124  O         15.1000   21.3300   36.4910 O.2   199  TYR199     -0.2867
    125  CB        17.3110   23.8940   36.6960 C.3   199  TYR199      0.0534
    126  CG        18.2950   22.7500   36.8580 C.ar  199  TYR199     -0.0201
    127  CD1       19.0250   22.5990   38.0380 C.ar  199  TYR199     -0.0009
    128  CD2       18.4800   21.8090   35.8440 C.ar  199  TYR199     -0.0009
    129  CE1       19.9160   21.5510   38.2020 C.ar  199  TYR199      0.0417
    130  CE2       19.3710   20.7590   35.9960 C.ar  199  TYR199      0.0417
    131  CZ        20.0860   20.6370   37.1780 C.ar  199  TYR199      0.1957
    132  OH        20.9650   19.5950   37.3420 O.3   199  TYR199     -0.2866
    133  N         18.9710   18.3000   27.1110 N.3   203  TYR203     -0.1241
    134  CA        20.1550   17.5230   26.8080 C.3   203  TYR203      0.1605
    135  C         20.3690   17.2360   25.3350 C.2   203  TYR203      0.2264
    136  O         19.4330   17.2380   24.5310 O.2   203  TYR203     -0.2867
    137  CB        20.0440   16.1510   27.4620 C.3   203  TYR203      0.0534
    138  CG        20.0760   16.0800   28.9650 C.ar  203  TYR203     -0.0201
    139  CD1       18.8940   16.0110   29.6990 C.ar  203  TYR203     -0.0009
    140  CD2       21.2870   15.9990   29.6470 C.ar  203  TYR203     -0.0009
    141  CE1       18.9140   15.8970   31.0830 C.ar  203  TYR203      0.0417
    142  CE2       21.3250   15.8930   31.0290 C.ar  203  TYR203      0.0417
    143  CZ        20.1370   15.8410   31.7420 C.ar  203  TYR203      0.1957
    144  OH        20.1740   15.7150   33.1100 O.3   203  TYR203     -0.2866
    145  N         22.5830   13.7630   24.5720 N.3   205  TYR205     -0.1241
    146  CA        23.5160   12.6880   24.8830 C.3   205  TYR205      0.1605
    147  C         24.1260   12.1830   23.5880 C.2   205  TYR205      0.2264
    148  O         23.5630   11.2990   22.9260 O.2   205  TYR205     -0.2867
    149  CB        22.8260   11.5440   25.6350 C.3   205  TYR205      0.0534
    150  CG        22.8540   11.7090   27.1290 C.ar  205  TYR205     -0.0201
    151  CD1       21.9210   12.5150   27.7720 C.ar  205  TYR205     -0.0009
    152  CD2       23.8360   11.0820   27.9030 C.ar  205  TYR205     -0.0009
    153  CE1       21.9500   12.6920   29.1440 C.ar  205  TYR205      0.0417
    154  CE2       23.8760   11.2560   29.2890 C.ar  205  TYR205      0.0417
    155  CZ        22.9180   12.0610   29.8990 C.ar  205  TYR205      0.1957
    156  OH        22.9160   12.2500   31.2610 O.3   205  TYR205     -0.2866
    157  N         26.3350    5.0670   28.2480 N.3   209  GLY209     -0.1210
    158  CA        26.2670    3.6430   28.5380 C.3   209  GLY209      0.1956
    159  C         24.8420    3.2000   28.8160 C.2   209  GLY209      0.2611
    160  O         24.6270    2.1560   29.4230 O.2   209  GLY209     -0.2717
    161  N         23.8650    3.9970   28.3830 N.am  210  HIS210     -0.1975
    162  CA        22.4580    3.6450   28.5540 C.3   210  HIS210      0.1656
    163  C         22.0560    2.7230   27.4080 C.2   210  HIS210      0.2291
    164  O         21.8610    3.1830   26.2820 O.2   210  HIS210     -0.2864
    165  CB        21.5500    4.8860   28.5870 C.3   210  HIS210      0.0771
    166  CG        22.0060    5.9610   29.5270 C.ar  210  HIS210      0.0820
    167  ND1       21.8420    7.3050   29.2520 N.ar  210  HIS210     -0.2267
    168  CD2       22.6350    5.8970   30.7260 C.ar  210  HIS210      0.1154
    169  CE1       22.3430    8.0200   30.2440 C.ar  210  HIS210      0.1986
    170  NE2       22.8300    7.1900   31.1510 N.ar  210  HIS210     -0.2212
    171  N         18.4710   -8.3280   30.4980 N.3   425  PHE425     -0.1241
    172  CA        19.0210   -7.7530   31.7180 C.3   425  PHE425      0.1605
    173  C         19.4610   -8.8880   32.6330 C.2   425  PHE425      0.2264
    174  O         18.7640   -9.9090   32.7520 O.2   425  PHE425     -0.2867
    175  CB        17.9870   -6.8740   32.4320 C.3   425  PHE425      0.0534
    176  CG        18.5390   -6.1310   33.6270 C.ar  425  PHE425     -0.0203
    177  CD1       19.2840   -4.9650   33.4570 C.ar  425  PHE425     -0.0042
    178  CD2       18.3080   -6.5930   34.9210 C.ar  425  PHE425     -0.0042
    179  CE1       19.8000   -4.2790   34.5530 C.ar  425  PHE425     -0.0003
    180  CE2       18.8130   -5.9120   36.0190 C.ar  425  PHE425     -0.0003
    181  CZ        19.5610   -4.7540   35.8380 C.ar  425  PHE425     -0.0000
    182  N         25.5040   -4.1730   30.7130 N.3   449  ASP449     -0.1225
    183  CA        25.7710   -3.4570   31.9660 C.3   449  ASP449      0.1805
    184  C         24.9630   -2.1710   32.0980 C.2   449  ASP449      0.2598
    185  O         25.5120   -1.0940   32.3500 O.2   449  ASP449     -0.2718
    186  CB        27.2700   -3.1900   32.1310 C.3   449  ASP449      0.1424
    187  CG        28.1050   -4.4390   31.9450 C.2   449  ASP449      0.3668
    188  OD1       29.0570   -4.3900   31.1390 O.co2 449  ASP449     -0.2456
    189  OD2       27.8130   -5.4700   32.5940 O.co2 449  ASP449     -0.2456
    190  N         23.6500   -2.3010   31.9260 N.am  450  SER450     -0.1938
    191  CA        22.7590   -1.1510   31.9020 C.3   450  SER450      0.2055
    192  C         21.3330   -1.5990   32.1720 C.2   450  SER450      0.2642
    193  O         20.9060   -2.6560   31.7020 O.2   450  SER450     -0.2714
    194  CB        22.8470   -0.4560   30.5350 C.3   450  SER450      0.2130
    195  OG        21.8920    0.5730   30.3860 O.3   450  SER450     -0.2179
    196  N         20.6030   -0.7990   32.9430 N.am  451  ARG451     -0.1977
    197  CA        19.1590   -0.9590   33.0410 C.3   451  ARG451      0.1597
    198  C         18.5190   -0.5210   31.7170 C.2   451  ARG451      0.2287
    199  O         19.1050    0.2710   30.9700 O.2   451  ARG451     -0.2864
    200  CB        18.6130   -0.1620   34.2290 C.3   451  ARG451      0.0334
    201  CG        18.8680   -0.8330   35.5810 C.3   451  ARG451      0.0492
    202  CD        18.4740    0.0680   36.7270 C.3   451  ARG451      0.2205
    203  NE        19.4500    1.1330   36.9780 N.pl3 451  ARG451     -0.0865
    204  CZ        19.1310    2.3290   37.4660 C.cat 451  ARG451      0.5346
    205  NH1       17.8610    2.6190   37.7520 N.pl3 451  ARG451      0.1354
    206  NH2       20.0730    3.2400   37.6650 N.pl3 451  ARG451      0.1354
    207  N         13.6990    1.8230   32.3870 N.3   455  ARG455     -0.1245
    208  CA        14.0780    3.1780   31.9850 C.3   455  ARG455      0.1563
    209  C         13.6590    3.5050   30.5390 C.2   455  ARG455      0.2260
    210  O         14.3630    4.2260   29.8180 O.2   455  ARG455     -0.2867
    211  CB        15.5910    3.3880   32.1770 C.3   455  ARG455      0.0307
    212  CG        16.0900    3.1780   33.6130 C.3   455  ARG455      0.0489
    213  CD        17.4400    3.8220   33.8610 C.3   455  ARG455      0.2205
    214  NE        18.4770    3.3230   32.9570 N.pl3 455  ARG455     -0.0865
    215  CZ        19.7810    3.3170   33.2280 C.cat 455  ARG455      0.5346
    216  NH1       20.2340    3.7730   34.3960 N.pl3 455  ARG455      0.1354
    217  NH2       20.6380    2.8410   32.3360 N.pl3 455  ARG455      0.1354
    218  N         14.2280   -5.6560   38.5540 N.3   495  LEU495     -0.1245
    219  CA        15.6670   -5.7570   38.3900 C.3   495  LEU495      0.1561
    220  C         16.1330   -7.2000   38.4830 C.2   495  LEU495      0.2260
    221  O         17.3330   -7.4700   38.4450 O.2   495  LEU495     -0.2867
    222  CB        16.4010   -4.8990   39.4210 C.3   495  LEU495      0.0270
    223  CG        16.1900   -3.3810   39.3930 C.3   495  LEU495      0.0019
    224  CD1       17.0110   -2.7400   40.5020 C.3   495  LEU495      0.0001
    225  CD2       16.5440   -2.7900   38.0350 C.3   495  LEU495      0.0001
@<TRIPOS>BOND
     1   148   147    2
     2   147   146    1
     3   136   135    2
     4   145   146    1
     5   146   149    1
     6   135   134    1
     7   149   150    1
     8   164   163    2
     9   108   107    2
    10   134   133    1
    11   134   137    1
    12    38    39    1
    13    38    37    1
    14    38    41    1
    15    39    40    2
    16   107   106    1
    17   150   151   ar
    18   150   152   ar
    19   105   106    1
    20   163   162    1
    21   137   138    1
    22   151   153   ar
    23   152   154   ar
    24   106   109    1
    25    30    29    1
    26    30    31    2
    27    41    42    1
    28   157   158    1
    29   161   162    1
    30   161   159   am
    31    29    32    1
    32    29    28    1
    33   158   159    1
    34   162   165    1
    35   165   166    1
    36    97    96    2
    37    48    49    1
    38   159   160    2
    39   138   140   ar
    40   138   139   ar
    41    27    26    2
    42   153   155   ar
    43   167   166   ar
    44   167   169   ar
    45    32    33    1
    46   109   111    1
    47   109   110    1
    48   154   155   ar
    49    28    26   am
    50    49    50    1
    51    49    52    1
    52    26    25    1
    53    42    43    1
    54   166   168   ar
    55    50    51    2
    56   140   142   ar
    57   139   141   ar
    58    96    95    1
    59   210   209    2
    60   155   156    1
    61   110   112    1
    62    25    24    1
    63   169   170   ar
    64   195   194    1
    65   171   172    1
    66    33    34    1
    67    43    44    1
    68   194   191    1
    69   209   208    1
    70    95    98    1
    71    95    94    1
    72   101   103   ar
    73   101    99   ar
    74   182   183    1
    75   168   170   ar
    76    52    54    1
    77    52    53    1
    78   103   104   ar
    79   199   198    2
    80   142   143   ar
    81    24    18   am
    82   141   143   ar
    83    98    99    1
    84    36    34   ar
    85   188   187   ar
    86    34    35   ar
    87    99   100   ar
    88   113   114    1
    89    53    55    1
    90   193   192    2
    91   198   197    1
    92   172   175    1
    93   172   173    1
    94   143   144    1
    95    44    45    2
    96    56    57    1
    97   191   190    1
    98   191   192    1
    99   190   184   am
   100   187   186    1
   101   187   189   ar
   102   183   184    1
   103   183   186    1
   104   208   211    1
   105   208   207    1
   106    22    20    1
   107   184   185    2
   108   192   196   am
   109   211   212    1
   110   104   102   ar
   111    18    19    2
   112    18    17    1
   113   217   215    1
   114   175   176    1
   115    16    17    1
   116   173   174    2
   117   100   102   ar
   118   114   117    1
   119   114   115    1
   120   196   197    1
   121   214   215    2
   122   214   213    1
   123    45    46    1
   124    45    47    1
   125   197   200    1
   126    57    58    1
   127    57    60    1
   128    17    20    1
   129    58    59    2
   130   215   216    1
   131    20    21    1
   132   117   118    1
   133   177   176   ar
   134   177   179   ar
   135    10    11    1
   136   212   213    1
   137   176   178   ar
   138   115   116    2
   139    61    60    1
   140    61    62    1
   141   200   201    1
   142    21    23    1
   143   179   181   ar
   144    11    12    1
   145    11    14    1
   146    12    13    2
   147   118   120   am
   148   118   119    2
   149   178   180   ar
   150    63    62    1
   151    63    64    2
   152    66    64    1
   153   201   202    1
   154    64    65    1
   155   181   180   ar
   156   128   130   ar
   157   128   126   ar
   158    14    15    1
   159   130   131   ar
   160   123   124    2
   161   123   122    1
   162     4     3    2
   163    92    91   ar
   164     3     2    1
   165   125   126    1
   166   125   122    1
   167   202   203    1
   168    89    88    2
   169   126   127   ar
   170   203   204    2
   171   122   121    1
   172    91    90    1
   173    91    93   ar
   174    90    87    1
   175   131   132    1
   176   131   129   ar
   177    74    73   ar
   178   204   206    1
   179   204   205    1
   180    88    87    1
   181     2     5    1
   182     2     1    1
   183     5     6    1
   184   225   223    1
   185   127   129   ar
   186    87    86    1
   187    75    73   ar
   188    73    72    1
   189   219   220    1
   190   219   218    1
   191   219   222    1
   192   221   220    2
   193     8     7    2
   194     6     7    1
   195     7     9   am
   196   223   222    1
   197   223   224    1
   198    86    82   am
   199    72    71    1
   200    83    82    2
   201    71    68    1
   202    82    81    1
   203    70    69    2
   204    69    68    1
   205    69    76   am
   206    85    84    1
   207    80    81    1
   208    80    78   am
   209    68    67    1
   210    81    84    1
   211    76    77    1
   212    77    78    1
   213    78    79    2
