@<TRIPOS>MOLECULE
tmp/3njyA00.pdb
 132 125 0 0 0
SMALL
GASTEIGER

@<TRIPOS>ATOM
      1  N         13.9040  -19.9490   -3.8550 N.3   125  TYR125     -0.1241
      2  CA        15.2880  -19.8690   -3.4350 C.3   125  TYR125      0.1605
      3  C         15.5480  -18.4180   -3.1450 C.2   125  TYR125      0.2264
      4  O         15.3510  -17.5720   -4.0160 O.2   125  TYR125     -0.2867
      5  CB        16.2110  -20.3730   -4.5440 C.3   125  TYR125      0.0534
      6  CG        17.6030  -20.7700   -4.1000 C.ar  125  TYR125     -0.0201
      7  CD1       17.9250  -20.9030   -2.7640 C.ar  125  TYR125     -0.0009
      8  CD2       18.5920  -21.0330   -5.0330 C.ar  125  TYR125     -0.0009
      9  CE1       19.2080  -21.2810   -2.3650 C.ar  125  TYR125      0.0417
     10  CE2       19.8650  -21.4130   -4.6480 C.ar  125  TYR125      0.0417
     11  CZ        20.1690  -21.5350   -3.3150 C.ar  125  TYR125      0.1957
     12  OH        21.4300  -21.9120   -2.9350 O.3   125  TYR125     -0.2866
     13  N         21.1180  -14.7090   -3.9310 N.3   128  ASP128     -0.1239
     14  CA        21.8150  -13.5030   -4.3820 C.3   128  ASP128      0.1674
     15  C         21.4140  -12.3140   -3.5620 C.2   128  ASP128      0.2266
     16  O         21.1690  -11.2550   -4.1140 O.2   128  ASP128     -0.2867
     17  CB        21.4970  -13.1910   -5.8500 C.3   128  ASP128      0.1410
     18  CG        21.8230  -14.3370   -6.7770 C.2   128  ASP128      0.3668
     19  OD1       22.6270  -15.2270   -6.4070 O.co2 128  ASP128     -0.2456
     20  OD2       21.2620  -14.3500   -7.8870 O.co2 128  ASP128     -0.2456
     21  N         22.3630  -16.7360    0.6270 N.3   170  TYR170     -0.1241
     22  CA        21.4400  -17.6280   -0.0770 C.3   170  TYR170      0.1605
     23  C         20.6150  -18.4350    0.9040 C.2   170  TYR170      0.2264
     24  O         21.1420  -19.2980    1.6090 O.2   170  TYR170     -0.2867
     25  CB        22.1930  -18.6300   -0.9520 C.3   170  TYR170      0.0534
     26  CG        23.0450  -18.0050   -2.0240 C.ar  170  TYR170     -0.0201
     27  CD1       22.5800  -17.8870   -3.3240 C.ar  170  TYR170     -0.0009
     28  CD2       24.3240  -17.5490   -1.7390 C.ar  170  TYR170     -0.0009
     29  CE1       23.3580  -17.3200   -4.3080 C.ar  170  TYR170      0.0417
     30  CE2       25.1080  -16.9760   -2.7160 C.ar  170  TYR170      0.0417
     31  CZ        24.6180  -16.8640   -3.9970 C.ar  170  TYR170      0.1957
     32  OH        25.3920  -16.3050   -4.9800 O.3   170  TYR170     -0.2866
     33  N         21.8640  -25.2090   -7.5020 N.3   178  PHE178     -0.1241
     34  CA        22.7530  -24.4450   -8.3590 C.3   178  PHE178      0.1605
     35  C         23.2150  -25.3320   -9.5070 C.2   178  PHE178      0.2264
     36  O         23.6450  -26.4580   -9.2930 O.2   178  PHE178     -0.2867
     37  CB        23.9110  -23.7900   -7.5830 C.3   178  PHE178      0.0534
     38  CG        24.6940  -24.7220   -6.6910 C.ar  178  PHE178     -0.0203
     39  CD1       26.0100  -25.0450   -6.9980 C.ar  178  PHE178     -0.0042
     40  CD2       24.1420  -25.2360   -5.5270 C.ar  178  PHE178     -0.0042
     41  CE1       26.7570  -25.8960   -6.1650 C.ar  178  PHE178     -0.0003
     42  CE2       24.8920  -26.0890   -4.6890 C.ar  178  PHE178     -0.0003
     43  CZ        26.1920  -26.4160   -5.0150 C.ar  178  PHE178     -0.0000
     44  N         28.5180  -25.0430  -13.2420 N.3   181  HIS181     -0.1241
     45  CA        29.2210  -23.8470  -13.6600 C.3   181  HIS181      0.1621
     46  C         30.6090  -23.7390  -13.0080 C.2   181  HIS181      0.2264
     47  O         30.8620  -24.3400  -11.9760 O.2   181  HIS181     -0.2867
     48  CB        28.3660  -22.6100  -13.3510 C.3   181  HIS181      0.0745
     49  CG        28.3130  -22.2580  -11.8960 C.ar  181  HIS181      0.0817
     50  ND1       27.6910  -23.0550  -10.9590 N.ar  181  HIS181     -0.2268
     51  CD2       28.8070  -21.1940  -11.2190 C.ar  181  HIS181      0.1154
     52  CE1       27.8030  -22.4970   -9.7660 C.ar  181  HIS181      0.1986
     53  NE2       28.4750  -21.3680   -9.8950 N.ar  181  HIS181     -0.2212
     54  N         33.2180  -20.4800  -11.7580 N.3   183  GLU183     -0.1245
     55  CA        32.9660  -19.1360  -11.2880 C.3   183  GLU183      0.1567
     56  C         33.2140  -18.0750  -12.3660 C.2   183  GLU183      0.2260
     57  O         33.9130  -18.3200  -13.3410 O.2   183  GLU183     -0.2867
     58  CB        33.8160  -18.8780  -10.0580 C.3   183  GLU183      0.0388
     59  CG        33.4780  -19.8080   -8.8960 C.3   183  GLU183      0.1160
     60  CD        32.0300  -19.7100   -8.4430 C.2   183  GLU183      0.3649
     61  OE1       31.6000  -18.5980   -8.0800 O.co2 183  GLU183     -0.2457
     62  OE2       31.3180  -20.7490   -8.4320 O.co2 183  GLU183     -0.2457
     63  N         35.9070  -19.3960   -5.1490 N.3   189  SER189     -0.1217
     64  CA        34.8660  -18.8880   -4.2860 C.3   189  SER189      0.1889
     65  C         35.0000  -19.5260   -2.9190 C.2   189  SER189      0.2288
     66  O         35.6640  -20.5470   -2.7500 O.2   189  SER189     -0.2866
     67  CB        33.4860  -19.1600   -4.8740 C.3   189  SER189      0.2089
     68  OG        33.3130  -20.5420   -5.1250 O.3   189  SER189     -0.2183
     69  N         32.3480  -20.5760    0.3050 N.3   191  ASN191     -0.1240
     70  CA        30.9630  -20.7400    0.7480 C.3   191  ASN191      0.1653
     71  C         30.9160  -21.1610    2.2190 C.2   191  ASN191      0.2266
     72  O         31.5180  -22.1530    2.6030 O.2   191  ASN191     -0.2867
     73  CB        30.2360  -21.7910   -0.1000 C.3   191  ASN191      0.1155
     74  CG        28.7360  -21.8900    0.2260 C.2   191  ASN191      0.2627
     75  OD1       28.3490  -22.3840    1.2880 O.2   191  ASN191     -0.2716
     76  ND2       27.8880  -21.4390   -0.7060 N.am  191  ASN191     -0.0877
     77  N         23.9290  -28.8530    2.4250 N.3   199  LYS199     -0.1245
     78  CA        23.9310  -28.4540    1.0350 C.3   199  LYS199      0.1561
     79  C         24.8870  -29.4390    0.3850 C.2   199  LYS199      0.2260
     80  O         26.0110  -29.5850    0.8360 O.2   199  LYS199     -0.2867
     81  CB        24.4630  -27.0320    0.8870 C.3   199  LYS199      0.0271
     82  CG        24.7390  -26.6210   -0.5490 C.3   199  LYS199      0.0035
     83  CD        25.5610  -25.3460   -0.6520 C.3   199  LYS199      0.0206
     84  CE        24.9450  -24.1930    0.1070 C.3   199  LYS199      0.1093
     85  NZ        23.6660  -23.7530   -0.4840 N.3   199  LYS199     -0.1314
     86  N         27.1010  -31.0970   -2.8610 N.3   201  TRP201     -0.1241
     87  CA        27.8920  -30.5700   -3.9590 C.3   201  TRP201      0.1605
     88  C         28.3670  -31.6770   -4.8590 C.2   201  TRP201      0.2264
     89  O         28.6000  -32.7940   -4.4110 O.2   201  TRP201     -0.2867
     90  CB        29.1210  -29.8580   -3.4210 C.3   201  TRP201      0.0550
     91  CG        28.8490  -28.6630   -2.5800 C.ar  201  TRP201      0.0003
     92  CD1       28.2510  -28.6380   -1.3600 C.ar  201  TRP201      0.0946
     93  CD2       29.2100  -27.3080   -2.8790 C.ar  201  TRP201      0.0152
     94  NE1       28.2030  -27.3460   -0.8770 N.ar  201  TRP201     -0.2442
     95  CE2       28.7800  -26.5120   -1.7900 C.ar  201  TRP201      0.0810
     96  CE3       29.8490  -26.6900   -3.9570 C.ar  201  TRP201      0.0012
     97  CZ2       28.9740  -25.1230   -1.7550 C.ar  201  TRP201      0.0191
     98  CZ3       30.0400  -25.2980   -3.9140 C.ar  201  TRP201      0.0001
     99  CH2       29.6030  -24.5400   -2.8190 C.ar  201  TRP201      0.0015
    100  N         23.9920  -20.6280  -15.9110 N.3   234  LYS234     -0.1245
    101  CA        23.6450  -21.3610  -14.6950 C.3   234  LYS234      0.1561
    102  C         22.2540  -21.9540  -14.7400 C.2   234  LYS234      0.2260
    103  O         21.5370  -21.9440  -13.7460 O.2   234  LYS234     -0.2867
    104  CB        23.7720  -20.4720  -13.4630 C.3   234  LYS234      0.0271
    105  CG        25.1940  -20.0510  -13.1920 C.3   234  LYS234      0.0035
    106  CD        25.3470  -19.4150  -11.8330 C.3   234  LYS234      0.0206
    107  CE        26.5760  -18.5260  -11.8250 C.3   234  LYS234      0.1093
    108  NZ        26.5840  -17.6220  -10.6480 N.3   234  LYS234     -0.1314
    109  N         31.0740  -27.0030  -10.7010 N.3   269  HIS269     -0.1241
    110  CA        30.3350  -27.5420   -9.5780 C.3   269  HIS269      0.1621
    111  C         28.8290  -27.3250   -9.7260 C.2   269  HIS269      0.2264
    112  O         28.3730  -26.4590  -10.4750 O.2   269  HIS269     -0.2867
    113  CB        30.8350  -26.9300   -8.2690 C.3   269  HIS269      0.0745
    114  CG        30.9230  -25.4270   -8.2960 C.ar  269  HIS269      0.0817
    115  ND1       31.9380  -24.7770   -8.9250 N.ar  269  HIS269     -0.2268
    116  CD2       30.1200  -24.4830   -7.7590 C.ar  269  HIS269      0.1154
    117  CE1       31.7680  -23.4530   -8.7980 C.ar  269  HIS269      0.1986
    118  NE2       30.6630  -23.2700   -8.0920 N.ar  269  HIS269     -0.2212
    119  N         20.1130  -27.9390   -2.0380 N.3   273  ASN273     -0.1240
    120  CA        19.8970  -27.8030   -0.6070 C.3   273  ASN273      0.1653
    121  C         18.9290  -28.8190   -0.0570 C.2   273  ASN273      0.2266
    122  O         17.9270  -29.1350   -0.6910 O.2   273  ASN273     -0.2867
    123  CB        19.3730  -26.4170   -0.3130 C.3   273  ASN273      0.1155
    124  CG        20.4010  -25.3660   -0.5870 C.2   273  ASN273      0.2627
    125  OD1       21.5710  -25.5710   -0.3080 O.2   273  ASN273     -0.2716
    126  ND2       19.9800  -24.2360   -1.1250 N.am  273  ASN273     -0.0877
    127  N         28.6120  -16.3970    0.3880 N.3   281  SER281     -0.1217
    128  CA        29.7210  -16.6530   -0.5080 C.3   281  SER281      0.1889
    129  C         30.1850  -15.3850   -1.2050 C.2   281  SER281      0.2288
    130  O         29.4420  -14.4070   -1.3320 O.2   281  SER281     -0.2866
    131  CB        29.3530  -17.7330   -1.5390 C.3   281  SER281      0.2089
    132  OG        28.3700  -17.2640   -2.4410 O.3   281  SER281     -0.2183
@<TRIPOS>BOND
     1   100   101    1
     2   102   101    1
     3   102   103    2
     4   101   104    1
     5    45    48    1
     6    45    44    1
     7    45    46    1
     8   104   105    1
     9    48    49    1
    10    57    56    2
    11   105   106    1
    12    46    47    2
    13    56    55    1
    14    49    51   ar
    15    49    50   ar
    16   106   107    1
    17   107   108    1
    18    54    55    1
    19    55    58    1
    20    51    53   ar
    21    50    52   ar
    22   109   110    1
    23   112   111    2
    24    58    59    1
    25    53    52   ar
    26   111   110    1
    27   110   113    1
    28    35    36    2
    29    35    34    1
    30   115   117   ar
    31   115   114   ar
    32    59    60    1
    33   117   118   ar
    34    60    62   ar
    35    60    61   ar
    36    34    37    1
    37    34    33    1
    38   114   113    1
    39   114   116   ar
    40   118   116   ar
    41    20    18   ar
    42    37    38    1
    43    39    38   ar
    44    39    41   ar
    45    18    19   ar
    46    18    17    1
    47    38    40   ar
    48    41    43   ar
    49    17    14    1
    50    40    42   ar
    51    63    64    1
    52    68    67    1
    53     8    10   ar
    54     8     6   ar
    55    43    42   ar
    56    32    31    1
    57    67    64    1
    58    88    89    2
    59    88    87    1
    60    10    11   ar
    61     5     6    1
    62     5     2    1
    63    14    13    1
    64    14    15    1
    65    29    31   ar
    66    29    27   ar
    67    64    65    1
    68    16    15    2
    69     6     7   ar
    70     4     3    2
    71    31    30   ar
    72    87    90    1
    73    87    86    1
    74    96    98   ar
    75    96    93   ar
    76    98    99   ar
    77     1     2    1
    78     2     3    1
    79    90    91    1
    80    27    26   ar
    81    11    12    1
    82    11     9   ar
    83    65    66    2
    84    93    91   ar
    85    93    95   ar
    86    99    97   ar
    87     7     9   ar
    88    30    28   ar
    89    91    92   ar
    90   132   131    1
    91   119   120    1
    92    26    28   ar
    93    26    25    1
    94    95    97   ar
    95    95    94   ar
    96   131   128    1
    97    92    94   ar
    98   130   129    2
    99   129   128    1
   100   126   124   am
   101    25    22    1
   102    76    74   am
   103   122   121    2
   104    83    82    1
   105    83    84    1
   106   120   123    1
   107   120   121    1
   108   124   123    1
   109   124   125    2
   110    82    81    1
   111   128   127    1
   112    85    84    1
   113    73    74    1
   114    73    70    1
   115    22    21    1
   116    22    23    1
   117    74    75    2
   118    69    70    1
   119    79    80    2
   120    79    78    1
   121    70    71    1
   122    81    78    1
   123    23    24    2
   124    78    77    1
   125    71    72    2
