@<TRIPOS>MOLECULE
tmp/3nk0A03.pdb
 114 111 0 0 0
SMALL
GASTEIGER

@<TRIPOS>ATOM
      1  N        -45.6710   22.9380   70.4040 N.3    59  TYR59      -0.1241
      2  CA       -45.7520   22.3320   71.7300 C.3    59  TYR59       0.1605
      3  C        -44.5120   22.5870   72.5800 C.2    59  TYR59       0.2264
      4  O        -43.4060   22.6720   72.0700 O.2    59  TYR59      -0.2867
      5  CB       -46.0310   20.8250   71.6470 C.3    59  TYR59       0.0534
      6  CG       -47.3090   20.4640   70.9440 C.ar   59  TYR59      -0.0201
      7  CD1      -47.3200   20.2210   69.5910 C.ar   59  TYR59      -0.0009
      8  CD2      -48.5010   20.3540   71.6350 C.ar   59  TYR59      -0.0009
      9  CE1      -48.4640   19.8950   68.9380 C.ar   59  TYR59       0.0417
     10  CE2      -49.6710   20.0200   70.9810 C.ar   59  TYR59       0.0417
     11  CZ       -49.6410   19.7910   69.6270 C.ar   59  TYR59       0.1957
     12  OH       -50.7800   19.4670   68.9340 O.3    59  TYR59      -0.2866
     13  N        -52.6510   21.0610   76.3460 N.3    82  ALA82      -0.1231
     14  CA       -53.1770   20.6480   75.0940 C.3    82  ALA82       0.1694
     15  C        -54.3610   19.8090   75.4930 C.2    82  ALA82       0.2593
     16  O        -54.4520   19.3870   76.6720 O.2    82  ALA82      -0.2718
     17  CB       -52.1900   20.0780   74.1200 C.3    82  ALA82       0.0304
     18  N        -55.3090   19.7000   74.5750 N.am   83  SER83      -0.1938
     19  CA       -56.5190   18.9350   74.8790 C.3    83  SER83       0.2055
     20  C        -56.0290   17.5240   75.1960 C.2    83  SER83       0.2643
     21  O        -55.5580   16.8150   74.3210 O.2    83  SER83      -0.2714
     22  CB       -57.5130   18.8970   73.7160 C.3    83  SER83       0.2130
     23  OG       -56.9240   18.3180   72.5630 O.3    83  SER83      -0.2179
     24  N        -56.1840   17.1380   76.4600 N.am   84  GLU84      -0.1963
     25  CA       -55.9300   15.7610   76.8620 C.3    84  GLU84       0.1733
     26  C        -56.8050   14.7870   76.0790 C.2    84  GLU84       0.2616
     27  O        -57.9130   15.1280   75.6670 O.2    84  GLU84      -0.2715
     28  CB       -56.1650   15.5880   78.3650 C.3    84  GLU84       0.0429
     29  CG       -55.3750   14.4500   78.9900 C.3    84  GLU84       0.1163
     30  CD       -55.7030   14.2500   80.4560 C.2    84  GLU84       0.3649
     31  OE1      -54.9060   14.6920   81.3100 O.co2  84  GLU84      -0.2457
     32  OE2      -56.7580   13.6520   80.7550 O.co2  84  GLU84      -0.2457
     33  N        -56.2990   13.5740   75.8800 N.am   85  PHE85      -0.1974
     34  CA       -56.9150   12.6330   74.9610 C.3    85  PHE85       0.1639
     35  C        -57.7410   11.6220   75.7220 C.2    85  PHE85       0.2290
     36  O        -57.2980   11.0800   76.7200 O.2    85  PHE85      -0.2864
     37  CB       -55.8560   11.9140   74.1390 C.3    85  PHE85       0.0560
     38  CG       -55.0030   12.8270   73.3200 C.ar   85  PHE85      -0.0200
     39  CD1      -55.5650   13.8420   72.5870 C.ar   85  PHE85      -0.0042
     40  CD2      -53.6390   12.6610   73.2790 C.ar   85  PHE85      -0.0042
     41  CE1      -54.7890   14.6730   71.8360 C.ar   85  PHE85      -0.0003
     42  CE2      -52.8630   13.4930   72.5330 C.ar   85  PHE85      -0.0003
     43  CZ       -53.4430   14.5000   71.8080 C.ar   85  PHE85      -0.0000
     44  N        -53.6550    5.2540   76.1890 N.3   100  ALA100     -0.1245
     45  CA       -52.5000    6.0430   75.8200 C.3   100  ALA100      0.1562
     46  C        -51.2240    5.2230   75.7910 C.2   100  ALA100      0.2260
     47  O        -50.3620    5.4380   74.9540 O.2   100  ALA100     -0.2867
     48  CB       -52.3510    7.2150   76.7530 C.3   100  ALA100      0.0290
     49  N        -44.0430    6.3790   66.7450 N.3   163  TRP163     -0.1241
     50  CA       -43.7080    7.6560   67.3830 C.3   163  TRP163      0.1605
     51  C        -42.3450    8.1380   66.8610 C.2   163  TRP163      0.2264
     52  O        -42.0920    9.3490   66.7980 O.2   163  TRP163     -0.2867
     53  CB       -43.6570    7.5120   68.9390 C.3   163  TRP163      0.0550
     54  CG       -44.9760    7.7720   69.5340 C.ar  163  TRP163      0.0003
     55  CD1      -45.7790    6.8710   70.2210 C.ar  163  TRP163      0.0946
     56  CD2      -45.6820    9.0090   69.4840 C.ar  163  TRP163      0.0152
     57  NE1      -46.9140    7.5200   70.6420 N.ar  163  TRP163     -0.2442
     58  CE2      -46.8850    8.8230   70.1650 C.ar  163  TRP163      0.0810
     59  CE3      -45.3600   10.3190   68.9710 C.ar  163  TRP163      0.0012
     60  CZ2      -47.8460    9.8740   70.2960 C.ar  163  TRP163      0.0191
     61  CZ3      -46.2980   11.3490   69.1230 C.ar  163  TRP163      0.0001
     62  CH2      -47.4950   11.1390   69.7890 C.ar  163  TRP163      0.0015
     63  N        -42.3970   11.8350   74.2570 N.3   195  VAL195     -0.1231
     64  CA       -43.7800   12.0950   73.9160 C.3   195  VAL195      0.1692
     65  C        -44.4890   12.9920   74.9320 C.2   195  VAL195      0.2591
     66  O        -45.3250   13.8070   74.5750 O.2   195  VAL195     -0.2718
     67  CB       -44.5460   10.7950   73.6660 C.3   195  VAL195      0.0266
     68  CG1      -46.0010   11.0660   73.4280 C.3   195  VAL195      0.0020
     69  CG2      -43.9500   10.0630   72.4990 C.3   195  VAL195      0.0020
     70  N        -44.1220   12.8460   76.1950 N.am  196  LEU196     -0.1980
     71  CA       -44.6990   13.6340   77.2750 C.3   196  LEU196      0.1596
     72  C        -44.3580   15.1220   77.2470 C.2   196  LEU196      0.2287
     73  O        -45.0760   15.9350   77.8000 O.2   196  LEU196     -0.2864
     74  CB       -44.3580   13.0220   78.6250 C.3   196  LEU196      0.0297
     75  CG       -44.9050   11.6180   78.8540 C.3   196  LEU196      0.0022
     76  CD1      -44.4040   11.0230   80.1300 C.3   196  LEU196      0.0001
     77  CD2      -46.3930   11.6030   78.8240 C.3   196  LEU196      0.0001
     78  N        -44.7470   16.9320   74.7390 N.3   198  LEU198     -0.1231
     79  CA       -45.8830   17.5660   74.0920 C.3   198  LEU198      0.1693
     80  C        -46.9510   17.9650   75.0790 C.2   198  LEU198      0.2592
     81  O        -48.0330   17.4050   75.0780 O.2   198  LEU198     -0.2718
     82  CB       -46.5030   16.6290   73.0720 C.3   198  LEU198      0.0284
     83  CG       -45.5860   16.1120   71.9810 C.3   198  LEU198      0.0019
     84  CD1      -46.4020   15.3160   70.9880 C.3   198  LEU198      0.0001
     85  CD2      -44.8740   17.2770   71.3190 C.3   198  LEU198      0.0001
     86  N        -46.6470   18.9350   75.9210 N.am  199  ASP199     -0.1974
     87  CA       -47.4480   19.1720   77.0930 C.3   199  ASP199      0.1709
     88  C        -48.3870   20.3400   76.8680 C.2   199  ASP199      0.2293
     89  O        -49.5890   20.2200   77.0510 O.2   199  ASP199     -0.2864
     90  CB       -46.5620   19.4260   78.3040 C.3   199  ASP199      0.1436
     91  CG       -47.3150   19.3040   79.6050 C.2   199  ASP199      0.3671
     92  OD1      -47.9110   18.2460   79.8470 O.co2 199  ASP199     -0.2456
     93  OD2      -47.3080   20.2670   80.3870 O.co2 199  ASP199     -0.2456
     94  N        -56.9450   10.1780   69.9780 N.3   300  GLU300     -0.1245
     95  CA       -55.5700    9.9760   69.6640 C.3   300  GLU300      0.1567
     96  C        -55.3320    8.6300   68.9220 C.2   300  GLU300      0.2260
     97  O        -55.8420    7.5990   69.3600 O.2   300  GLU300     -0.2867
     98  CB       -54.7260   10.0120   70.9420 C.3   300  GLU300      0.0388
     99  CG       -53.2830    9.9010   70.5470 C.3   300  GLU300      0.1160
    100  CD       -52.3210    9.5670   71.7220 C.2   300  GLU300      0.3649
    101  OE1      -52.5200    8.5690   72.4410 O.co2 300  GLU300     -0.2457
    102  OE2      -51.3610   10.3350   71.8930 O.co2 300  GLU300     -0.2457
    103  N        -54.0650   12.8050   65.7120 N.3   311  TYR311     -0.1241
    104  CA       -54.6790   13.2150   66.9560 C.3   311  TYR311      0.1605
    105  C        -55.4320   14.5390   66.9580 C.2   311  TYR311      0.2264
    106  O        -55.2660   15.3600   66.0740 O.2   311  TYR311     -0.2867
    107  CB       -53.7140   13.0950   68.1380 C.3   311  TYR311      0.0534
    108  CG       -52.4420   13.9050   68.0530 C.ar  311  TYR311     -0.0201
    109  CD1      -52.4590   15.2780   68.1710 C.ar  311  TYR311     -0.0009
    110  CD2      -51.2200   13.2870   67.9070 C.ar  311  TYR311     -0.0009
    111  CE1      -51.2990   16.0110   68.1120 C.ar  311  TYR311      0.0417
    112  CE2      -50.0580   14.0130   67.8510 C.ar  311  TYR311      0.0417
    113  CZ       -50.1020   15.3730   67.9510 C.ar  311  TYR311      0.1957
    114  OH       -48.9480   16.1020   67.8980 O.3   311  TYR311     -0.2866
@<TRIPOS>BOND
     1   103   104    1
     2   106   105    2
     3    49    50    1
     4    52    51    2
     5    51    50    1
     6   104   105    1
     7   104   107    1
     8    50    53    1
     9   112   110   ar
    10   112   113   ar
    11   114   113    1
    12   110   108   ar
    13   113   111   ar
    14   108   107    1
    15   108   109   ar
    16   111   109   ar
    17    96    97    2
    18    96    95    1
    19    12    11    1
    20     9     7   ar
    21     9    11   ar
    22    53    54    1
    23    59    61   ar
    24    59    56   ar
    25    61    62   ar
    26    56    54   ar
    27    56    58   ar
    28    54    55   ar
    29     7     6   ar
    30    11    10   ar
    31    95    94    1
    32    95    98    1
    33    62    60   ar
    34    58    60   ar
    35    58    57   ar
    36    55    57   ar
    37     1     2    1
    38    99    98    1
    39    99   100    1
    40     6     8   ar
    41     6     5    1
    42    10     8   ar
    43    84    83    1
    44    85    83    1
    45     5     2    1
    46   100   102   ar
    47   100   101   ar
    48     2     3    1
    49    43    41   ar
    50    43    42   ar
    51    41    39   ar
    52    83    82    1
    53     4     3    2
    54    69    67    1
    55    42    40   ar
    56    23    22    1
    57    39    38   ar
    58    82    79    1
    59    40    38   ar
    60    38    37    1
    61    68    67    1
    62    67    64    1
    63    22    19    1
    64    64    63    1
    65    64    65    1
    66    79    78    1
    67    79    80    1
    68    17    14    1
    69    37    34    1
    70    21    20    2
    71    66    65    2
    72    18    19    1
    73    18    15   am
    74    19    20    1
    75    65    70   am
    76    47    46    2
    77    34    35    1
    78    34    33    1
    79    81    80    2
    80    80    86   am
    81    14    15    1
    82    14    13    1
    83    20    24   am
    84    15    16    2
    85    27    26    2
    86    35    36    2
    87    46    45    1
    88    45    44    1
    89    45    48    1
    90    33    26   am
    91    86    87    1
    92    26    25    1
    93    70    71    1
    94    24    25    1
    95    25    28    1
    96    88    89    2
    97    88    87    1
    98    87    90    1
    99    72    71    1
   100    72    73    2
   101    71    74    1
   102    90    91    1
   103    28    29    1
   104    74    75    1
   105    77    75    1
   106    75    76    1
   107    29    30    1
   108    91    92   ar
   109    91    93   ar
   110    30    32   ar
   111    30    31   ar
