@<TRIPOS>MOLECULE
tmp/3nk1A00.pdb
 119 116 0 0 0
SMALL
GASTEIGER

@<TRIPOS>ATOM
      1  N        118.0270   25.5290   62.3550 N.3    56  GLY56      -0.1210
      2  CA       119.2710   24.9010   62.7270 C.3    56  GLY56       0.1956
      3  C        119.2380   24.4350   64.1560 C.2    56  GLY56       0.2612
      4  O        118.2600   23.8670   64.6050 O.2    56  GLY56      -0.2717
      5  N        120.3140   24.7180   64.8750 N.am   57  GLY57      -0.1942
      6  CA       120.4660   24.2630   66.2360 C.3    57  GLY57       0.2014
      7  C        119.4960   24.9100   67.1910 C.2    57  GLY57       0.2639
      8  O        119.2400   26.1000   67.1070 O.2    57  GLY57      -0.2714
      9  N        118.9660   24.1170   68.1090 N.am   58  ALA58      -0.1963
     10  CA       117.7780   24.4840   68.8520 C.3    58  ALA58       0.1728
     11  C        117.8960   24.1320   70.3320 C.2    58  ALA58       0.2616
     12  O        117.4200   24.8730   71.1840 O.2    58  ALA58      -0.2715
     13  CB       116.5620   23.8270   68.2450 C.3    58  ALA58       0.0334
     14  N        118.5300   23.0020   70.6330 N.am   59  TYR59      -0.1974
     15  CA       118.4590   22.4220   71.9730 C.3    59  TYR59       0.1639
     16  C        119.6860   22.7290   72.8170 C.2    59  TYR59       0.2290
     17  O        120.7950   22.8050   72.3120 O.2    59  TYR59      -0.2864
     18  CB       118.2540   20.9070   71.9260 C.3    59  TYR59       0.0560
     19  CG       117.1080   20.4360   71.0760 C.ar   59  TYR59      -0.0198
     20  CD1      115.8230   20.4060   71.5740 C.ar   59  TYR59      -0.0009
     21  CD2      117.3180   19.9910   69.7800 C.ar   59  TYR59      -0.0009
     22  CE1      114.7780   19.9650   70.8050 C.ar   59  TYR59       0.0417
     23  CE2      116.2760   19.5590   68.9990 C.ar   59  TYR59       0.0417
     24  CZ       115.0070   19.5370   69.5190 C.ar   59  TYR59       0.1957
     25  OH       113.9630   19.1090   68.7480 O.3    59  TYR59      -0.2866
     26  N        121.1060   10.0350   63.8340 N.3   166  ASN166     -0.1225
     27  CA       120.6220   11.3300   64.2740 C.3   166  ASN166      0.1785
     28  C        121.7430   12.3010   64.6450 C.2   166  ASN166      0.2597
     29  O        121.8300   13.3860   64.1010 O.2   166  ASN166     -0.2718
     30  CB       119.6250   11.1520   65.4210 C.3   166  ASN166      0.1169
     31  CG       119.2310   12.4520   66.0690 C.2   166  ASN166      0.2627
     32  OD1      120.0540   13.1350   66.6490 O.2   166  ASN166     -0.2716
     33  ND2      117.9680   12.7790   66.0010 N.am  166  ASN166     -0.0877
     34  N        122.6170   11.8750   65.5440 N.am  167  MET167     -0.1979
     35  CA       123.4950   12.7860   66.2480 C.3   167  MET167      0.1605
     36  C        124.7240   13.1800   65.4310 C.2   167  MET167      0.2287
     37  O        125.2080   14.2810   65.5330 O.2   167  MET167     -0.2864
     38  CB       123.9190   12.2070   67.5930 C.3   167  MET167      0.0413
     39  CG       122.8710   12.2940   68.6730 C.3   167  MET167      0.0598
     40  SD       122.6040   13.9540   69.2550 S.3   167  MET167     -0.1393
     41  CE       120.9560   13.8080   69.8390 C.3   167  MET167      0.0692
     42  N        131.7440   12.2460   71.3410 N.3   183  LEU183     -0.1245
     43  CA       130.4720   12.7550   71.8580 C.3   183  LEU183      0.1561
     44  C        130.1080   12.1960   73.2260 C.2   183  LEU183      0.2260
     45  O        129.5690   12.9090   74.0560 O.2   183  LEU183     -0.2867
     46  CB       129.2760   12.5100   70.9080 C.3   183  LEU183      0.0270
     47  CG       129.4790   13.1760   69.5130 C.3   183  LEU183      0.0019
     48  CD1      128.2530   13.1330   68.6100 C.3   183  LEU183      0.0001
     49  CD2      130.0030   14.6490   69.6230 C.3   183  LEU183      0.0001
     50  N        119.1000   16.9170   74.9180 N.3   198  LEU198     -0.1245
     51  CA       117.9550   17.5470   74.2880 C.3   198  LEU198      0.1561
     52  C        116.9460   18.0330   75.3020 C.2   198  LEU198      0.2260
     53  O        115.8300   17.5430   75.3630 O.2   198  LEU198     -0.2867
     54  CB       117.2820   16.5890   73.3120 C.3   198  LEU198      0.0270
     55  CG       118.1570   16.0230   72.2000 C.3   198  LEU198      0.0019
     56  CD1      117.4230   14.9700   71.4120 C.3   198  LEU198      0.0001
     57  CD2      118.6500   17.1300   71.3100 C.3   198  LEU198      0.0001
     58  N        117.9930   17.9490   58.9810 N.3   287  LYS287     -0.1245
     59  CA       116.8790   18.1490   59.8740 C.3   287  LYS287      0.1561
     60  C        115.6630   18.6550   59.1180 C.2   287  LYS287      0.2260
     61  O        115.6840   19.7410   58.5690 O.2   287  LYS287     -0.2867
     62  CB       117.2650   19.1240   60.9770 C.3   287  LYS287      0.0271
     63  CG       116.1220   19.5650   61.8440 C.3   287  LYS287      0.0035
     64  CD       116.5760   20.5700   62.8650 C.3   287  LYS287      0.0206
     65  CE       115.4120   21.2030   63.5770 C.3   287  LYS287      0.1093
     66  NZ       115.8490   22.1180   64.6450 N.3   287  LYS287     -0.1314
     67  N        110.0460   12.7070   65.7440 N.3   311  TYR311     -0.1241
     68  CA       109.3820   13.1120   66.9630 C.3   311  TYR311      0.1605
     69  C        108.7280   14.4870   66.9730 C.2   311  TYR311      0.2264
     70  O        109.0110   15.3260   66.1370 O.2   311  TYR311     -0.2867
     71  CB       110.2770   12.8890   68.1850 C.3   311  TYR311      0.0534
     72  CG       111.5800   13.6430   68.1790 C.ar  311  TYR311     -0.0201
     73  CD1      111.6100   15.0140   68.3220 C.ar  311  TYR311     -0.0009
     74  CD2      112.7800   12.9790   68.0610 C.ar  311  TYR311     -0.0009
     75  CE1      112.7900   15.6960   68.3320 C.ar  311  TYR311      0.0417
     76  CE2      113.9730   13.6580   68.0710 C.ar  311  TYR311      0.0417
     77  CZ       113.9710   15.0180   68.2040 C.ar  311  TYR311      0.1957
     78  OH       115.1570   15.7000   68.2130 O.3   311  TYR311     -0.2866
     79  N        115.2690   13.5310   61.7240 N.3   326  PHE326     -0.1241
     80  CA       116.6640   13.5860   61.3500 C.3   326  PHE326      0.1605
     81  C        117.0530   12.4120   60.4750 C.2   326  PHE326      0.2264
     82  O        116.6380   11.2890   60.7060 O.2   326  PHE326     -0.2867
     83  CB       117.5580   13.6550   62.5850 C.3   326  PHE326      0.0534
     84  CG       117.5430   14.9820   63.2830 C.ar  326  PHE326     -0.0203
     85  CD1      116.5610   15.2850   64.1930 C.ar  326  PHE326     -0.0042
     86  CD2      118.5340   15.9150   63.0520 C.ar  326  PHE326     -0.0042
     87  CE1      116.5600   16.4920   64.8430 C.ar  326  PHE326     -0.0003
     88  CE2      118.5300   17.1190   63.7000 C.ar  326  PHE326     -0.0003
     89  CZ       117.5450   17.4110   64.5920 C.ar  326  PHE326     -0.0000
     90  N        126.2970   20.7980   61.1400 N.3   371  TRP371     -0.1241
     91  CA       127.2970   20.5200   62.1570 C.3   371  TRP371      0.1605
     92  C        128.4380   19.5710   61.7950 C.2   371  TRP371      0.2264
     93  O        128.3040   18.7310   60.9220 O.2   371  TRP371     -0.2867
     94  CB       126.6410   20.1430   63.4840 C.3   371  TRP371      0.0550
     95  CG       126.1030   18.7640   63.5260 C.ar  371  TRP371      0.0003
     96  CD1      126.7460   17.6600   63.9550 C.ar  371  TRP371      0.0946
     97  CD2      124.8100   18.3400   63.1100 C.ar  371  TRP371      0.0152
     98  NE1      125.9440   16.5740   63.8450 N.ar  371  TRP371     -0.2442
     99  CE2      124.7400   16.9620   63.3290 C.ar  371  TRP371      0.0810
    100  CE3      123.7000   18.9940   62.5830 C.ar  371  TRP371      0.0012
    101  CZ2      123.6070   16.2200   63.0400 C.ar  371  TRP371      0.0191
    102  CZ3      122.5790   18.2560   62.2930 C.ar  371  TRP371      0.0001
    103  CH2      122.5390   16.8860   62.5240 C.ar  371  TRP371      0.0015
    104  N        130.0350   20.5660   67.6420 N.3   406  GLY406     -0.1210
    105  CA       128.7810   20.2630   67.0400 C.3   406  GLY406      0.1956
    106  C        127.6880   20.9520   67.8580 C.2   406  GLY406      0.2611
    107  O        126.5500   20.8490   67.4820 O.2   406  GLY406     -0.2717
    108  N        128.0480   21.6220   68.9440 N.am  407  TYR407     -0.1976
    109  CA       127.0860   22.3140   69.7850 C.3   407  TYR407      0.1639
    110  C        127.4280   23.7930   69.9690 C.2   407  TYR407      0.2290
    111  O        128.5520   24.2070   69.7770 O.2   407  TYR407     -0.2864
    112  CB       126.9770   21.6380   71.1490 C.3   407  TYR407      0.0560
    113  CG       126.4790   20.2110   71.1040 C.ar  407  TYR407     -0.0198
    114  CD1      125.2050   19.8970   71.5210 C.ar  407  TYR407     -0.0009
    115  CD2      127.2860   19.1820   70.6470 C.ar  407  TYR407     -0.0009
    116  CE1      124.7460   18.6130   71.4830 C.ar  407  TYR407      0.0417
    117  CE2      126.8330   17.8910   70.6040 C.ar  407  TYR407      0.0417
    118  CZ       125.5590   17.6100   71.0220 C.ar  407  TYR407      0.1957
    119  OH       125.0840   16.3260   70.9840 O.3   407  TYR407     -0.2866
@<TRIPOS>BOND
     1    61    60    2
     2    58    59    1
     3    60    59    1
     4    59    62    1
     5    81    82    2
     6    81    80    1
     7    93    92    2
     8    62    63    1
     9    90    91    1
    10    80    79    1
    11    80    83    1
    12    92    91    1
    13    63    64    1
    14    91    94    1
    15   102   103   ar
    16   102   100   ar
    17     1     2    1
    18   103   101   ar
    19   100    97   ar
    20    83    84    1
    21     2     3    1
    22    64    65    1
    23   101    99   ar
    24    86    84   ar
    25    86    88   ar
    26    97    99   ar
    27    97    95   ar
    28    84    85   ar
    29    99    98   ar
    30    94    95    1
    31    95    96   ar
    32    65    66    1
    33    88    89   ar
    34    26    27    1
    35    98    96   ar
    36    29    28    2
    37     3     4    2
    38     3     5   am
    39    85    87   ar
    40    27    28    1
    41    27    30    1
    42    89    87   ar
    43    28    34   am
    44     5     6    1
    45    30    31    1
    46    36    37    2
    47    36    35    1
    48    34    35    1
    49    67    68    1
    50    33    31   am
    51    31    32    2
    52    70    69    2
    53     6     7    1
    54    35    38    1
    55    68    69    1
    56    68    71    1
    57   105   104    1
    58   105   106    1
    59     8     7    2
    60     7     9   am
    61   107   106    2
    62    38    39    1
    63   106   108   am
    64    74    76   ar
    65    74    72   ar
    66    76    77   ar
    67     9    10    1
    68    72    71    1
    69    72    73   ar
    70    77    78    1
    71    77    75   ar
    72    13    10    1
    73    73    75   ar
    74    48    47    1
    75    39    40    1
    76    25    24    1
    77    10    11    1
    78   108   109    1
    79    23    24   ar
    80    23    21   ar
    81    40    41    1
    82    47    49    1
    83    47    46    1
    84    24    22   ar
    85   111   110    2
    86    21    19   ar
    87   109   110    1
    88   109   112    1
    89    11    14   am
    90    11    12    2
    91   117   115   ar
    92   117   118   ar
    93    14    15    1
    94   115   113   ar
    95    22    20   ar
    96    46    43    1
    97   119   118    1
    98   118   116   ar
    99    19    20   ar
   100    19    18    1
   101   113   112    1
   102   113   114   ar
   103    57    55    1
   104    42    43    1
   105    56    55    1
   106   116   114   ar
   107    43    44    1
   108    18    15    1
   109    15    16    1
   110    55    54    1
   111    17    16    2
   112    44    45    2
   113    54    51    1
   114    51    50    1
   115    51    52    1
   116    52    53    2
