@<TRIPOS>MOLECULE
tmp/3nk2A00.pdb
 142 142 0 0 0
SMALL
GASTEIGER

@<TRIPOS>ATOM
      1  N         64.9280   24.9140   43.9890 N.3    57  GLY57      -0.1210
      2  CA        66.3590   24.7690   43.7530 C.3    57  GLY57       0.1956
      3  C         67.2430   25.2300   44.8880 C.2    57  GLY57       0.2612
      4  O         67.2330   26.4080   45.2330 O.2    57  GLY57      -0.2717
      5  N         68.0250   24.3110   45.4520 N.am   58  ALA58      -0.1965
      6  CA        68.8760   24.6270   46.6030 C.3    58  ALA58       0.1728
      7  C         70.3700   24.3150   46.4220 C.2    58  ALA58       0.2616
      8  O         71.2320   25.1230   46.8020 O.2    58  ALA58      -0.2715
      9  CB        68.3340   23.9300   47.8650 C.3    58  ALA58       0.0334
     10  N         70.6700   23.1460   45.8520 N.am   59  TYR59      -0.1974
     11  CA        72.0330   22.5800   45.8950 C.3    59  TYR59       0.1639
     12  C         72.8680   22.8520   44.6410 C.2    59  TYR59       0.2290
     13  O         72.3310   23.0070   43.5390 O.2    59  TYR59      -0.2864
     14  CB        72.0010   21.0600   46.1630 C.3    59  TYR59       0.0560
     15  CG        71.0160   20.5930   47.2280 C.ar   59  TYR59      -0.0198
     16  CD1       71.4000   20.4660   48.5680 C.ar   59  TYR59      -0.0009
     17  CD2       69.6980   20.2540   46.8860 C.ar   59  TYR59      -0.0009
     18  CE1       70.4840   20.0220   49.5480 C.ar   59  TYR59       0.0417
     19  CE2       68.7740   19.8160   47.8530 C.ar   59  TYR59       0.0417
     20  CZ        69.1710   19.7010   49.1770 C.ar   59  TYR59       0.1957
     21  OH        68.2500   19.2720   50.1160 O.3    59  TYR59      -0.2866
     22  N         63.9060    9.9810   42.9950 N.3   166  ASN166     -0.1225
     23  CA        64.2430   11.2680   43.5730 C.3   166  ASN166      0.1785
     24  C         64.7040   12.2470   42.4890 C.2   166  ASN166      0.2597
     25  O         64.1150   13.3180   42.3120 O.2   166  ASN166     -0.2718
     26  CB        65.3000   11.0610   44.6690 C.3   166  ASN166      0.1169
     27  CG        65.9730   12.3540   45.1270 C.2   166  ASN166      0.2627
     28  OD1       65.9620   12.6870   46.3100 O.2   166  ASN166     -0.2716
     29  ND2       66.6000   13.0560   44.2060 N.am  166  ASN166     -0.0877
     30  N         65.7290   11.8630   41.7400 N.am  167  MET167     -0.1965
     31  CA        66.3400   12.7760   40.7920 C.3   167  MET167      0.1736
     32  C         65.4270   13.1320   39.6160 C.2   167  MET167      0.2616
     33  O         65.4100   14.2770   39.1600 O.2   167  MET167     -0.2715
     34  CB        67.6770   12.2200   40.2990 C.3   167  MET167      0.0427
     35  CG        68.7370   12.1770   41.3690 C.3   167  MET167      0.0599
     36  SD        69.1790   13.8340   41.8980 S.3   167  MET167     -0.1393
     37  CE        70.2090   13.5490   43.3300 C.3   167  MET167      0.0692
     38  N         64.6700   12.1610   39.1240 N.am  168  LEU168     -0.1977
     39  CA        63.8630   12.3860   37.9210 C.3   168  LEU168      0.1596
     40  C         62.4810   12.9720   38.2490 C.2   168  LEU168      0.2287
     41  O         61.8780   13.6640   37.4290 O.2   168  LEU168     -0.2864
     42  CB        63.7480   11.1040   37.0880 C.3   168  LEU168      0.0297
     43  CG        64.8910   10.8050   36.1050 C.3   168  LEU168      0.0022
     44  CD1       66.2350   10.4750   36.7770 C.3   168  LEU168      0.0001
     45  CD2       64.4970    9.6900   35.1440 C.3   168  LEU168      0.0001
     46  N         66.6070    9.1950   29.6490 N.3   179  TRP179     -0.1241
     47  CA        66.7820   10.4280   30.3940 C.3   179  TRP179      0.1605
     48  C         67.6780   10.2160   31.6030 C.2   179  TRP179      0.2264
     49  O         68.4710   11.0970   31.9610 O.2   179  TRP179     -0.2867
     50  CB        65.4310   10.9810   30.8150 C.3   179  TRP179      0.0550
     51  CG        65.5350   12.2820   31.4780 C.ar  179  TRP179      0.0003
     52  CD1       65.2420   12.5540   32.7780 C.ar  179  TRP179      0.0946
     53  CD2       65.9660   13.5130   30.8900 C.ar  179  TRP179      0.0152
     54  NE1       65.4590   13.8880   33.0390 N.ar  179  TRP179     -0.2442
     55  CE2       65.9010   14.5000   31.8950 C.ar  179  TRP179      0.0810
     56  CE3       66.3760   13.8840   29.6060 C.ar  179  TRP179      0.0012
     57  CZ2       66.2570   15.8400   31.6610 C.ar  179  TRP179      0.0191
     58  CZ3       66.7360   15.2170   29.3670 C.ar  179  TRP179      0.0001
     59  CH2       66.6680   16.1790   30.3880 C.ar  179  TRP179      0.0015
     60  N         71.2210   12.0920   32.4840 N.3   183  LEU183     -0.1245
     61  CA        71.7280   12.6890   33.7160 C.3   183  LEU183      0.1561
     62  C         73.0830   12.1090   34.0800 C.2   183  LEU183      0.2260
     63  O         73.9710   12.8370   34.5330 O.2   183  LEU183     -0.2867
     64  CB        70.7590   12.5360   34.8800 C.3   183  LEU183      0.0270
     65  CG        69.4070   13.2530   34.7880 C.3   183  LEU183      0.0019
     66  CD1       68.7320   13.2010   36.1500 C.3   183  LEU183      0.0001
     67  CD2       69.4940   14.7060   34.2840 C.3   183  LEU183      0.0001
     68  N         74.8460   16.9840   45.1050 N.3   198  LEU198     -0.1245
     69  CA        74.1840   17.6500   46.2080 C.3   198  LEU198      0.1561
     70  C         75.2760   18.0100   47.1890 C.2   198  LEU198      0.2260
     71  O         75.3280   17.4690   48.2940 O.2   198  LEU198     -0.2867
     72  CB        73.1490   16.7340   46.8720 C.3   198  LEU198      0.0270
     73  CG        72.0170   16.1400   46.0220 C.3   198  LEU198      0.0019
     74  CD1       71.1570   15.1990   46.8760 C.3   198  LEU198      0.0001
     75  CD2       71.1540   17.2300   45.3450 C.3   198  LEU198      0.0001
     76  N         65.7010   12.7180   54.2280 N.3   311  TYR311     -0.1241
     77  CA        66.9240   13.0300   54.9750 C.3   311  TYR311      0.1605
     78  C         66.9370   14.4010   55.6120 C.2   311  TYR311      0.2264
     79  O         66.0570   15.2340   55.3590 O.2   311  TYR311     -0.2867
     80  CB        68.1680   12.8240   54.1090 C.3   311  TYR311      0.0534
     81  CG        68.1300   13.5260   52.7840 C.ar  311  TYR311     -0.0201
     82  CD1       68.3800   14.8980   52.6960 C.ar  311  TYR311     -0.0009
     83  CD2       67.8840   12.8230   51.6060 C.ar  311  TYR311     -0.0009
     84  CE1       68.3710   15.5590   51.4730 C.ar  311  TYR311      0.0417
     85  CE2       67.8720   13.4840   50.3600 C.ar  311  TYR311      0.0417
     86  CZ        68.1150   14.8530   50.3100 C.ar  311  TYR311      0.1957
     87  OH        68.1020   15.5310   49.1000 O.3   311  TYR311     -0.2866
     88  N         61.7170   13.4730   48.9970 N.3   326  PHE326     -0.1241
     89  CA        61.3880   13.6160   47.6020 C.3   326  PHE326      0.1605
     90  C         60.5250   12.4520   47.1960 C.2   326  PHE326      0.2264
     91  O         60.6690   11.3480   47.7180 O.2   326  PHE326     -0.2867
     92  CB        62.6550   13.6860   46.7580 C.3   326  PHE326      0.0534
     93  CG        63.3440   15.0210   46.8060 C.ar  326  PHE326     -0.0203
     94  CD1       64.2990   15.2900   47.7870 C.ar  326  PHE326     -0.0042
     95  CD2       63.0530   16.0010   45.8540 C.ar  326  PHE326     -0.0042
     96  CE1       64.9520   16.5290   47.8300 C.ar  326  PHE326     -0.0003
     97  CE2       63.6970   17.2370   45.8780 C.ar  326  PHE326     -0.0003
     98  CZ        64.6440   17.5130   46.8730 C.ar  326  PHE326     -0.0000
     99  N         61.0820   20.6240   37.9510 N.3   371  TRP371     -0.1227
    100  CA        62.1040   20.4980   36.9050 C.3   371  TRP371      0.1737
    101  C         61.6930   19.5330   35.7930 C.2   371  TRP371      0.2595
    102  O         60.8530   18.6500   35.9810 O.2   371  TRP371     -0.2718
    103  CB        63.4680   20.1070   37.4840 C.3   371  TRP371      0.0564
    104  CG        63.4910   18.7410   38.0690 C.ar  371  TRP371      0.0003
    105  CD1       63.8850   17.5920   37.4530 C.ar  371  TRP371      0.0946
    106  CD2       63.0600   18.3710   39.3780 C.ar  371  TRP371      0.0152
    107  NE1       63.7400   16.5290   38.3060 N.ar  371  TRP371     -0.2442
    108  CE2       63.2340   16.9760   39.4940 C.ar  371  TRP371      0.0810
    109  CE3       62.5460   19.0850   40.4680 C.ar  371  TRP371      0.0012
    110  CZ2       62.9230   16.2780   40.6590 C.ar  371  TRP371      0.0191
    111  CZ3       62.2400   18.3960   41.6270 C.ar  371  TRP371      0.0001
    112  CH2       62.4320   17.0040   41.7160 C.ar  371  TRP371      0.0015
    113  N         62.3080   19.7120   34.6350 N.am  372  VAL372     -0.1980
    114  CA        62.0060   18.9140   33.4610 C.3   372  VAL372      0.1595
    115  C         62.3190   17.4160   33.6280 C.2   372  VAL372      0.2287
    116  O         63.3570   17.0370   34.1780 O.2   372  VAL372     -0.2864
    117  CB        62.7690   19.4650   32.2360 C.3   372  VAL372      0.0276
    118  CG1       64.2710   19.4820   32.5130 C.3   372  VAL372      0.0022
    119  CG2       62.4700   18.6450   31.0070 C.3   372  VAL372      0.0022
    120  N         70.5500   19.7970   32.0830 N.3   405  PRO405     -0.2102
    121  CA        69.1150   20.0360   32.2560 C.3   405  PRO405      0.1504
    122  C         68.6380   19.7430   33.6770 C.2   405  PRO405      0.2576
    123  O         69.1450   18.8260   34.3160 O.2   405  PRO405     -0.2718
    124  CB        68.4810   19.0510   31.2790 C.3   405  PRO405      0.0282
    125  CG        69.4870   17.9700   31.1330 C.3   405  PRO405      0.0208
    126  CD        70.8000   18.6610   31.1740 C.3   405  PRO405      0.0893
    127  N         67.6790   20.5310   34.1580 N.am  406  GLY406     -0.1943
    128  CA        67.1300   20.3630   35.4960 C.3   406  GLY406      0.2014
    129  C         67.9100   21.0490   36.6070 C.2   406  GLY406      0.2638
    130  O         67.4860   21.0130   37.7670 O.2   406  GLY406     -0.2714
    131  N         69.0390   21.6680   36.2610 N.am  407  TYR407     -0.1973
    132  CA        69.9050   22.3440   37.2290 C.3   407  TYR407      0.1639
    133  C         70.0530   23.8400   36.9150 C.2   407  TYR407      0.2290
    134  O         69.9580   24.2470   35.7580 O.2   407  TYR407     -0.2864
    135  CB        71.2930   21.6820   37.2470 C.3   407  TYR407      0.0560
    136  CG        71.3240   20.2910   37.8670 C.ar  407  TYR407     -0.0198
    137  CD1       72.0340   20.0490   39.0500 C.ar  407  TYR407     -0.0009
    138  CD2       70.6370   19.2150   37.2730 C.ar  407  TYR407     -0.0009
    139  CE1       72.0620   18.7800   39.6270 C.ar  407  TYR407      0.0417
    140  CE2       70.6480   17.9390   37.8500 C.ar  407  TYR407      0.0417
    141  CZ        71.3610   17.7290   39.0260 C.ar  407  TYR407      0.1957
    142  OH        71.3720   16.4670   39.6060 O.3   407  TYR407     -0.2866
@<TRIPOS>BOND
     1    58    56   ar
     2    58    59   ar
     3    56    53   ar
     4    46    47    1
     5    59    57   ar
     6    47    50    1
     7    47    48    1
     8    50    51    1
     9    53    51   ar
    10    53    55   ar
    11   119   117    1
    12   125   126    1
    13   125   124    1
    14   126   120    1
    15   124   121    1
    16    51    52   ar
    17    48    49    2
    18    57    55   ar
    19    55    54   ar
    20   120   121    1
    21   117   118    1
    22   117   114    1
    23   121   122    1
    24    60    61    1
    25    52    54   ar
    26   114   115    1
    27   114   113    1
    28   115   116    2
    29   122   127   am
    30   122   123    2
    31    61    62    1
    32    61    64    1
    33    62    63    2
    34   127   128    1
    35    67    65    1
    36   113   101   am
    37    65    64    1
    38    65    66    1
    39    45    43    1
    40   128   129    1
    41   134   133    2
    42   101   102    2
    43   101   100    1
    44    43    44    1
    45    43    42    1
    46   131   129   am
    47   131   132    1
    48   129   130    2
    49   100   103    1
    50   100    99    1
    51   133   132    1
    52    42    39    1
    53   132   135    1
    54   135   136    1
    55   138   140   ar
    56   138   136   ar
    57    41    40    2
    58   105   104   ar
    59   105   107   ar
    60   103   104    1
    61   140   141   ar
    62   136   137   ar
    63    39    40    1
    64    39    38    1
    65   104   106   ar
    66   107   108   ar
    67   141   142    1
    68   141   139   ar
    69   137   139   ar
    70    38    32   am
    71    33    32    2
    72   106   108   ar
    73   106   109   ar
    74   108   110   ar
    75    32    31    1
    76    34    31    1
    77    34    35    1
    78   109   111   ar
    79   110   112   ar
    80    31    30    1
    81    35    36    1
    82   111   112   ar
    83    30    24   am
    84    36    37    1
    85    25    24    2
    86    24    23    1
    87    22    23    1
    88    13    12    2
    89    23    26    1
    90     2     1    1
    91     2     3    1
    92    29    27   am
    93    12    11    1
    94    26    27    1
    95     3     4    2
    96     3     5   am
    97    68    69    1
    98    27    28    2
    99    75    73    1
   100     5     6    1
   101    10    11    1
   102    10     7   am
   103    95    97   ar
   104    95    93   ar
   105    97    98   ar
   106    11    14    1
   107    73    72    1
   108    73    74    1
   109    14    15    1
   110    69    72    1
   111    69    70    1
   112     7     6    1
   113     7     8    2
   114     6     9    1
   115    92    93    1
   116    92    89    1
   117    93    94   ar
   118    98    96   ar
   119    17    15   ar
   120    17    19   ar
   121    70    71    2
   122    90    89    1
   123    90    91    2
   124    15    16   ar
   125    89    88    1
   126    94    96   ar
   127    19    20   ar
   128    16    18   ar
   129    87    86    1
   130    20    18   ar
   131    20    21    1
   132    86    85   ar
   133    86    84   ar
   134    85    83   ar
   135    84    82   ar
   136    83    81   ar
   137    82    81   ar
   138    81    80    1
   139    80    77    1
   140    76    77    1
   141    77    78    1
   142    79    78    2
