@<TRIPOS>MOLECULE
tmp/3nk5B01.pdb
 69 64 0 0 0
SMALL
GASTEIGER

@<TRIPOS>ATOM
      1  N        -24.9390   27.3300    9.3010 N.3     3  MET3       -0.1230
      2  CA       -25.3480   26.7090   10.5640 C.3     3  MET3        0.1702
      3  C        -24.6320   27.3510   11.7700 C.2     3  MET3        0.2592
      4  O        -25.1850   27.4630   12.8370 O.2     3  MET3       -0.2718
      5  CB       -25.0920   25.2040   10.5230 C.3     3  MET3        0.0401
      6  CG       -25.6720   24.4170   11.6930 C.3     3  MET3        0.0596
      7  SD       -27.3680   24.8030   12.1930 S.3     3  MET3       -0.1393
      8  CE       -28.3070   24.2400   10.7500 C.3     3  MET3        0.0692
      9  N        -23.3940   27.7800   11.5620 N.am    4  PHE4       -0.1976
     10  CA       -22.5120   28.1840   12.6350 C.3     4  PHE4        0.1639
     11  C        -23.0680   29.4790   13.2560 C.2     4  PHE4        0.2290
     12  O        -23.1820   29.6040   14.4820 O.2     4  PHE4       -0.2864
     13  CB       -21.0340   28.2780   12.1190 C.3     4  PHE4        0.0560
     14  CG       -20.3040   29.4500   12.6430 C.ar    4  PHE4       -0.0200
     15  CD1      -19.9500   29.5090   14.0080 C.ar    4  PHE4       -0.0042
     16  CD2      -20.0190   30.5280   11.8200 C.ar    4  PHE4       -0.0042
     17  CE1      -19.3110   30.6500   14.5720 C.ar    4  PHE4       -0.0003
     18  CE2      -19.4170   31.6920   12.3590 C.ar    4  PHE4       -0.0003
     19  CZ       -19.0600   31.7560   13.7530 C.ar    4  PHE4       -0.0000
     20  N        -26.3560   28.6960   15.1080 N.3     7  LEU7       -0.1231
     21  CA       -25.9910   28.1940   16.4590 C.3     7  LEU7        0.1693
     22  C        -25.5430   29.3140   17.4210 C.2     7  LEU7        0.2591
     23  O        -25.8800   29.3200   18.6210 O.2     7  LEU7       -0.2718
     24  CB       -24.9070   27.1270   16.3620 C.3     7  LEU7        0.0284
     25  CG       -25.3520   25.8060   15.6920 C.3     7  LEU7        0.0019
     26  CD1      -24.2310   24.8270   15.6110 C.3     7  LEU7        0.0001
     27  CD2      -26.5800   25.1890   16.3860 C.3     7  LEU7        0.0001
     28  N        -24.7470   30.2330   16.8880 N.am    8  ALA8       -0.1980
     29  CA       -24.2850   31.3930   17.6170 C.3     8  ALA8        0.1597
     30  C        -25.4930   32.2700   18.0540 C.2     8  ALA8        0.2287
     31  O        -25.6130   32.6710   19.1940 O.2     8  ALA8       -0.2864
     32  CB       -23.3150   32.1770   16.7450 C.3     8  ALA8        0.0319
     33  N        -27.2010   30.5580   20.7260 N.3    11  CYS11      -0.1235
     34  CA       -26.3680   30.5830   21.9350 C.3    11  CYS11       0.1677
     35  C        -26.4650   31.9070   22.6660 C.2    11  CYS11       0.2270
     36  O        -26.7050   31.9470   23.8610 O.2    11  CYS11      -0.2867
     37  CB       -24.9060   30.3390   21.5550 C.3    11  CYS11       0.0956
     38  SG       -23.8580   30.0990   22.9610 S.3    11  CYS11      -0.0801
     39  N        -30.4190   18.6300   17.3700 N.3    84  VAL84      -0.1231
     40  CA       -29.3560   18.4490   18.3780 C.3    84  VAL84       0.1692
     41  C        -28.4240   19.6470   18.5080 C.2    84  VAL84       0.2592
     42  O        -28.1650   20.0710   19.6200 O.2    84  VAL84      -0.2718
     43  CB       -28.5380   17.1690   18.1460 C.3    84  VAL84       0.0266
     44  CG1      -27.1700   17.2450   18.8450 C.3    84  VAL84       0.0020
     45  CG2      -29.3160   15.9350   18.6670 C.3    84  VAL84       0.0020
     46  N        -27.9600   20.1980   17.3840 N.am   85  GLY85      -0.1957
     47  CA       -27.0850   21.3790   17.3870 C.3    85  GLY85       0.1869
     48  C        -27.6990   22.5800   18.0910 C.2    85  GLY85       0.2309
     49  O        -27.0310   23.2690   18.9030 O.2    85  GLY85      -0.2863
     50  N        -27.8080   21.9510   21.8470 N.3    88  ILE88      -0.1231
     51  CA       -26.4590   22.1230   22.4120 C.3    88  ILE88       0.1692
     52  C        -26.0860   23.5940   22.5430 C.2    88  ILE88       0.2591
     53  O        -25.6210   24.0330   23.5920 O.2    88  ILE88      -0.2718
     54  CB       -25.3480   21.3800   21.5880 C.3    88  ILE88       0.0266
     55  CG1      -25.4750   19.8490   21.7370 C.3    88  ILE88       0.0019
     56  CG2      -23.9680   21.8510   22.0190 C.3    88  ILE88       0.0020
     57  CD1      -24.6320   19.0770   20.7490 C.3    88  ILE88       0.0001
     58  N        -26.3200   24.3530   21.4810 N.am   89  ALA89      -0.1980
     59  CA       -26.1140   25.8080   21.4950 C.3    89  ALA89       0.1597
     60  C        -26.8950   26.4480   22.6390 C.2    89  ALA89       0.2287
     61  O        -26.3830   27.3060   23.3870 O.2    89  ALA89      -0.2864
     62  CB       -26.4920   26.4220   20.1500 C.3    89  ALA89       0.0319
     63  N        -25.4000   25.4580   26.2410 N.3    92  VAL92      -0.1245
     64  CA       -24.1230   26.1600   26.4750 C.3    92  VAL92       0.1561
     65  C        -24.3530   27.6470   26.7790 C.2    92  VAL92       0.2260
     66  O        -23.8900   28.1880   27.7890 O.2    92  VAL92      -0.2867
     67  CB       -23.1560   26.0090   25.2530 C.3    92  VAL92       0.0252
     68  CG1      -22.0710   27.0770   25.2750 C.3    92  VAL92       0.0019
     69  CG2      -22.5630   24.5990   25.2130 C.3    92  VAL92       0.0019
@<TRIPOS>BOND
     1     1     2    1
     2     5     2    1
     3     5     6    1
     4     2     3    1
     5     8     7    1
     6     9     3   am
     7     9    10    1
     8     6     7    1
     9     3     4    2
    10    16    18   ar
    11    16    14   ar
    12    13    10    1
    13    13    14    1
    14    18    19   ar
    15    10    11    1
    16    14    15   ar
    17    11    12    2
    18    19    17   ar
    19    15    17   ar
    20    20    21    1
    21    26    25    1
    22    25    24    1
    23    25    27    1
    24    24    21    1
    25    21    22    1
    26    32    29    1
    27    28    22   am
    28    28    29    1
    29    39    40    1
    30    46    47    1
    31    46    41   am
    32    47    48    1
    33    22    23    2
    34    29    30    1
    35    30    31    2
    36    48    49    2
    37    43    40    1
    38    43    45    1
    39    43    44    1
    40    40    41    1
    41    41    42    2
    42    62    59    1
    43    33    34    1
    44    57    55    1
    45    58    59    1
    46    58    52   am
    47    59    60    1
    48    37    34    1
    49    37    38    1
    50    54    55    1
    51    54    56    1
    52    54    51    1
    53    50    51    1
    54    34    35    1
    55    51    52    1
    56    52    53    2
    57    60    61    2
    58    35    36    2
    59    69    67    1
    60    67    68    1
    61    67    64    1
    62    63    64    1
    63    64    65    1
    64    65    66    2
