@<TRIPOS>MOLECULE
tmp/3nk7B00.pdb
 144 137 0 0 0
SMALL
GASTEIGER

@<TRIPOS>ATOM
      1  N          5.0070    2.2760    6.2830 N.3   122  ILE122     -0.1245
      2  CA         5.3070    1.8150    7.6300 C.3   122  ILE122      0.1561
      3  C          4.2230    2.4010    8.5320 C.2   122  ILE122      0.2260
      4  O          4.1140    3.6160    8.6400 O.2   122  ILE122     -0.2867
      5  CB         6.7480    2.2430    8.0220 C.3   122  ILE122      0.0252
      6  CG1        7.7430    1.6300    7.0350 C.3   122  ILE122      0.0019
      7  CG2        7.0800    1.8880    9.4850 C.3   122  ILE122      0.0019
      8  CD1        9.1960    1.6980    7.4720 C.3   122  ILE122      0.0001
      9  N          4.9140    4.9550   11.2300 N.3   125  ASN125     -0.1240
     10  CA         5.0770    6.3050   10.6910 C.3   125  ASN125      0.1653
     11  C          3.7210    6.9250   10.3510 C.2   125  ASN125      0.2266
     12  O          3.4650    8.0760   10.6960 O.2   125  ASN125     -0.2867
     13  CB         5.9520    6.3170    9.3990 C.3   125  ASN125      0.1155
     14  CG         7.4000    5.9620    9.6630 C.2   125  ASN125      0.2627
     15  OD1        7.8570    5.9720   10.8080 O.2   125  ASN125     -0.2716
     16  ND2        8.1360    5.6460    8.5950 N.am  125  ASN125     -0.0877
     17  N          7.5930   18.1420   -0.3060 N.3   191  LEU191     -0.1231
     18  CA         8.6950   18.2240    0.6270 C.3   191  LEU191      0.1693
     19  C          9.8240   17.3720    0.1120 C.2   191  LEU191      0.2592
     20  O          9.6480   16.1930   -0.1230 O.2   191  LEU191     -0.2718
     21  CB         8.2440   17.7770    2.0280 C.3   191  LEU191      0.0284
     22  CG         7.7850   19.1340    2.5790 C.3   191  LEU191      0.0019
     23  CD1        6.3120   19.2340    2.9390 C.3   191  LEU191      0.0001
     24  CD2        8.7300   19.6990    3.6520 C.3   191  LEU191      0.0001
     25  N         10.9830   17.9810   -0.0980 N.am  192  ASP192     -0.1960
     26  CA        12.1100   17.2470   -0.6550 C.3   192  ASP192      0.1840
     27  C         13.3630   18.0820   -0.4740 C.2   192  ASP192      0.2622
     28  O         13.2890   19.2890   -0.2370 O.2   192  ASP192     -0.2715
     29  CB        11.8660   16.9880   -2.1470 C.3   192  ASP192      0.1450
     30  CG        12.6060   15.7480   -2.6770 C.2   192  ASP192      0.3671
     31  OD1       12.2170   15.2490   -3.7540 O.co2 192  ASP192     -0.2456
     32  OD2       13.5680   15.2690   -2.0440 O.co2 192  ASP192     -0.2456
     33  N         14.5180   17.4510   -0.5750 N.am  193  THR193     -0.1951
     34  CA        15.7530   18.2130   -0.5390 C.3   193  THR193      0.1897
     35  C         15.9400   18.9550   -1.8620 C.2   193  THR193      0.2313
     36  O         15.2330   18.7020   -2.8450 O.2   193  THR193     -0.2863
     37  CB        16.9760   17.3350   -0.2280 C.3   193  THR193      0.1794
     38  OG1       17.2500   16.4880   -1.3460 O.3   193  THR193     -0.2208
     39  CG2       16.6990   16.4900    0.9770 C.3   193  THR193      0.0378
     40  N          4.5310   14.4750    1.2160 N.3   213  PHE213     -0.1227
     41  CA         5.7230   13.8640    1.7770 C.3   213  PHE213      0.1736
     42  C          5.9350   12.4990    1.1740 C.2   213  PHE213      0.2596
     43  O          4.9850   11.7210    1.0100 O.2   213  PHE213     -0.2718
     44  CB         5.5530   13.6980    3.2900 C.3   213  PHE213      0.0547
     45  CG         5.2640   14.9800    4.0000 C.ar  213  PHE213     -0.0202
     46  CD1        6.2960   15.7240    4.5900 C.ar  213  PHE213     -0.0042
     47  CD2        3.9700   15.4570    4.0470 C.ar  213  PHE213     -0.0042
     48  CE1        5.9890   16.9150    5.2990 C.ar  213  PHE213     -0.0003
     49  CE2        3.6640   16.6310    4.7060 C.ar  213  PHE213     -0.0003
     50  CZ         4.6770   17.3670    5.3160 C.ar  213  PHE213     -0.0000
     51  N          7.1880   12.1920    0.8810 N.am  214  GLY214     -0.1942
     52  CA         7.5110   10.9180    0.2760 C.3   214  GLY214      0.2014
     53  C          7.9950    9.9940    1.3560 C.2   214  GLY214      0.2640
     54  O          8.1400   10.3890    2.5190 O.2   214  GLY214     -0.2714
     55  N          8.2600    8.7570    0.9730 N.am  215  SER215     -0.1935
     56  CA         8.7730    7.7800    1.9170 C.3   215  SER215      0.2055
     57  C         10.2940    7.8350    1.9530 C.2   215  SER215      0.2642
     58  O         10.9110    8.8060    1.4890 O.2   215  SER215     -0.2714
     59  CB         8.3300    6.3840    1.4880 C.3   215  SER215      0.2130
     60  OG         8.9160    6.0520    0.2340 O.3   215  SER215     -0.2179
     61  N         10.8840    6.7680    2.4860 N.am  216  GLU216     -0.1976
     62  CA        12.3350    6.5940    2.5200 C.3   216  GLU216      0.1602
     63  C         12.8650    5.9930    1.2290 C.2   216  GLU216      0.2287
     64  O         14.0520    6.0980    0.9340 O.2   216  GLU216     -0.2864
     65  CB        12.7430    5.6890    3.6870 C.3   216  GLU216      0.0415
     66  CG        12.4190    4.2090    3.4850 C.3   216  GLU216      0.1163
     67  CD        11.0590    3.8140    4.0420 C.2   216  GLU216      0.3649
     68  OE1       10.4730    2.8170    3.5580 O.co2 216  GLU216     -0.2457
     69  OE2       10.5780    4.5000    4.9720 O.co2 216  GLU216     -0.2457
     70  N         11.3860    9.7530   -1.9800 N.3   219  GLY219     -0.1210
     71  CA        10.5750   10.9530   -2.0990 C.3   219  GLY219      0.1940
     72  C          9.2740   10.7700   -2.8600 C.2   219  GLY219      0.2453
     73  O          8.8490    9.6430   -3.1060 O.2   219  GLY219     -0.2732
     74  N          8.6250   11.8870   -3.2270 N.am  220  PRO220     -0.2728
     75  CA         7.3330   11.8640   -3.9250 C.3   220  PRO220      0.1401
     76  C          7.4920   11.5450   -5.4080 C.2   220  PRO220      0.2269
     77  O          8.5920   11.6670   -5.9620 O.2   220  PRO220     -0.2865
     78  CB         6.8020   13.2930   -3.7360 C.3   220  PRO220      0.0296
     79  CG         7.6510   13.8840   -2.6310 C.3   220  PRO220      0.0237
     80  CD         8.9890   13.2470   -2.8070 C.3   220  PRO220      0.0939
     81  N          9.6660   22.1950   -1.1240 N.3   232  VAL232     -0.1231
     82  CA        10.0120   22.7700    0.1780 C.3   232  VAL232      0.1692
     83  C         11.0520   21.8810    0.8700 C.2   232  VAL232      0.2593
     84  O         10.8530   20.6850    0.9960 O.2   232  VAL232     -0.2718
     85  CB         8.7670   22.9020    1.0430 C.3   232  VAL232      0.0266
     86  CG1        9.1210   23.3800    2.4340 C.3   232  VAL232      0.0020
     87  CG2        7.8080   23.8940    0.3720 C.3   232  VAL232      0.0020
     88  N         12.1740   22.4860    1.2610 N.am  233  SER233     -0.1938
     89  CA        13.3060   21.7850    1.8580 C.3   233  SER233      0.2055
     90  C         13.4950   22.2540    3.3090 C.2   233  SER233      0.2642
     91  O         13.5140   23.4500    3.5830 O.2   233  SER233     -0.2714
     92  CB        14.6030   22.0500    1.0490 C.3   233  SER233      0.2130
     93  OG        14.5170   21.5490   -0.2970 O.3   233  SER233     -0.2179
     94  N         13.6360   21.3020    4.2270 N.am  234  ILE234     -0.1977
     95  CA        14.0970   21.5920    5.5740 C.3   234  ILE234      0.1596
     96  C         15.5970   21.5100    5.5700 C.2   234  ILE234      0.2287
     97  O         16.1510   20.4840    5.1920 O.2   234  ILE234     -0.2864
     98  CB        13.6000   20.5110    6.5760 C.3   234  ILE234      0.0276
     99  CG1       12.0510   20.3850    6.5320 C.3   234  ILE234      0.0022
    100  CG2       14.1810   20.7950    7.9520 C.3   234  ILE234      0.0022
    101  CD1       11.4650   19.1090    7.3170 C.3   234  ILE234      0.0001
    102  N         19.5120   21.0750    6.3390 N.3   236  MET236     -0.1245
    103  CA        20.2100   20.0710    7.1160 C.3   236  MET236      0.1570
    104  C         21.6940   20.3250    6.9320 C.2   236  MET236      0.2261
    105  O         22.0870   21.1190    6.0780 O.2   236  MET236     -0.2867
    106  CB        19.8110   18.6630    6.6400 C.3   236  MET236      0.0387
    107  CG        18.3700   18.3120    7.0000 C.3   236  MET236      0.0595
    108  SD        17.9910   16.6770    6.4200 S.3   236  MET236     -0.1393
    109  CE        18.3590   16.9490    4.6800 C.3   236  MET236      0.0692
    110  N         18.8310   12.9770    5.6130 N.3   242  SER242     -0.1202
    111  CA        17.3990   13.1180    5.4970 C.3   242  SER242      0.2020
    112  C         16.8060   12.8280    6.8680 C.2   242  SER242      0.2619
    113  O         17.4530   12.1950    7.7050 O.2   242  SER242     -0.2717
    114  CB        16.8790   12.0880    4.5160 C.3   242  SER242      0.2103
    115  OG        17.3620   10.8360    4.9240 O.3   242  SER242     -0.2182
    116  N         15.5820   13.3060    7.0820 N.am  243  LEU243     -0.1965
    117  CA        14.8490   13.0590    8.2900 C.3   243  LEU243      0.1728
    118  C         13.8470   11.9360    8.0680 C.2   243  LEU243      0.2616
    119  O         13.3950   11.7540    6.9600 O.2   243  LEU243     -0.2715
    120  CB        14.1030   14.3400    8.7360 C.3   243  LEU243      0.0311
    121  CG        14.9860   15.5790    9.0080 C.3   243  LEU243      0.0022
    122  CD1       14.1490   16.8490    9.3290 C.3   243  LEU243      0.0001
    123  CD2       15.9920   15.2980   10.1050 C.3   243  LEU243      0.0001
    124  N         13.5300   11.1990    9.1350 N.am  244  ASN244     -0.1958
    125  CA        12.3470   10.3550    9.1640 C.3   244  ASN244      0.1819
    126  C         11.1390   11.1640    8.7290 C.2   244  ASN244      0.2621
    127  O         11.0240   12.3560    9.0300 O.2   244  ASN244     -0.2715
    128  CB        12.1290    9.7760   10.5780 C.3   244  ASN244      0.1195
    129  CG        10.7170    9.2330   10.7820 C.2   244  ASN244      0.2630
    130  OD1        9.7800    9.9780   11.0760 O.2   244  ASN244     -0.2716
    131  ND2       10.5640    7.9310   10.6380 N.am  244  ASN244     -0.0877
    132  N         10.2280   10.5200    8.0130 N.am  245  VAL245     -0.1977
    133  CA         9.1370   11.2450    7.3760 C.3   245  VAL245      0.1596
    134  C          8.1800   11.9010    8.4140 C.2   245  VAL245      0.2287
    135  O          7.6690   12.9860    8.1870 O.2   245  VAL245     -0.2864
    136  CB         8.3820   10.3480    6.3500 C.3   245  VAL245      0.0276
    137  CG1        7.7040    9.1920    7.0620 C.3   245  VAL245      0.0022
    138  CG2        7.3470   11.1440    5.5760 C.3   245  VAL245      0.0022
    139  N          9.6380   15.0700    9.5740 N.3   248  SER248     -0.1217
    140  CA         9.4310   16.0350    8.5080 C.3   248  SER248      0.1889
    141  C          8.0690   16.6850    8.5580 C.2   248  SER248      0.2288
    142  O          7.9710   17.8590    8.4280 O.2   248  SER248     -0.2866
    143  CB         9.6300   15.3960    7.1450 C.3   248  SER248      0.2089
    144  OG        10.9720   15.4100    6.8460 O.3   248  SER248     -0.2183
@<TRIPOS>BOND
     1    77    76    2
     2    76    75    1
     3    75    78    1
     4    75    74    1
     5    31    30   ar
     6    78    79    1
     7    74    72   am
     8    74    80    1
     9    73    72    2
    10    72    71    1
    11    36    35    2
    12    80    79    1
    13    30    29    1
    14    30    32   ar
    15    29    26    1
    16    71    70    1
    17    35    34    1
    18    38    37    1
    19    81    82    1
    20    26    27    1
    21    26    25    1
    22    33    34    1
    23    33    27   am
    24    34    37    1
    25    27    28    2
    26    17    18    1
    27    93    92    1
    28    37    39    1
    29    20    19    2
    30    25    19   am
    31    19    18    1
    32    82    83    1
    33    82    85    1
    34    60    59    1
    35    52    51    1
    36    52    53    1
    37    87    85    1
    38    18    21    1
    39    83    84    2
    40    83    88   am
    41    51    42   am
    42    64    63    2
    43    55    53   am
    44    55    56    1
    45    43    42    2
    46    85    86    1
    47    92    89    1
    48    42    41    1
    49    40    41    1
    50    63    62    1
    51    88    89    1
    52    53    54    2
    53    59    56    1
    54    58    57    2
    55    41    44    1
    56    89    90    1
    57    56    57    1
    58    57    61   am
    59    21    22    1
    60    61    62    1
    61    62    65    1
    62    22    23    1
    63    22    24    1
    64    44    45    1
    65    90    91    2
    66    90    94   am
    67    66    65    1
    68    66    67    1
    69    68    67   ar
    70    45    47   ar
    71    45    46   ar
    72    67    69   ar
    73    47    49   ar
    74    94    95    1
    75   114   115    1
    76   114   111    1
    77    46    48   ar
    78   109   108    1
    79    49    50   ar
    80    97    96    2
    81    48    50   ar
    82   111   110    1
    83   111   112    1
    84    96    95    1
    85    95    98    1
    86   138   136    1
    87   105   104    2
    88     1     2    1
    89   102   103    1
    90   136   137    1
    91   136   133    1
    92   108   107    1
    93    99    98    1
    94    99   101    1
    95    98   100    1
    96   106   107    1
    97   106   103    1
    98   144   143    1
    99   112   116   am
   100   112   113    2
   101   104   103    1
   102   119   118    2
   103     6     8    1
   104     6     5    1
   105   116   117    1
   106   143   140    1
   107   133   132    1
   108   133   134    1
   109     2     5    1
   110     2     3    1
   111   132   126   am
   112     5     7    1
   113   118   117    1
   114   118   124   am
   115   135   134    2
   116   117   120    1
   117   142   141    2
   118   140   141    1
   119   140   139    1
   120     3     4    2
   121    16    14   am
   122   126   127    2
   123   126   125    1
   124   120   121    1
   125   121   122    1
   126   121   123    1
   127   124   125    1
   128   125   128    1
   129    13    14    1
   130    13    10    1
   131    14    15    2
   132    11    10    1
   133    11    12    2
   134   128   129    1
   135   131   129   am
   136    10     9    1
   137   129   130    2
