@<TRIPOS>MOLECULE
tmp/3nk8A00.pdb
 110 107 0 0 0
SMALL
GASTEIGER

@<TRIPOS>ATOM
      1  N         20.1080   12.4280   24.7400 N.3    40  HIS40      -0.1241
      2  CA        21.0650   11.3290   24.7820 C.3    40  HIS40       0.1621
      3  C         22.1140   11.5150   25.8820 C.2    40  HIS40       0.2264
      4  O         22.8770   10.5970   26.1590 O.2    40  HIS40      -0.2867
      5  CB        21.6580   11.0230   23.4020 C.3    40  HIS40       0.0745
      6  CG        22.7720   11.9290   22.9830 C.ar   40  HIS40       0.0817
      7  ND1       22.6020   12.9990   22.1320 N.ar   40  HIS40      -0.2268
      8  CD2       24.0970   11.8790   23.2600 C.ar   40  HIS40       0.1154
      9  CE1       23.7720   13.5810   21.9210 C.ar   40  HIS40       0.1986
     10  NE2       24.6940   12.9210   22.5960 N.ar   40  HIS40      -0.2212
     11  N         34.1720   20.8460   13.0530 N.3   171  ASP171     -0.1225
     12  CA        32.9370   20.1700   13.4660 C.3   171  ASP171      0.1805
     13  C         32.8890   20.0720   14.9810 C.2   171  ASP171      0.2598
     14  O         33.8950   20.2830   15.6680 O.2   171  ASP171     -0.2718
     15  CB        32.9370   18.7580   12.8610 C.3   171  ASP171      0.1424
     16  CG        31.5470   18.1370   12.6940 C.2   171  ASP171      0.3668
     17  OD1       30.5140   18.7520   13.0420 O.co2 171  ASP171     -0.2456
     18  OD2       31.5200   16.9900   12.1890 O.co2 171  ASP171     -0.2456
     19  N         31.7180   19.7390   15.5090 N.am  172  SER172     -0.1938
     20  CA        31.6450   19.2440   16.8790 C.3   172  SER172      0.2055
     21  C         32.0720   17.7750   16.9050 C.2   172  SER172      0.2643
     22  O         32.2630   17.1550   15.8490 O.2   172  SER172     -0.2714
     23  CB        30.2590   19.4430   17.4900 C.3   172  SER172      0.2130
     24  OG        29.2520   18.9030   16.6790 O.3   172  SER172     -0.2179
     25  N         32.2450   17.2200   18.0970 N.am  173  CYS173     -0.1953
     26  CA        32.7300   15.8620   18.1940 C.3   173  CYS173      0.1843
     27  C         32.3180   15.2410   19.5350 C.2   173  CYS173      0.2625
     28  O         31.6030   15.8680   20.3260 O.2   173  CYS173     -0.2714
     29  CB        34.2480   15.8410   17.9400 C.3   173  CYS173      0.0997
     30  SG        34.9450   14.2490   17.4430 S.3   173  CYS173     -0.0797
     31  N         32.7310   14.0010   19.7760 N.am  174  GLN174     -0.1963
     32  CA        32.3730   13.2890   20.9980 C.3   174  GLN174      0.1733
     33  C         32.7050   14.1160   22.2370 C.2   174  GLN174      0.2616
     34  O         33.8160   14.6240   22.3640 O.2   174  GLN174     -0.2715
     35  CB        33.1000   11.9420   21.0720 C.3   174  GLN174      0.0408
     36  CG        32.8300   10.9930   19.9080 C.3   174  GLN174      0.0908
     37  CD        33.9160   11.0150   18.8410 C.2   174  GLN174      0.2608
     38  OE1       35.1050   11.2030   19.1360 O.2   174  GLN174     -0.2717
     39  NE2       33.5140   10.8080   17.5930 N.am  174  GLN174     -0.0878
     40  N         31.7410   14.2340   23.1460 N.am  175  GLY175     -0.1955
     41  CA        31.9150   15.0290   24.3570 C.3   175  GLY175      0.1869
     42  C         31.3520   16.4430   24.2520 C.2   175  GLY175      0.2309
     43  O         31.1950   17.1160   25.2770 O.2   175  GLY175     -0.2863
     44  N         28.3480   16.7620   22.9000 N.3   177  SER177     -0.1217
     45  CA        26.9320   16.4060   23.0580 C.3   177  SER177      0.1889
     46  C         26.2170   17.2700   24.0580 C.2   177  SER177      0.2288
     47  O         26.6960   17.4230   25.1800 O.2   177  SER177     -0.2866
     48  CB        26.8110   14.9760   23.6130 C.3   177  SER177      0.2089
     49  OG        27.1390   14.0000   22.6710 O.3   177  SER177     -0.2183
     50  N         23.9800   20.2200   20.3390 N.3   191  VAL191     -0.1231
     51  CA        24.8430   19.2170   19.7210 C.3   191  VAL191      0.1692
     52  C         24.2170   17.8300   19.8850 C.2   191  VAL191      0.2593
     53  O         24.0270   17.3480   21.0060 O.2   191  VAL191     -0.2718
     54  CB        26.2520   19.2230   20.3480 C.3   191  VAL191      0.0266
     55  CG1       27.1300   18.1750   19.6810 C.3   191  VAL191      0.0020
     56  CG2       26.9120   20.5990   20.2450 C.3   191  VAL191      0.0020
     57  N         23.8880   17.1880   18.7640 N.am  192  SER192     -0.1938
     58  CA        23.1050   15.9540   18.7960 C.3   192  SER192      0.2055
     59  C         23.8590   14.7400   18.2330 C.2   192  SER192      0.2643
     60  O         24.0720   13.7690   18.9540 O.2   192  SER192     -0.2714
     61  CB        21.7520   16.1660   18.1090 C.3   192  SER192      0.2130
     62  OG        20.9670   14.9870   18.1670 O.3   192  SER192     -0.2179
     63  N         24.2670   14.7700   16.9680 N.am  193  TRP193     -0.1959
     64  CA        24.9160   13.6000   16.3840 C.3   193  TRP193      0.1771
     65  C         25.6670   13.9400   15.1160 C.2   193  TRP193      0.2620
     66  O         25.5450   15.0320   14.5700 O.2   193  TRP193     -0.2715
     67  CB        23.8970   12.4750   16.1360 C.3   193  TRP193      0.0590
     68  CG        22.8060   12.7630   15.1390 C.ar  193  TRP193      0.0006
     69  CD1       21.5980   13.3510   15.3860 C.ar  193  TRP193      0.0946
     70  CD2       22.7950   12.3960   13.7510 C.ar  193  TRP193      0.0152
     71  NE1       20.8390   13.3850   14.2380 N.ar  193  TRP193     -0.2442
     72  CE2       21.5520   12.8090   13.2190 C.ar  193  TRP193      0.0810
     73  CE3       23.7130   11.7500   12.9060 C.ar  193  TRP193      0.0012
     74  CZ2       21.1960   12.5950   11.8790 C.ar  193  TRP193      0.0191
     75  CZ3       23.3630   11.5510   11.5730 C.ar  193  TRP193      0.0001
     76  CH2       22.1110   11.9690   11.0750 C.ar  193  TRP193      0.0015
     77  N         26.4390   12.9740   14.6440 N.am  194  GLY194     -0.1954
     78  CA        27.1160   13.0890   13.3660 C.3   194  GLY194      0.1869
     79  C         27.6040   11.7180   12.9430 C.2   194  GLY194      0.2309
     80  O         27.1520   10.6940   13.4530 O.2   194  GLY194     -0.2863
     81  N         31.3260   10.1560   12.5570 N.3   196  GLY196     -0.1210
     82  CA        32.6950   10.5800   12.8470 C.3   196  GLY196      0.1956
     83  C         32.6270   12.0660   13.1770 C.2   196  GLY196      0.2612
     84  O         31.5810   12.5700   13.5910 O.2   196  GLY196     -0.2717
     85  N         33.7400   12.7610   12.9690 N.am  197  CYS197     -0.1970
     86  CA        33.8150   14.2030   13.1870 C.3   197  CYS197      0.1712
     87  C         34.6180   14.8430   12.0810 C.2   197  CYS197      0.2296
     88  O         35.6530   14.3060   11.6790 O.2   197  CYS197     -0.2864
     89  CB        34.4920   14.5180   14.5180 C.3   197  CYS197      0.0983
     90  SG        33.7690   13.6690   15.8990 S.3   197  CYS197     -0.0798
     91  N         29.9470   15.2760    5.8780 N.3   202  LYS202     -0.1245
     92  CA        29.3210   14.7420    7.0880 C.3   202  LYS202      0.1561
     93  C         29.3450   15.7960    8.1940 C.2   202  LYS202      0.2260
     94  O         30.0410   15.6460    9.2020 O.2   202  LYS202     -0.2867
     95  CB        30.0120   13.4520    7.5380 C.3   202  LYS202      0.0271
     96  CG        29.8470   12.2970    6.5650 C.3   202  LYS202      0.0035
     97  CD        28.3960   11.8360    6.4770 C.3   202  LYS202      0.0206
     98  CE        28.2280   10.7680    5.4190 C.3   202  LYS202      0.1093
     99  NZ        26.8280   10.2550    5.3380 N.3   202  LYS202     -0.1314
    100  N         28.0380   18.1500   11.3870 N.3   204  GLY204     -0.1210
    101  CA        27.2690   17.8730   12.5820 C.3   204  GLY204      0.1956
    102  C         25.7840   18.1330   12.4210 C.2   204  GLY204      0.2611
    103  O         25.3530   18.9980   11.6380 O.2   204  GLY204     -0.2717
    104  N         25.0160   17.3920   13.2090 N.am  205  VAL205     -0.1979
    105  CA        23.5680   17.5000   13.2350 C.3   205  VAL205      0.1595
    106  C         23.1320   17.9340   14.6250 C.2   205  VAL205      0.2287
    107  O         23.6620   17.4500   15.6370 O.2   205  VAL205     -0.2864
    108  CB        22.8810   16.1710   12.8320 C.3   205  VAL205      0.0276
    109  CG1       21.3810   16.3880   12.6740 C.3   205  VAL205      0.0022
    110  CG2       23.4700   15.6430   11.5250 C.3   205  VAL205      0.0022
@<TRIPOS>BOND
     1    99    98    1
     2    98    97    1
     3    91    92    1
     4    97    96    1
     5    96    95    1
     6    92    95    1
     7    92    93    1
     8    93    94    2
     9    76    75   ar
    10    76    74   ar
    11   100   101    1
    12   110   108    1
    13    75    73   ar
    14   103   102    2
    15    88    87    2
    16    74    72   ar
    17    87    86    1
    18    18    16   ar
    19   102   101    1
    20   102   104   am
    21    81    82    1
    22   109   108    1
    23    16    15    1
    24    16    17   ar
    25   108   105    1
    26    82    83    1
    27    15    12    1
    28    73    70   ar
    29    79    78    1
    30    79    80    2
    31    85    83   am
    32    85    86    1
    33    11    12    1
    34    83    84    2
    35    86    89    1
    36   104   105    1
    37    72    70   ar
    38    72    71   ar
    39   105   106    1
    40    78    77    1
    41    12    13    1
    42    70    68   ar
    43    71    69   ar
    44    89    90    1
    45    66    65    2
    46   106   107    2
    47    77    65   am
    48    13    19   am
    49    13    14    2
    50    65    64    1
    51    68    69   ar
    52    68    67    1
    53    19    20    1
    54    22    21    2
    55    90    30    1
    56    67    64    1
    57    64    63    1
    58    24    23    1
    59    20    21    1
    60    20    23    1
    61    21    25   am
    62    63    59   am
    63    30    29    1
    64    39    37   am
    65    29    26    1
    66    25    26    1
    67    61    62    1
    68    61    58    1
    69    26    27    1
    70    59    58    1
    71    59    60    2
    72    57    58    1
    73    57    52   am
    74    37    38    2
    75    37    36    1
    76    27    31   am
    77    27    28    2
    78    55    54    1
    79    51    52    1
    80    51    50    1
    81    51    54    1
    82    31    32    1
    83    52    53    2
    84    36    35    1
    85    56    54    1
    86    32    35    1
    87    32    33    1
    88     9     7   ar
    89     9    10   ar
    90     7     6   ar
    91    33    34    2
    92    33    40   am
    93    10     8   ar
    94    49    48    1
    95    44    45    1
    96     6     8   ar
    97     6     5    1
    98    45    48    1
    99    45    46    1
   100    40    41    1
   101     5     2    1
   102    46    47    2
   103    42    41    1
   104    42    43    2
   105     1     2    1
   106     2     3    1
   107     3     4    2
