@<TRIPOS>MOLECULE
tmp/3nkkA00.pdb
 135 136 0 0 0
SMALL
GASTEIGER

@<TRIPOS>ATOM
      1  N         20.0020   12.3780   24.5820 N.3    40  HIS40      -0.1241
      2  CA        20.9710   11.2920   24.6220 C.3    40  HIS40       0.1621
      3  C         22.0240   11.4880   25.7320 C.2    40  HIS40       0.2264
      4  O         22.8100   10.5820   26.0000 O.2    40  HIS40      -0.2867
      5  CB        21.5770   10.9810   23.2360 C.3    40  HIS40       0.0745
      6  CG        22.6930   11.8880   22.8140 C.ar   40  HIS40       0.0817
      7  ND1       22.5140   12.9690   21.9760 N.ar   40  HIS40      -0.2268
      8  CD2       24.0220   11.8410   23.0840 C.ar   40  HIS40       0.1154
      9  CE1       23.6800   13.5570   21.7630 C.ar   40  HIS40       0.1986
     10  NE2       24.6120   12.8900   22.4220 N.ar   40  HIS40      -0.2212
     11  N         34.1020   20.7300   13.0030 N.3   171  ASP171     -0.1225
     12  CA        32.8480   20.0980   13.4230 C.3   171  ASP171      0.1805
     13  C         32.8240   19.9880   14.9380 C.2   171  ASP171      0.2598
     14  O         33.8570   20.1400   15.5990 O.2   171  ASP171     -0.2718
     15  CB        32.7940   18.6980   12.7890 C.3   171  ASP171      0.1424
     16  CG        31.4020   18.0530   12.7720 C.2   171  ASP171      0.3668
     17  OD1       30.3900   18.6680   13.1820 O.co2 171  ASP171     -0.2456
     18  OD2       31.3500   16.8890   12.3060 O.co2 171  ASP171     -0.2456
     19  N         31.6490   19.7250   15.5010 N.am  172  SER172     -0.1938
     20  CA        31.5820   19.2120   16.8630 C.3   172  SER172      0.2055
     21  C         31.8900   17.7100   16.8450 C.2   172  SER172      0.2643
     22  O         32.0300   17.1070   15.7740 O.2   172  SER172     -0.2714
     23  CB        30.2370   19.5250   17.5290 C.3   172  SER172      0.2130
     24  OG        29.1530   19.0160   16.7820 O.3   172  SER172     -0.2179
     25  N         32.0030   17.1090   18.0240 N.am  173  CYS173     -0.1953
     26  CA        32.4510   15.7310   18.1160 C.3   173  CYS173      0.1843
     27  C         32.0000   15.1060   19.4420 C.2   173  CYS173      0.2625
     28  O         31.3210   15.7520   20.2410 O.2   173  CYS173     -0.2714
     29  CB        33.9800   15.6790   17.9170 C.3   173  CYS173      0.0997
     30  SG        34.6530   14.0690   17.4350 S.3   173  CYS173     -0.0797
     31  N         32.3590   13.8440   19.6660 N.am  174  GLN174     -0.1963
     32  CA        32.0400   13.1560   20.9190 C.3   174  GLN174      0.1733
     33  C         32.4530   14.0090   22.1200 C.2   174  GLN174      0.2616
     34  O         33.5520   14.5590   22.1480 O.2   174  GLN174     -0.2715
     35  CB        32.7380   11.7950   20.9810 C.3   174  GLN174      0.0408
     36  CG        32.0120   10.6460   20.2670 C.3   174  GLN174      0.0908
     37  CD        32.0450   10.7210   18.7470 C.2   174  GLN174      0.2608
     38  OE1       33.0350   11.1380   18.1470 O.2   174  GLN174     -0.2717
     39  NE2       30.9630   10.2800   18.1180 N.am  174  GLN174     -0.0878
     40  N         31.5590   14.1260   23.1000 N.am  175  GLY175     -0.1955
     41  CA        31.8070   14.9370   24.2870 C.3   175  GLY175      0.1869
     42  C         31.2520   16.3500   24.1890 C.2   175  GLY175      0.2309
     43  O         31.1140   17.0340   25.2090 O.2   175  GLY175     -0.2863
     44  N         28.2470   16.6740   22.8200 N.3   177  SER177     -0.1217
     45  CA        26.8370   16.3060   22.9720 C.3   177  SER177      0.1889
     46  C         26.1120   17.1750   23.9580 C.2   177  SER177      0.2288
     47  O         26.5760   17.3560   25.0810 O.2   177  SER177     -0.2866
     48  CB        26.7330   14.8780   23.5110 C.3   177  SER177      0.2089
     49  OG        27.0980   13.9340   22.5440 O.3   177  SER177     -0.2183
     50  N         23.8920   20.1350   20.1890 N.3   191  VAL191     -0.1231
     51  CA        24.7630   19.1350   19.5890 C.3   191  VAL191      0.1692
     52  C         24.1390   17.7510   19.7450 C.2   191  VAL191      0.2593
     53  O         23.9310   17.2820   20.8720 O.2   191  VAL191     -0.2718
     54  CB        26.1720   19.1560   20.2300 C.3   191  VAL191      0.0266
     55  CG1       27.0500   18.0970   19.6150 C.3   191  VAL191      0.0020
     56  CG2       26.8370   20.5300   20.1040 C.3   191  VAL191      0.0020
     57  N         23.8460   17.0940   18.6200 N.am  192  SER192     -0.1938
     58  CA        23.0760   15.8530   18.6250 C.3   192  SER192      0.2055
     59  C         23.8430   14.6540   18.0510 C.2   192  SER192      0.2643
     60  O         24.1190   13.7040   18.7840 O.2   192  SER192     -0.2714
     61  CB        21.7030   16.0640   17.9530 C.3   192  SER192      0.2130
     62  OG        20.9220   14.8870   18.0070 O.3   192  SER192     -0.2179
     63  N         24.2030   14.6890   16.7680 N.am  193  TRP193     -0.1959
     64  CA        24.8650   13.5390   16.1590 C.3   193  TRP193      0.1771
     65  C         25.6070   13.9060   14.8830 C.2   193  TRP193      0.2620
     66  O         25.6400   15.0680   14.4650 O.2   193  TRP193     -0.2715
     67  CB        23.8600   12.4020   15.9070 C.3   193  TRP193      0.0590
     68  CG        22.7510   12.6920   14.9300 C.ar  193  TRP193      0.0006
     69  CD1       21.5570   13.3130   15.2010 C.ar  193  TRP193      0.0946
     70  CD2       22.6940   12.3060   13.5490 C.ar  193  TRP193      0.0152
     71  NE1       20.7670   13.3400   14.0750 N.ar  193  TRP193     -0.2442
     72  CE2       21.4420   12.7410   13.0470 C.ar  193  TRP193      0.0810
     73  CE3       23.5680   11.6250   12.6890 C.ar  193  TRP193      0.0012
     74  CZ2       21.0440   12.5160   11.7250 C.ar  193  TRP193      0.0191
     75  CZ3       23.1740   11.4170   11.3680 C.ar  193  TRP193      0.0001
     76  CH2       21.9240   11.8630   10.9050 C.ar  193  TRP193      0.0015
     77  N         26.2040   12.8890   14.2720 N.am  194  GLY194     -0.1940
     78  CA        26.8710   12.9970   12.9850 C.3   194  GLY194      0.2014
     79  C         27.5910   11.6840   12.7690 C.2   194  GLY194      0.2640
     80  O         27.7330   10.8970   13.7020 O.2   194  GLY194     -0.2714
     81  N         28.0420   11.4300   11.5470 N.am  195  SER195     -0.1935
     82  CA        28.8260   10.2300   11.2820 C.3   195  SER195      0.2055
     83  C         30.3120   10.5610   11.3740 C.2   195  SER195      0.2644
     84  O         30.8450   11.2740   10.5210 O.2   195  SER195     -0.2714
     85  CB        28.4930    9.6590    9.9090 C.3   195  SER195      0.2130
     86  OG        29.3610    8.5890    9.5940 O.3   195  SER195     -0.2179
     87  N         30.9710   10.0340   12.4070 N.am  196  GLY196     -0.1939
     88  CA        32.3240   10.4450   12.7820 C.3   196  GLY196      0.2014
     89  C         32.2800   11.9270   13.1510 C.2   196  GLY196      0.2639
     90  O         31.2460   12.4410   13.5870 O.2   196  GLY196     -0.2714
     91  N         33.4080   12.6090   12.9570 N.am  197  CYS197     -0.1967
     92  CA        33.5240   14.0490   13.1910 C.3   197  CYS197      0.1712
     93  C         34.3790   14.6630   12.1120 C.2   197  CYS197      0.2296
     94  O         35.4120   14.0980   11.7430 O.2   197  CYS197     -0.2864
     95  CB        34.1920   14.3430   14.5280 C.3   197  CYS197      0.0983
     96  SG        33.4760   13.4950   15.9010 S.3   197  CYS197     -0.0798
     97  N         29.8270   14.9490    5.7430 N.3   202  LYS202     -0.1231
     98  CA        29.1570   14.4330    6.9350 C.3   202  LYS202      0.1678
     99  C         29.1450   15.5190    8.0010 C.2   202  LYS202      0.2434
    100  O         29.8860   15.4480    8.9810 O.2   202  LYS202     -0.2733
    101  CB        29.8410   13.1570    7.4320 C.3   202  LYS202      0.0284
    102  CG        29.6800   11.9650    6.4930 C.3   202  LYS202      0.0035
    103  CD        28.2060   11.5760    6.3780 C.3   202  LYS202      0.0206
    104  CE        27.9990   10.4360    5.4170 C.3   202  LYS202      0.1093
    105  NZ        26.5490   10.1240    5.2450 N.3   202  LYS202     -0.1314
    106  N         28.3040   16.5490    7.8060 N.am  203  PRO203     -0.2718
    107  CA        28.3080   17.6650    8.7460 C.3   203  PRO203      0.1535
    108  C         27.6560   17.2810   10.0680 C.2   203  PRO203      0.2599
    109  O         27.0340   16.2270   10.1870 O.2   203  PRO203     -0.2715
    110  CB        27.4720   18.7290    8.0220 C.3   203  PRO203      0.0310
    111  CG        26.5510   17.9430    7.1550 C.3   203  PRO203      0.0237
    112  CD        27.3620   16.7700    6.6940 C.3   203  PRO203      0.0939
    113  N         27.7820   18.1510   11.0580 N.am  204  GLY204     -0.1941
    114  CA        27.0920   17.9550   12.3170 C.3   204  GLY204      0.2014
    115  C         25.5940   18.1130   12.1660 C.2   204  GLY204      0.2639
    116  O         25.1190   18.9400   11.3770 O.2   204  GLY204     -0.2714
    117  N         24.8620   17.3250   12.9490 N.am  205  VAL205     -0.1963
    118  CA        23.4140   17.3940   13.0190 C.3   205  VAL205      0.1727
    119  C         23.0090   17.8250   14.4310 C.2   205  VAL205      0.2616
    120  O         23.5470   17.3400   15.4380 O.2   205  VAL205     -0.2715
    121  CB        22.7490   16.0560   12.6260 C.3   205  VAL205      0.0290
    122  CG1       21.2330   16.2620   12.4600 C.3   205  VAL205      0.0023
    123  CG2       23.3660   15.5010   11.3340 C.3   205  VAL205      0.0023
    124  N         22.0440   18.7390   14.4740 N.am  206  TYR206     -0.1974
    125  CA        21.6840   19.4960   15.6560 C.3   206  TYR206      0.1639
    126  C         20.1820   19.4800   15.8520 C.2   206  TYR206      0.2290
    127  O         19.4110   19.5730   14.8940 O.2   206  TYR206     -0.2864
    128  CB        22.1990   20.9420   15.5140 C.3   206  TYR206      0.0560
    129  CG        23.7070   20.9590   15.3600 C.ar  206  TYR206     -0.0198
    130  CD1       24.5190   20.8930   16.4780 C.ar  206  TYR206     -0.0009
    131  CD2       24.3200   20.9680   14.1010 C.ar  206  TYR206     -0.0009
    132  CE1       25.8890   20.8620   16.3670 C.ar  206  TYR206      0.0417
    133  CE2       25.7070   20.9240   13.9840 C.ar  206  TYR206      0.0417
    134  CZ        26.4820   20.8700   15.1290 C.ar  206  TYR206      0.1957
    135  OH        27.8530   20.8140   15.0850 O.3   206  TYR206     -0.2866
@<TRIPOS>BOND
     1   105   104    1
     2   104   103    1
     3    97    98    1
     4   103   102    1
     5   102   101    1
     6   112   111    1
     7   112   106    1
     8    98   101    1
     9    98    99    1
    10   111   110    1
    11   106    99   am
    12   106   107    1
    13    99   100    2
    14   110   107    1
    15   107   108    1
    16    86    85    1
    17    85    82    1
    18   108   109    2
    19   108   113   am
    20    84    83    2
    21    76    75   ar
    22    76    74   ar
    23   113   114    1
    24    82    83    1
    25    82    81    1
    26   123   121    1
    27    75    73   ar
    28    83    87   am
    29   116   115    2
    30    81    79   am
    31    74    72   ar
    32    94    93    2
    33    93    92    1
    34   115   114    1
    35   115   117   am
    36    18    16   ar
    37    87    88    1
    38   122   121    1
    39   121   118    1
    40    73    70   ar
    41    79    78    1
    42    79    80    2
    43    16    15    1
    44    16    17   ar
    45    88    89    1
    46    15    12    1
    47   117   118    1
    48    91    89   am
    49    91    92    1
    50    78    77    1
    51    11    12    1
    52   118   119    1
    53    72    70   ar
    54    72    71   ar
    55    89    90    2
    56    92    95    1
    57    12    13    1
    58    70    68   ar
    59   133   131   ar
    60   133   134   ar
    61    71    69   ar
    62   131   129   ar
    63    77    65   am
    64   119   124   am
    65   119   120    2
    66    66    65    2
    67   124   125    1
    68    95    96    1
    69    65    64    1
    70   127   126    2
    71    68    69   ar
    72    68    67    1
    73    13    19   am
    74    13    14    2
    75   135   134    1
    76   134   132   ar
    77   129   128    1
    78   129   130   ar
    79    19    20    1
    80   128   125    1
    81   125   126    1
    82    22    21    2
    83    96    30    1
    84    67    64    1
    85    64    63    1
    86   132   130   ar
    87    63    59   am
    88    24    23    1
    89    21    20    1
    90    21    25   am
    91    20    23    1
    92    30    29    1
    93    29    26    1
    94    61    62    1
    95    61    58    1
    96    25    26    1
    97    59    58    1
    98    59    60    2
    99    26    27    1
   100    39    37   am
   101    38    37    2
   102    57    58    1
   103    57    52   am
   104    37    36    1
   105    27    31   am
   106    27    28    2
   107    51    52    1
   108    51    50    1
   109    51    54    1
   110    55    54    1
   111    31    32    1
   112    52    53    2
   113    56    54    1
   114    36    35    1
   115    32    35    1
   116    32    33    1
   117     9     7   ar
   118     9    10   ar
   119     7     6   ar
   120    33    34    2
   121    33    40   am
   122    10     8   ar
   123    49    48    1
   124     6     8   ar
   125     6     5    1
   126    44    45    1
   127    45    48    1
   128    45    46    1
   129    40    41    1
   130     5     2    1
   131    46    47    2
   132    42    41    1
   133    42    43    2
   134     1     2    1
   135     2     3    1
   136     3     4    2
