@<TRIPOS>MOLECULE
tmp/3nkmA00.pdb
 197 198 0 0 0
SMALL
GASTEIGER

@<TRIPOS>ATOM
      1  N         13.9470   41.6720   -0.3300 N.3   170  LEU170     -0.1231
      2  CA        14.8080   42.7290   -0.8570 C.3   170  LEU170      0.1693
      3  C         16.2650   42.5430   -0.4670 C.2   170  LEU170      0.2592
      4  O         16.5680   42.0030    0.5860 O.2   170  LEU170     -0.2718
      5  CB        14.3430   44.1030   -0.3640 C.3   170  LEU170      0.0284
      6  CG        12.9810   44.5940   -0.8530 C.3   170  LEU170      0.0019
      7  CD1       12.4930   45.7190    0.0490 C.3   170  LEU170      0.0001
      8  CD2       13.0790   45.0510   -2.2770 C.3   170  LEU170      0.0001
      9  N         17.1710   43.0090   -1.3140 N.am  171  TYR171     -0.1976
     10  CA        18.5660   43.0780   -0.9160 C.3   171  TYR171      0.1639
     11  C         18.7020   44.1040    0.1910 C.2   171  TYR171      0.2290
     12  O         17.9520   45.0860    0.2270 O.2   171  TYR171     -0.2864
     13  CB        19.4440   43.5010   -2.0920 C.3   171  TYR171      0.0560
     14  CG        19.4350   42.5490   -3.2570 C.ar  171  TYR171     -0.0198
     15  CD1       19.8630   41.2310   -3.1090 C.ar  171  TYR171     -0.0009
     16  CD2       19.0310   42.9770   -4.5230 C.ar  171  TYR171     -0.0009
     17  CE1       19.8890   40.3590   -4.2100 C.ar  171  TYR171      0.0417
     18  CE2       19.0300   42.1200   -5.5950 C.ar  171  TYR171      0.0417
     19  CZ        19.4610   40.8140   -5.4410 C.ar  171  TYR171      0.1957
     20  OH        19.4570   39.9740   -6.5310 O.3   171  TYR171     -0.2866
     21  N         20.7290   46.5150    0.4680 N.3   173  GLU173     -0.1231
     22  CA        20.9470   47.8610   -0.0610 C.3   173  GLU173      0.1699
     23  C         19.6100   48.5610   -0.3510 C.2   173  GLU173      0.2593
     24  O         19.5220   49.7900   -0.3230 O.2   173  GLU173     -0.2718
     25  CB        21.8230   47.8340   -1.3170 C.3   173  GLU173      0.0402
     26  CG        21.1180   47.2590   -2.5440 C.3   173  GLU173      0.1161
     27  CD        22.0020   47.1840   -3.7800 C.2   173  GLU173      0.3649
     28  OE1       23.1330   47.7280   -3.7720 O.co2 173  GLU173     -0.2457
     29  OE2       21.5420   46.5910   -4.7830 O.co2 173  GLU173     -0.2457
     30  N         18.5720   47.7700   -0.6090 N.am  174  SER174     -0.1938
     31  CA        17.2530   48.3160   -0.8670 C.3   174  SER174      0.2055
     32  C         16.3990   48.4300    0.4030 C.2   174  SER174      0.2643
     33  O         15.7220   49.4300    0.6040 O.2   174  SER174     -0.2714
     34  CB        16.5250   47.4950   -1.9450 C.3   174  SER174      0.2130
     35  OG        17.1490   47.6450   -3.2070 O.3   174  SER174     -0.2179
     36  N         16.4190   47.4290    1.2790 N.am  175  HIS175     -0.1959
     37  CA        15.5920   47.5460    2.4800 C.3   175  HIS175      0.1787
     38  C         16.1940   48.4340    3.6140 C.2   175  HIS175      0.2620
     39  O         15.4760   48.8800    4.5190 O.2   175  HIS175     -0.2715
     40  CB        15.0730   46.1790    2.9830 C.3   175  HIS175      0.0785
     41  CG        16.1280   45.2490    3.5060 C.ar  175  HIS175      0.0821
     42  ND1       17.0040   45.5980    4.5060 N.ar  175  HIS175     -0.2267
     43  CD2       16.3880   43.9480    3.2190 C.ar  175  HIS175      0.1154
     44  CE1       17.7910   44.5690    4.7810 C.ar  175  HIS175      0.1986
     45  NE2       17.4260   43.5500    4.0280 N.ar  175  HIS175     -0.2212
     46  N         17.4960   48.6980    3.5470 N.am  176  GLY176     -0.1954
     47  CA        18.1340   49.6060    4.4920 C.3   176  GLY176      0.1869
     48  C         18.9250   48.9960    5.6380 C.2   176  GLY176      0.2309
     49  O         19.7600   49.6640    6.2340 O.2   176  GLY176     -0.2863
     50  N         12.4790   54.6870   10.9900 N.3   202  ARG202     -0.1231
     51  CA        13.1690   55.3310    9.8730 C.3   202  ARG202      0.1694
     52  C         14.2150   54.4180    9.2350 C.2   202  ARG202      0.2592
     53  O         14.6330   54.6460    8.1100 O.2   202  ARG202     -0.2718
     54  CB        13.8370   56.6340   10.3250 C.3   202  ARG202      0.0321
     55  CG        14.9070   56.4490   11.3970 C.3   202  ARG202      0.0489
     56  CD        15.5540   57.7950   11.7180 C.3   202  ARG202      0.2205
     57  NE        16.4670   57.7490   12.8580 N.pl3 202  ARG202     -0.0865
     58  CZ        17.0860   58.8260   13.3400 C.cat 202  ARG202      0.5346
     59  NH1       16.8790   60.0060   12.7700 N.pl3 202  ARG202      0.1354
     60  NH2       17.9040   58.7290   14.3800 N.pl3 202  ARG202      0.1354
     61  N         14.6490   53.3940    9.9590 N.am  203  TRP203     -0.1962
     62  CA        15.6980   52.5140    9.4400 C.3   203  TRP203      0.1771
     63  C         15.1620   51.4920    8.4300 C.2   203  TRP203      0.2620
     64  O         15.8660   51.0870    7.4950 O.2   203  TRP203     -0.2715
     65  CB        16.4150   51.8040   10.5970 C.3   203  TRP203      0.0590
     66  CG        17.2020   52.7490   11.4660 C.ar  203  TRP203      0.0006
     67  CD1       16.7790   53.3530   12.6120 C.ar  203  TRP203      0.0946
     68  CD2       18.5480   53.1990   11.2500 C.ar  203  TRP203      0.0152
     69  NE1       17.7750   54.1540   13.1210 N.ar  203  TRP203     -0.2442
     70  CE2       18.8690   54.0780   12.3030 C.ar  203  TRP203      0.0810
     71  CE3       19.5070   52.9540   10.2650 C.ar  203  TRP203      0.0012
     72  CZ2       20.1130   54.7000   12.4020 C.ar  203  TRP203      0.0191
     73  CZ3       20.7420   53.5780   10.3650 C.ar  203  TRP203      0.0001
     74  CH2       21.0310   54.4350   11.4230 C.ar  203  TRP203      0.0015
     75  N         13.9070   51.0970    8.6210 N.am  204  TRP204     -0.1960
     76  CA        13.3490   49.9090    7.9760 C.3   204  TRP204      0.1771
     77  C         12.5440   50.2320    6.7250 C.2   204  TRP204      0.2620
     78  O         11.4560   50.7840    6.8090 O.2   204  TRP204     -0.2715
     79  CB        12.4790   49.1540    8.9860 C.3   204  TRP204      0.0590
     80  CG        13.2030   48.9000   10.2630 C.ar  204  TRP204      0.0006
     81  CD1       13.4110   49.7880   11.2940 C.ar  204  TRP204      0.0946
     82  CD2       13.8490   47.6820   10.6480 C.ar  204  TRP204      0.0152
     83  NE1       14.1380   49.1870   12.2900 N.ar  204  TRP204     -0.2442
     84  CE2       14.4190   47.8960   11.9210 C.ar  204  TRP204      0.0810
     85  CE3       13.9980   46.4320   10.0390 C.ar  204  TRP204      0.0012
     86  CZ2       15.1310   46.9040   12.5980 C.ar  204  TRP204      0.0191
     87  CZ3       14.7050   45.4390   10.7200 C.ar  204  TRP204      0.0001
     88  CH2       15.2570   45.6860   11.9870 C.ar  204  TRP204      0.0015
     89  N         13.0890   49.8760    5.5650 N.am  205  GLY205     -0.1940
     90  CA        12.4540   50.1770    4.2970 C.3   205  GLY205      0.2014
     91  C         11.7610   48.9640    3.7140 C.2   205  GLY205      0.2639
     92  O         11.7080   47.9140    4.3480 O.2   205  GLY205     -0.2714
     93  N         11.2240   49.1120    2.5090 N.am  206  GLY206     -0.1954
     94  CA        10.5310   48.0260    1.8460 C.3   206  GLY206      0.1869
     95  C          9.2130   47.7510    2.5490 C.2   206  GLY206      0.2309
     96  O          8.7420   48.5750    3.3330 O.2   206  GLY206     -0.2863
     97  N         25.3370   42.6110   -4.6020 N.3   383  HIS383     -0.1241
     98  CA        24.3470   43.6910   -4.5960 C.3   383  HIS383      0.1621
     99  C         24.4810   44.5680   -3.3670 C.2   383  HIS383      0.2264
    100  O         23.4860   44.9050   -2.7230 O.2   383  HIS383     -0.2867
    101  CB        22.9230   43.1200   -4.7170 C.3   383  HIS383      0.0745
    102  CG        22.6700   42.4330   -6.0210 C.ar  383  HIS383      0.0817
    103  ND1       22.4180   43.1240   -7.1860 N.ar  383  HIS383     -0.2268
    104  CD2       22.6650   41.1180   -6.3520 C.ar  383  HIS383      0.1154
    105  CE1       22.2610   42.2630   -8.1800 C.ar  383  HIS383      0.1986
    106  NE2       22.4050   41.0400   -7.7000 N.ar  383  HIS383     -0.2212
    107  N         24.3830   50.2170   -3.2820 N.3   386  ASN386     -0.1225
    108  CA        23.4610   51.3260   -3.5060 C.3   386  ASN386      0.1785
    109  C         22.6800   51.7810   -2.2690 C.2   386  ASN386      0.2597
    110  O         21.4440   51.7480   -2.2500 O.2   386  ASN386     -0.2718
    111  CB        22.4900   51.0160   -4.6460 C.3   386  ASN386      0.1169
    112  CG        21.6270   52.2140   -5.0020 C.2   386  ASN386      0.2627
    113  OD1       22.0660   53.3570   -4.8750 O.2   386  ASN386     -0.2716
    114  ND2       20.3910   51.9630   -5.4200 N.am  386  ASN386     -0.0877
    115  N         23.4010   52.2180   -1.2410 N.am  387  ASN387     -0.1960
    116  CA        22.7720   52.7190   -0.0340 C.3   387  ASN387      0.1819
    117  C         23.7480   53.6280    0.6850 C.2   387  ASN387      0.2621
    118  O         24.9370   53.3300    0.7510 O.2   387  ASN387     -0.2715
    119  CB        22.3640   51.5590    0.8770 C.3   387  ASN387      0.1195
    120  CG        21.4060   51.9910    1.9830 C.2   387  ASN387      0.2630
    121  OD1       21.7570   52.7790    2.8710 O.2   387  ASN387     -0.2716
    122  ND2       20.1920   51.4780    1.9310 N.am  387  ASN387     -0.0877
    123  N         23.2460   54.7240    1.2410 N.am  388  ARG388     -0.1963
    124  CA        24.1220   55.7020    1.8630 C.3   388  ARG388      0.1729
    125  C         24.7390   55.1750    3.1610 C.2   388  ARG388      0.2616
    126  O         25.7480   55.7080    3.6160 O.2   388  ARG388     -0.2715
    127  CB        23.3730   57.0060    2.1290 C.3   388  ARG388      0.0348
    128  CG        22.2470   56.8570    3.1020 C.3   388  ARG388      0.0492
    129  CD        21.3920   58.1180    3.1570 C.3   388  ARG388      0.2205
    130  NE        20.4410   58.0460    4.2610 N.pl3 388  ARG388     -0.0865
    131  CZ        19.2840   58.6970    4.3080 C.cat 388  ARG388      0.5346
    132  NH1       18.9120   59.4700    3.2980 N.pl3 388  ARG388      0.1354
    133  NH2       18.4940   58.5600    5.3650 N.pl3 388  ARG388      0.1354
    134  N         24.1370   54.1330    3.7430 N.am  389  ARG389     -0.1977
    135  CA        24.6520   53.5100    4.9680 C.3   389  ARG389      0.1597
    136  C         25.7900   52.5330    4.7010 C.2   389  ARG389      0.2287
    137  O         26.3730   51.9760    5.6330 O.2   389  ARG389     -0.2864
    138  CB        23.5300   52.7610    5.7050 C.3   389  ARG389      0.0334
    139  CG        22.3640   53.6490    6.0690 C.3   389  ARG389      0.0492
    140  CD        21.1360   52.8680    6.4690 C.3   389  ARG389      0.2205
    141  NE        20.0170   53.7730    6.7120 N.pl3 389  ARG389     -0.0865
    142  CZ        18.7500   53.3850    6.8170 C.cat 389  ARG389      0.5346
    143  NH1       18.4420   52.1000    6.7070 N.pl3 389  ARG389      0.1354
    144  NH2       17.7920   54.2800    7.0340 N.pl3 389  ARG389      0.1354
    145  N          6.8730   45.1180   -4.6520 N.3   472  PRO472     -0.2102
    146  CA         8.0360   44.9510   -5.5260 C.3   472  PRO472      0.1504
    147  C          9.2560   44.4650   -4.7470 C.2   472  PRO472      0.2576
    148  O          9.6030   45.0240   -3.7060 O.2   472  PRO472     -0.2718
    149  CB         8.2570   46.3620   -6.0810 C.3   472  PRO472      0.0282
    150  CG         6.8780   46.9680   -6.0730 C.3   472  PRO472      0.0208
    151  CD         6.2140   46.4220   -4.8390 C.3   472  PRO472      0.0893
    152  N          9.8920   43.4150   -5.2380 N.am  473  ASN473     -0.1961
    153  CA        11.0520   42.8780   -4.5490 C.3   473  ASN473      0.1819
    154  C         12.0560   42.2740   -5.5180 C.2   473  ASN473      0.2621
    155  O         11.8450   42.2860   -6.7220 O.2   473  ASN473     -0.2715
    156  CB        10.6310   41.8700   -3.4690 C.3   473  ASN473      0.1195
    157  CG        10.0200   40.6120   -4.0440 C.2   473  ASN473      0.2630
    158  OD1       10.7040   39.5940   -4.2040 O.2   473  ASN473     -0.2716
    159  ND2        8.7280   40.6670   -4.3540 N.am  473  ASN473     -0.0877
    160  N         13.1460   41.7410   -4.9860 N.am  474  ASN474     -0.1972
    161  CA        14.2370   41.2790   -5.8300 C.3   474  ASN474      0.1688
    162  C         14.1890   39.8050   -6.1580 C.2   474  ASN474      0.2292
    163  O         15.0190   39.3110   -6.9140 O.2   474  ASN474     -0.2864
    164  CB        15.5550   41.6650   -5.1790 C.3   474  ASN474      0.1181
    165  CG        15.6520   43.1500   -4.9820 C.2   474  ASN474      0.2629
    166  OD1       15.7530   43.6430   -3.8570 O.2   474  ASN474     -0.2716
    167  ND2       15.5820   43.8850   -6.0970 N.am  474  ASN474     -0.0877
    168  N         23.7460   50.8300   -9.0570 N.3   689  ASN689     -0.1225
    169  CA        22.4670   50.4310   -8.5000 C.3   689  ASN689      0.1785
    170  C         22.0190   49.0500   -8.9880 C.2   689  ASN689      0.2598
    171  O         20.9310   48.6020   -8.6540 O.2   689  ASN689     -0.2718
    172  CB        21.3870   51.4920   -8.7510 C.3   689  ASN689      0.1169
    173  CG        21.0290   51.6280  -10.2180 C.2   689  ASN689      0.2627
    174  OD1       21.5720   50.9310  -11.0610 O.2   689  ASN689     -0.2716
    175  ND2       20.1060   52.5330  -10.5250 N.am  689  ASN689     -0.0877
    176  N         22.8770   48.3730   -9.7510 N.am  690  GLY690     -0.1942
    177  CA        22.5690   47.0520  -10.2670 C.3   690  GLY690      0.2014
    178  C         21.6030   47.0590  -11.4500 C.2   690  GLY690      0.2638
    179  O         21.1520   45.9920  -11.9030 O.2   690  GLY690     -0.2714
    180  N         21.3060   48.2570  -11.9670 N.am  691  LEU691     -0.1977
    181  CA        20.3420   48.4220  -13.0600 C.3   691  LEU691      0.1596
    182  C         20.9880   49.0980  -14.2830 C.2   691  LEU691      0.2287
    183  O         21.8890   49.9110  -14.1510 O.2   691  LEU691     -0.2864
    184  CB        19.1370   49.2510  -12.6050 C.3   691  LEU691      0.0297
    185  CG        18.3880   48.8720  -11.3280 C.3   691  LEU691      0.0022
    186  CD1       17.3780   49.9420  -10.9530 C.3   691  LEU691      0.0001
    187  CD2       17.7180   47.5250  -11.4890 C.3   691  LEU691      0.0001
    188  N         19.0130   42.5190  -15.2400 N.3   777  HIS777     -0.1241
    189  CA        18.8180   43.8030  -14.5590 C.3   777  HIS777      0.1621
    190  C         19.7700   44.8660  -15.0900 C.2   777  HIS777      0.2264
    191  O         19.3940   46.0120  -15.3080 O.2   777  HIS777     -0.2867
    192  CB        19.0290   43.6520  -13.0550 C.3   777  HIS777      0.0745
    193  CG        17.9550   42.8710  -12.3660 C.ar  777  HIS777      0.0817
    194  ND1       18.1990   42.0790  -11.2600 N.ar  777  HIS777     -0.2268
    195  CD2       16.6310   42.7620  -12.6210 C.ar  777  HIS777      0.1154
    196  CE1       17.0720   41.5130  -10.8700 C.ar  777  HIS777      0.1986
    197  NE2       16.1040   41.9170  -11.6750 N.ar  777  HIS777     -0.2212
@<TRIPOS>BOND
     1   191   190    2
     2   188   189    1
     3   190   189    1
     4   189   192    1
     5   182   183    2
     6   182   181    1
     7   181   184    1
     8   181   180    1
     9   192   193    1
    10   195   193   ar
    11   195   197   ar
    12   184   185    1
    13   193   194   ar
    14   180   178   am
    15   179   178    2
    16   197   196   ar
    17   187   185    1
    18   178   177    1
    19   185   186    1
    20   194   196   ar
    21   174   173    2
    22   175   173   am
    23   177   176    1
    24   173   172    1
    25   176   170   am
    26   168   169    1
    27   170   171    2
    28   170   169    1
    29   172   169    1
    30   105   106   ar
    31   105   103   ar
    32   106   104   ar
    33   103   102   ar
    34   163   162    2
    35   155   154    2
    36    20    19    1
    37   104   102   ar
    38   162   161    1
    39   167   165   am
    40   149   150    1
    41   149   146    1
    42   150   151    1
    43   102   101    1
    44   161   164    1
    45   161   160    1
    46    18    19   ar
    47    18    16   ar
    48   146   147    1
    49   146   145    1
    50   154   160   am
    51   154   153    1
    52    19    17   ar
    53   114   112   am
    54   152   147   am
    55   152   153    1
    56   164   165    1
    57   112   113    2
    58   112   111    1
    59   165   166    2
    60   151   145    1
    61    29    27   ar
    62   147   148    2
    63   101    98    1
    64   111   108    1
    65    97    98    1
    66    98    99    1
    67   153   156    1
    68    16    14   ar
    69   159   157   am
    70    17    15   ar
    71   158   157    2
    72   157   156    1
    73    27    28   ar
    74    27    26    1
    75   108   107    1
    76   108   109    1
    77    99   100    2
    78    14    15   ar
    79    14    13    1
    80    35    34    1
    81    26    25    1
    82     8     6    1
    83   109   110    2
    84   109   115   am
    85    13    10    1
    86    34    31    1
    87    25    22    1
    88     9    10    1
    89     9     3   am
    90   115   116    1
    91    10    11    1
    92    31    30    1
    93    31    32    1
    94     2     3    1
    95     2     5    1
    96     2     1    1
    97     6     5    1
    98     6     7    1
    99    30    23   am
   100     3     4    2
   101    23    24    2
   102    23    22    1
   103    22    21    1
   104   116   117    1
   105   116   119    1
   106    11    12    2
   107    32    33    2
   108    32    36   am
   109   117   118    2
   110   117   123   am
   111   119   120    1
   112   123   124    1
   113    36    37    1
   114    94    93    1
   115    94    95    1
   116   124   127    1
   117   124   125    1
   118   122   120   am
   119   120   121    2
   120   127   128    1
   121    37    40    1
   122    37    38    1
   123    93    91   am
   124    95    96    2
   125    40    41    1
   126   128   129    1
   127   129   130    1
   128   125   126    2
   129   125   134   am
   130    43    41   ar
   131    43    45   ar
   132   132   131    1
   133    41    42   ar
   134    46    38   am
   135    46    47    1
   136    38    39    2
   137    91    90    1
   138    91    92    2
   139   134   135    1
   140    45    44   ar
   141   130   131    2
   142    90    89    1
   143   131   133    1
   144    47    48    1
   145    42    44   ar
   146   136   135    1
   147   136   137    2
   148   135   138    1
   149    89    77   am
   150    48    49    2
   151   138   139    1
   152   139   140    1
   153   140   141    1
   154   143   142    1
   155   141   142    2
   156    77    78    2
   157    77    76    1
   158   142   144    1
   159    64    63    2
   160    76    75    1
   161    76    79    1
   162    53    52    2
   163    63    75   am
   164    63    62    1
   165    79    80    1
   166    52    51    1
   167    52    61   am
   168    62    61    1
   169    62    65    1
   170    51    54    1
   171    51    50    1
   172    85    82   ar
   173    85    87   ar
   174    80    82   ar
   175    80    81   ar
   176    71    73   ar
   177    71    68   ar
   178    54    55    1
   179    73    74   ar
   180    65    66    1
   181    82    84   ar
   182    87    88   ar
   183    68    66   ar
   184    68    70   ar
   185    81    83   ar
   186    55    56    1
   187    74    72   ar
   188    66    67   ar
   189    56    57    1
   190    84    83   ar
   191    84    86   ar
   192    88    86   ar
   193    70    72   ar
   194    70    69   ar
   195    67    69   ar
   196    59    58    1
   197    57    58    2
   198    58    60    1
