@<TRIPOS>MOLECULE
tmp/3nknA03.pdb
 239 232 0 0 0
SMALL
GASTEIGER

@<TRIPOS>ATOM
      1  N          6.2170   30.3150   10.0930 N.3   117  ILE117     -0.1245
      2  CA         7.6290   30.4470    9.7120 C.3   117  ILE117      0.1561
      3  C          8.4260   30.1820   10.9840 C.2   117  ILE117      0.2260
      4  O          8.2490   30.8820   11.9830 O.2   117  ILE117     -0.2867
      5  CB         7.9330   31.8580    9.1630 C.3   117  ILE117      0.0252
      6  CG1        6.9960   32.1740    7.9930 C.3   117  ILE117      0.0019
      7  CG2        9.4000   31.9460    8.7010 C.3   117  ILE117      0.0019
      8  CD1        6.6210   33.6840    7.8300 C.3   117  ILE117      0.0001
      9  N         11.9510   30.2500   12.2500 N.3   119  SER119     -0.1217
     10  CA        13.2960   30.6860   11.8810 C.3   119  SER119      0.1889
     11  C         14.3090   30.3760   12.9820 C.2   119  SER119      0.2288
     12  O         14.0350   30.5110   14.1700 O.2   119  SER119     -0.2866
     13  CB        13.2970   32.1840   11.5250 C.3   119  SER119      0.2089
     14  OG        12.9660   32.9190   12.6700 O.3   119  SER119     -0.2183
     15  N         18.4450   30.8390   14.1780 N.3   121  ASP121     -0.1239
     16  CA        19.5590   31.7350   13.8960 C.3   121  ASP121      0.1674
     17  C         20.8480   30.9420   13.8140 C.2   121  ASP121      0.2266
     18  O         21.1100   30.1140   14.6830 O.2   121  ASP121     -0.2867
     19  CB        19.6570   32.7600   15.0250 C.3   121  ASP121      0.1410
     20  CG        20.4510   33.9990   14.6160 C.2   121  ASP121      0.3668
     21  OD1       21.5680   33.8430   14.0880 O.co2 121  ASP121     -0.2456
     22  OD2       19.9520   35.1220   14.8150 O.co2 121  ASP121     -0.2456
     23  N         24.9240   38.2040    8.2180 N.3   158  LYS158     -0.1231
     24  CA        24.5740   38.4090    9.6040 C.3   158  LYS158      0.1693
     25  C         23.0400   38.4880    9.7640 C.2   158  LYS158      0.2593
     26  O         22.2840   38.5190    8.7920 O.2   158  LYS158     -0.2718
     27  CB        25.2050   39.7210   10.0810 C.3   158  LYS158      0.0285
     28  CG        26.7530   39.7350    9.9610 C.3   158  LYS158      0.0035
     29  CD        27.4050   40.1600   11.2240 C.3   158  LYS158      0.0206
     30  CE        28.9410   40.1250   11.1630 C.3   158  LYS158      0.1093
     31  NZ        29.4810   40.5450   12.4640 N.3   158  LYS158     -0.1314
     32  N         22.5890   38.5440   11.0000 N.am  159  THR159     -0.1939
     33  CA        21.1600   38.3430   11.2980 C.3   159  THR159      0.2028
     34  C         20.1790   39.3790   10.7850 C.2   159  THR159      0.2642
     35  O         19.1800   39.0350   10.1230 O.2   159  THR159     -0.2714
     36  CB        20.9740   38.2880   12.8060 C.3   159  THR159      0.1808
     37  OG1       21.8430   37.3020   13.3380 O.3   159  THR159     -0.2208
     38  CG2       19.5190   37.9750   13.1770 C.3   159  THR159      0.0379
     39  N         20.3830   40.6360   11.1550 N.am  160  PHE160     -0.1973
     40  CA        19.4010   41.6620   10.7610 C.3   160  PHE160      0.1639
     41  C         19.2170   41.7960    9.2460 C.2   160  PHE160      0.2290
     42  O         18.0860   41.8200    8.7640 O.2   160  PHE160     -0.2864
     43  CB        19.6630   43.0180   11.4530 C.3   160  PHE160      0.0560
     44  CG        18.8930   43.1920   12.7590 C.ar  160  PHE160     -0.0200
     45  CD1       18.8020   42.1530   13.6680 C.ar  160  PHE160     -0.0042
     46  CD2       18.2930   44.4000   13.0790 C.ar  160  PHE160     -0.0042
     47  CE1       18.1040   42.3060   14.8720 C.ar  160  PHE160     -0.0003
     48  CE2       17.6110   44.5680   14.2920 C.ar  160  PHE160     -0.0003
     49  CZ        17.5120   43.5160   15.1790 C.ar  160  PHE160     -0.0000
     50  N         17.2840   38.4330    8.2020 N.3   163  LEU163     -0.1245
     51  CA        15.8730   38.2810    8.6040 C.3   163  LEU163      0.1561
     52  C         15.0220   39.3060    7.8380 C.2   163  LEU163      0.2260
     53  O         13.9010   39.0240    7.4240 O.2   163  LEU163     -0.2867
     54  CB        15.7080   38.4480   10.1040 C.3   163  LEU163      0.0270
     55  CG        16.3400   37.3900   11.0300 C.3   163  LEU163      0.0019
     56  CD1       16.0100   37.7930   12.4410 C.3   163  LEU163      0.0001
     57  CD2       15.8290   35.9830   10.7260 C.3   163  LEU163      0.0001
     58  N         14.5460   38.1030    4.3760 N.3   166  LEU166     -0.1231
     59  CA        13.5070   37.0370    4.3440 C.3   166  LEU166      0.1693
     60  C         12.1060   37.6630    4.3210 C.2   166  LEU166      0.2591
     61  O         11.2340   37.2470    3.5370 O.2   166  LEU166     -0.2718
     62  CB        13.6240   36.0780    5.5260 C.3   166  LEU166      0.0284
     63  CG        14.7770   35.0900    5.4170 C.3   166  LEU166      0.0019
     64  CD1       15.1190   34.4670    6.7980 C.3   166  LEU166      0.0001
     65  CD2       14.4590   34.0130    4.3280 C.3   166  LEU166      0.0001
     66  N         11.8970   38.6730    5.1660 N.am  167  ALA167     -0.1980
     67  CA        10.5770   39.3120    5.2560 C.3   167  ALA167      0.1597
     68  C         10.1630   40.1570    4.0560 C.2   167  ALA167      0.2287
     69  O          8.9620   40.4210    3.8860 O.2   167  ALA167     -0.2864
     70  CB        10.4330   40.1640    6.5900 C.3   167  ALA167      0.0319
     71  N         24.1170   44.6150   10.9360 N.3   180  ASN180     -0.1240
     72  CA        23.5860   44.6260   12.3040 C.3   180  ASN180      0.1653
     73  C         23.8610   45.9900   12.9520 C.2   180  ASN180      0.2266
     74  O         23.1460   46.4350   13.8660 O.2   180  ASN180     -0.2867
     75  CB        24.2220   43.5490   13.1840 C.3   180  ASN180      0.1155
     76  CG        23.7520   42.1450   12.8610 C.2   180  ASN180      0.2627
     77  OD1       22.7730   41.9450   12.1430 O.2   180  ASN180     -0.2716
     78  ND2       24.4620   41.1630   13.3900 N.am  180  ASN180     -0.0877
     79  N         22.1720   46.3990   16.8260 N.3   193  LEU193     -0.1245
     80  CA        21.3690   45.2130   17.0830 C.3   193  LEU193      0.1561
     81  C         20.7060   45.3560   18.4520 C.2   193  LEU193      0.2260
     82  O         19.5240   45.0270   18.6250 O.2   193  LEU193     -0.2867
     83  CB        22.2710   43.9690   17.0300 C.3   193  LEU193      0.0270
     84  CG        21.7820   42.5090   17.1320 C.3   193  LEU193      0.0019
     85  CD1       20.8130   42.2590   18.2980 C.3   193  LEU193      0.0001
     86  CD2       21.2060   41.9750   15.8080 C.3   193  LEU193      0.0001
     87  N          6.5170   41.1180    5.0270 N.3   209  LEU209     -0.1231
     88  CA         5.3510   40.2470    4.8890 C.3   209  LEU209      0.1693
     89  C          4.1530   40.6070    5.7700 C.2   209  LEU209      0.2592
     90  O          3.0000   40.5410    5.3090 O.2   209  LEU209     -0.2718
     91  CB         5.7570   38.8140    5.1460 C.3   209  LEU209      0.0284
     92  CG         4.7040   37.7480    4.8320 C.3   209  LEU209      0.0019
     93  CD1        4.3660   37.7820    3.3540 C.3   209  LEU209      0.0001
     94  CD2        5.2720   36.3860    5.2430 C.3   209  LEU209      0.0001
     95  N          4.3920   40.9660    7.0260 N.am  210  TRP210     -0.1976
     96  CA         3.2680   41.2720    7.9280 C.3   210  TRP210      0.1640
     97  C          2.4560   42.4890    7.4770 C.2   210  TRP210      0.2290
     98  O          1.2200   42.5310    7.6450 O.2   210  TRP210     -0.2864
     99  CB         3.7020   41.4320    9.3950 C.3   210  TRP210      0.0576
    100  CG         4.8040   42.4330    9.6450 C.ar  210  TRP210      0.0006
    101  CD1        4.6690   43.7510   10.0070 C.ar  210  TRP210      0.0946
    102  CD2        6.2150   42.1790    9.5800 C.ar  210  TRP210      0.0152
    103  NE1        5.9210   44.3330   10.1480 N.ar  210  TRP210     -0.2442
    104  CE2        6.8780   43.3900    9.8900 C.ar  210  TRP210      0.0810
    105  CE3        6.9760   41.0500    9.2670 C.ar  210  TRP210      0.0012
    106  CZ2        8.2620   43.4900    9.9290 C.ar  210  TRP210      0.0191
    107  CZ3        8.3430   41.1520    9.2860 C.ar  210  TRP210      0.0001
    108  CH2        8.9800   42.3640    9.6140 C.ar  210  TRP210      0.0015
    109  N          5.8450   39.1530   14.4320 N.3   223  PHE223     -0.1227
    110  CA         7.1040   38.7550   13.8120 C.3   223  PHE223      0.1736
    111  C          8.2650   39.3100   14.6310 C.2   223  PHE223      0.2595
    112  O          9.3620   39.5500   14.1080 O.2   223  PHE223     -0.2718
    113  CB         7.1950   39.2550   12.3840 C.3   223  PHE223      0.0547
    114  CG         6.4280   38.4200   11.3840 C.ar  223  PHE223     -0.0202
    115  CD1        5.0640   38.2730   11.4910 C.ar  223  PHE223     -0.0042
    116  CD2        7.0820   37.8280   10.3200 C.ar  223  PHE223     -0.0042
    117  CE1        4.3630   37.5210   10.5630 C.ar  223  PHE223     -0.0003
    118  CE2        6.3910   37.0930    9.3850 C.ar  223  PHE223     -0.0003
    119  CZ         5.0250   36.9560    9.5000 C.ar  223  PHE223     -0.0000
    120  N          8.0080   39.5550   15.9120 N.am  224  PHE224     -0.1962
    121  CA         9.0760   39.9370   16.8260 C.3   224  PHE224      0.1771
    122  C          8.7890   39.2650   18.1420 C.2   224  PHE224      0.2619
    123  O          7.6400   39.1390   18.5310 O.2   224  PHE224     -0.2715
    124  CB         9.1590   41.4600   16.9780 C.3   224  PHE224      0.0574
    125  CG         9.7870   42.2280   15.8460 C.ar  224  PHE224     -0.0200
    126  CD1       11.1020   42.0100   15.4790 C.ar  224  PHE224     -0.0042
    127  CD2        9.0740   43.1900   15.1420 C.ar  224  PHE224     -0.0042
    128  CE1       11.6890   42.7150   14.4160 C.ar  224  PHE224     -0.0003
    129  CE2        9.6830   43.9140   14.1170 C.ar  224  PHE224     -0.0003
    130  CZ        10.9630   43.6690   13.7640 C.ar  224  PHE224     -0.0000
    131  N          9.8260   38.7920   18.8200 N.am  225  TRP225     -0.1974
    132  CA         9.6470   38.2500   20.1530 C.3   225  TRP225      0.1640
    133  C         10.6680   38.8960   21.0720 C.2   225  TRP225      0.2290
    134  O         11.8460   38.9820   20.7170 O.2   225  TRP225     -0.2864
    135  CB         9.8310   36.7280   20.1330 C.3   225  TRP225      0.0576
    136  CG         8.7430   35.9960   19.3770 C.ar  225  TRP225      0.0006
    137  CD1        8.8100   35.5250   18.0990 C.ar  225  TRP225      0.0946
    138  CD2        7.4260   35.6630   19.8600 C.ar  225  TRP225      0.0152
    139  NE1        7.6200   34.9090   17.7550 N.ar  225  TRP225     -0.2442
    140  CE2        6.7570   34.9820   18.8200 C.ar  225  TRP225      0.0810
    141  CE3        6.7540   35.8650   21.0730 C.ar  225  TRP225      0.0012
    142  CZ2        5.4490   34.5030   18.9570 C.ar  225  TRP225      0.0191
    143  CZ3        5.4490   35.3870   21.2020 C.ar  225  TRP225      0.0001
    144  CH2        4.8170   34.7170   20.1500 C.ar  225  TRP225      0.0015
    145  N         13.3270   39.1960   23.8320 N.3   227  VAL227     -0.1245
    146  CA        14.3430   38.2370   24.2290 C.3   227  VAL227      0.1561
    147  C         13.9740   37.5030   25.5120 C.2   227  VAL227      0.2260
    148  O         14.3210   36.3390   25.6870 O.2   227  VAL227     -0.2867
    149  CB        15.7330   38.9070   24.3690 C.3   227  VAL227      0.0252
    150  CG1       16.0620   39.6700   23.0890 C.3   227  VAL227      0.0019
    151  CG2       15.7810   39.8350   25.5740 C.3   227  VAL227      0.0019
    152  N          5.0690   33.6240   13.0440 N.3   254  ALA254     -0.1231
    153  CA         6.5140   33.4630   13.0290 C.3   254  ALA254      0.1694
    154  C          7.0150   33.0750   14.4110 C.2   254  ALA254      0.2592
    155  O          6.6070   33.6500   15.4290 O.2   254  ALA254     -0.2718
    156  CB         7.1930   34.7330   12.5610 C.3   254  ALA254      0.0304
    157  N          7.9220   32.1010   14.4320 N.am  255  PHE255     -0.1962
    158  CA         8.6390   31.7490   15.6290 C.3   255  PHE255      0.1771
    159  C         10.1010   32.0430   15.3340 C.2   255  PHE255      0.2619
    160  O         10.5310   31.8620   14.2110 O.2   255  PHE255     -0.2715
    161  CB         8.4780   30.2650   15.9830 C.3   255  PHE255      0.0574
    162  CG         9.4430   29.8100   17.0540 C.ar  255  PHE255     -0.0200
    163  CD1        9.1010   29.8820   18.3970 C.ar  255  PHE255     -0.0042
    164  CD2       10.6920   29.3150   16.7100 C.ar  255  PHE255     -0.0042
    165  CE1        9.9920   29.4740   19.3990 C.ar  255  PHE255     -0.0003
    166  CE2       11.6040   28.9330   17.6960 C.ar  255  PHE255     -0.0003
    167  CZ        11.2590   29.0040   19.0400 C.ar  255  PHE255     -0.0000
    168  N         10.8420   32.5210   16.3310 N.am  256  TYR256     -0.1974
    169  CA        12.2750   32.7390   16.1690 C.3   256  TYR256      0.1639
    170  C         13.0650   32.1550   17.3300 C.2   256  TYR256      0.2290
    171  O         12.6780   32.2860   18.5100 O.2   256  TYR256     -0.2864
    172  CB        12.5790   34.2410   16.0010 C.3   256  TYR256      0.0560
    173  CG        14.0360   34.6080   16.1820 C.ar  256  TYR256     -0.0198
    174  CD1       14.9540   34.4490   15.1340 C.ar  256  TYR256     -0.0009
    175  CD2       14.5040   35.0840   17.4010 C.ar  256  TYR256     -0.0009
    176  CE1       16.3050   34.7870   15.2970 C.ar  256  TYR256      0.0417
    177  CE2       15.8590   35.4220   17.5850 C.ar  256  TYR256      0.0417
    178  CZ        16.7480   35.2760   16.5270 C.ar  256  TYR256      0.1957
    179  OH        18.0700   35.6170   16.7250 O.3   256  TYR256     -0.2866
    180  N         17.1110   32.0860   18.8940 N.3   258  GLU258     -0.1245
    181  CA        18.4410   32.6910   18.8060 C.3   258  GLU258      0.1567
    182  C         19.5260   31.6180   18.7240 C.2   258  GLU258      0.2260
    183  O         20.7150   31.9220   18.5010 O.2   258  GLU258     -0.2867
    184  CB        18.6900   33.6230   19.9820 C.3   258  GLU258      0.0388
    185  CG        18.9210   32.9100   21.2960 C.3   258  GLU258      0.1160
    186  CD        17.6410   32.2960   21.9030 C.2   258  GLU258      0.3649
    187  OE1       17.7930   31.3900   22.7660 O.co2 258  GLU258     -0.2457
    188  OE2       16.5000   32.7120   21.5280 O.co2 258  GLU258     -0.2457
    189  N         22.8320   29.8210   16.8760 N.3   261  ASP261     -0.1239
    190  CA        23.8190   30.8910   16.6860 C.3   261  ASP261      0.1674
    191  C         24.6640   31.1360   17.9230 C.2   261  ASP261      0.2266
    192  O         25.8930   31.1540   17.8480 O.2   261  ASP261     -0.2867
    193  CB        23.1010   32.1760   16.2690 C.3   261  ASP261      0.1410
    194  CG        24.0560   33.3130   15.9340 C.2   261  ASP261      0.3668
    195  OD1       24.6950   33.2640   14.8760 O.co2 261  ASP261     -0.2456
    196  OD2       24.1580   34.2500   16.7540 O.co2 261  ASP261     -0.2456
    197  N         28.8090   30.6590   18.0650 N.3   265  HIS265     -0.1241
    198  CA        29.8170   31.6550   18.4220 C.3   265  HIS265      0.1621
    199  C         30.7520   31.1880   19.5450 C.2   265  HIS265      0.2264
    200  O         31.9570   31.4030   19.4830 O.2   265  HIS265     -0.2867
    201  CB        29.1670   32.9620   18.8690 C.3   265  HIS265      0.0745
    202  CG        28.5310   33.7200   17.7480 C.ar  265  HIS265      0.0817
    203  ND1       29.2660   34.3210   16.7450 N.ar  265  HIS265     -0.2268
    204  CD2       27.2340   33.9890   17.4810 C.ar  265  HIS265      0.1154
    205  CE1       28.4400   34.9240   15.9040 C.ar  265  HIS265      0.1986
    206  NE2       27.2050   34.7480   16.3410 N.ar  265  HIS265     -0.2212
    207  N         13.5430   27.6110    8.4910 N.3   306  VAL306     -0.1245
    208  CA        14.4670   28.3840    7.6630 C.3   306  VAL306      0.1561
    209  C         15.5050   29.1040    8.5320 C.2   306  VAL306      0.2260
    210  O         15.1760   29.6330    9.5930 O.2   306  VAL306     -0.2867
    211  CB        13.6770   29.4080    6.8410 C.3   306  VAL306      0.0252
    212  CG1       12.9880   30.3880    7.7940 C.3   306  VAL306      0.0019
    213  CG2       14.5680   30.1430    5.8620 C.3   306  VAL306      0.0019
    214  N         32.0700   32.4180   13.9890 N.3   414  ASP414     -0.1225
    215  CA        31.4570   33.6700   13.5350 C.3   414  ASP414      0.1805
    216  C         30.9290   33.5130   12.0960 C.2   414  ASP414      0.2597
    217  O         31.1020   32.4610   11.4410 O.2   414  ASP414     -0.2718
    218  CB        32.4290   34.8600   13.7100 C.3   414  ASP414      0.1424
    219  CG        31.7180   36.2080   13.9100 C.2   414  ASP414      0.3668
    220  OD1       30.4630   36.2730   13.8530 O.co2 414  ASP414     -0.2456
    221  OD2       32.4330   37.2230   14.1000 O.co2 414  ASP414     -0.2456
    222  N         30.2960   34.5670   11.5980 N.am  415  HIS415     -0.1975
    223  CA        29.7160   34.5610   10.2670 C.3   415  HIS415      0.1656
    224  C         29.6050   36.0190    9.8140 C.2   415  HIS415      0.2291
    225  O         29.8060   36.9320   10.6120 O.2   415  HIS415     -0.2864
    226  CB        28.2840   33.9690   10.3350 C.3   415  HIS415      0.0771
    227  CG        27.4490   34.6010   11.3990 C.ar  415  HIS415      0.0820
    228  ND1       26.6600   35.7080   11.1650 N.ar  415  HIS415     -0.2267
    229  CD2       27.3340   34.3250   12.7150 C.ar  415  HIS415      0.1154
    230  CE1       26.0750   36.0720   12.2880 C.ar  415  HIS415      0.1986
    231  NE2       26.4630   35.2460   13.2450 N.ar  415  HIS415     -0.2212
    232  N          6.0080   32.9610    0.0450 N.3   453  MET453     -0.1245
    233  CA         5.1780   33.1100    1.2380 C.3   453  MET453      0.1570
    234  C          3.9230   33.9030    0.8630 C.2   453  MET453      0.2261
    235  O          2.8330   33.6450    1.3860 O.2   453  MET453     -0.2867
    236  CB         5.9780   33.7860    2.3720 C.3   453  MET453      0.0387
    237  CG         7.1090   32.8880    2.9060 C.3   453  MET453      0.0595
    238  SD         7.9340   33.5440    4.3700 S.3   453  MET453     -0.1393
    239  CE         8.7210   35.0030    3.6440 C.3   453  MET453      0.0692
@<TRIPOS>BOND
     1   232   233    1
     2   234   233    1
     3   234   235    2
     4   233   236    1
     5   236   237    1
     6   237   238    1
     7    93    92    1
     8    61    60    2
     9   239   238    1
    10    69    68    2
    11    68    67    1
    12    60    59    1
    13    60    66   am
    14    65    63    1
    15    59    58    1
    16    59    62    1
    17    92    91    1
    18    92    94    1
    19    88    87    1
    20    88    91    1
    21    88    89    1
    22    66    67    1
    23    67    70    1
    24    90    89    2
    25    63    62    1
    26    63    64    1
    27    89    95   am
    28   213   211    1
    29   211   208    1
    30   211   212    1
    31    95    96    1
    32    53    52    2
    33    97    98    2
    34    97    96    1
    35   208   207    1
    36   208   209    1
    37     8     6    1
    38    52    51    1
    39    96    99    1
    40     6     5    1
    41    50    51    1
    42    23    24    1
    43   209   210    2
    44    51    54    1
    45     7     5    1
    46    42    41    2
    47    26    25    2
    48     5     2    1
    49    41    40    1
    50   105   107   ar
    51   105   102   ar
    52   107   108   ar
    53   118   119   ar
    54   118   116   ar
    55    99   100    1
    56   119   117   ar
    57   102   100   ar
    58   102   104   ar
    59    24    25    1
    60    24    27    1
    61   108   106   ar
    62   100   101   ar
    63     2     1    1
    64     2     3    1
    65    25    32   am
    66   224   223    1
    67   224   225    2
    68   104   106   ar
    69   104   103   ar
    70    28    27    1
    71    28    29    1
    72   101   103   ar
    73    54    55    1
    74    35    34    2
    75   223   226    1
    76   223   222    1
    77   116   114   ar
    78   226   227    1
    79   117   115   ar
    80    57    55    1
    81    40    39    1
    82    40    43    1
    83    34    39   am
    84    34    33    1
    85    71    72    1
    86     3     4    2
    87    32    33    1
    88    55    56    1
    89    30    29    1
    90    30    31    1
    91   228   227   ar
    92   228   230   ar
    93    33    36    1
    94   114   115   ar
    95   114   113    1
    96   227   229   ar
    97   217   216    2
    98    43    44    1
    99    13    10    1
   100    13    14    1
   101   222   216   am
   102    10     9    1
   103    10    11    1
   104   216   215    1
   105    77    76    2
   106   230   231   ar
   107    72    73    1
   108    72    75    1
   109   113   110    1
   110   156   153    1
   111   229   231   ar
   112    44    46   ar
   113    44    45   ar
   114    36    38    1
   115    36    37    1
   116    76    75    1
   117    76    78   am
   118    73    74    2
   119    11    12    2
   120   153   152    1
   121   153   154    1
   122    46    48   ar
   123   215   218    1
   124   215   214    1
   125    45    47   ar
   126   218   219    1
   127   130   129   ar
   128   130   128   ar
   129   110   109    1
   130   110   111    1
   131    17    16    1
   132    17    18    2
   133   220   219   ar
   134    16    15    1
   135    16    19    1
   136   219   221   ar
   137    21    20   ar
   138   112   111    2
   139   129   127   ar
   140   160   159    2
   141    48    49   ar
   142   154   157   am
   143   154   155    2
   144   128   126   ar
   145   157   158    1
   146    20    22   ar
   147    20    19    1
   148   111   120   am
   149    47    49   ar
   150   195   194   ar
   151   174   176   ar
   152   174   173   ar
   153   127   125   ar
   154   176   178   ar
   155   159   158    1
   156   159   168   am
   157   126   125   ar
   158   158   161    1
   159    86    84    1
   160   125   124    1
   161   205   206   ar
   162   205   203   ar
   163   120   121    1
   164   194   193    1
   165   194   196   ar
   166   161   162    1
   167   172   169    1
   168   172   173    1
   169   169   168    1
   170   169   170    1
   171   173   175   ar
   172   193   190    1
   173   206   204   ar
   174   178   179    1
   175   178   177   ar
   176   190   189    1
   177   190   191    1
   178   164   162   ar
   179   164   166   ar
   180   203   202   ar
   181   121   124    1
   182   121   122    1
   183    79    80    1
   184    83    80    1
   185    83    84    1
   186   162   163   ar
   187    80    81    1
   188    84    85    1
   189   170   171    2
   190   175   177   ar
   191   204   202   ar
   192   166   167   ar
   193   202   201    1
   194   139   137   ar
   195   139   140   ar
   196   192   191    2
   197   197   198    1
   198   137   136   ar
   199   122   123    2
   200   122   131   am
   201   163   165   ar
   202   198   201    1
   203   198   199    1
   204    81    82    2
   205   183   182    2
   206   182   181    1
   207   181   180    1
   208   181   184    1
   209   131   132    1
   210   140   142   ar
   211   140   138   ar
   212   142   144   ar
   213   167   165   ar
   214   136   138   ar
   215   136   135    1
   216   200   199    2
   217   138   141   ar
   218   184   185    1
   219   135   132    1
   220   144   143   ar
   221   132   133    1
   222   134   133    2
   223   141   143   ar
   224   185   186    1
   225   188   186   ar
   226   186   187   ar
   227   150   149    1
   228   145   146    1
   229   146   149    1
   230   146   147    1
   231   149   151    1
   232   147   148    2
