@<TRIPOS>MOLECULE
tmp/3nknA04.pdb
 120 120 0 0 0
SMALL
GASTEIGER

@<TRIPOS>ATOM
      1  N          5.5270   42.6490   22.3060 N.3    28  LEU28      -0.1245
      2  CA         6.5950   43.6570   22.2650 C.3    28  LEU28       0.1561
      3  C          6.5330   44.7770   23.3230 C.2    28  LEU28       0.2260
      4  O          7.3050   45.7380   23.2650 O.2    28  LEU28      -0.2867
      5  CB         6.6810   44.2980   20.8770 C.3    28  LEU28       0.0270
      6  CG         7.6200   43.7190   19.8100 C.3    28  LEU28       0.0019
      7  CD1        7.6740   44.6700   18.6180 C.3    28  LEU28       0.0001
      8  CD2        9.0360   43.4550   20.3420 C.3    28  LEU28       0.0001
      9  N          9.0850   48.4360   24.7280 N.3    32  TYR32      -0.1241
     10  CA         8.6490   49.8250   24.6630 C.3    32  TYR32       0.1605
     11  C          8.3500   50.3840   26.0480 C.2    32  TYR32       0.2264
     12  O          7.8870   51.5230   26.1810 O.2    32  TYR32      -0.2867
     13  CB         7.4120   49.9590   23.7710 C.3    32  TYR32       0.0534
     14  CG         7.7130   49.8100   22.3020 C.ar   32  TYR32      -0.0201
     15  CD1        7.6340   48.5680   21.6790 C.ar   32  TYR32      -0.0009
     16  CD2        8.0890   50.9070   21.5350 C.ar   32  TYR32      -0.0009
     17  CE1        7.9150   48.4240   20.3210 C.ar   32  TYR32       0.0417
     18  CE2        8.3730   50.7750   20.1800 C.ar   32  TYR32       0.0417
     19  CZ         8.2830   49.5320   19.5780 C.ar   32  TYR32       0.1957
     20  OH         8.5670   49.3960   18.2340 O.3    32  TYR32      -0.2866
     21  N         15.5340   40.5110    7.6310 N.3   164  TYR164     -0.1241
     22  CA        14.6750   41.4720    6.9660 C.3   164  TYR164      0.1605
     23  C         14.5800   41.1830    5.4720 C.2   164  TYR164      0.2264
     24  O         13.5620   41.4510    4.8340 O.2   164  TYR164     -0.2867
     25  CB        15.1020   42.9190    7.2720 C.3   164  TYR164      0.0534
     26  CG        13.9930   43.9170    7.0440 C.ar  164  TYR164     -0.0201
     27  CD1       14.1960   45.0340    6.2690 C.ar  164  TYR164     -0.0009
     28  CD2       12.7520   43.7530    7.6450 C.ar  164  TYR164     -0.0009
     29  CE1       13.1520   45.9600    6.0240 C.ar  164  TYR164      0.0417
     30  CE2       11.7060   44.6740    7.4250 C.ar  164  TYR164      0.0417
     31  CZ        11.9260   45.7670    6.6360 C.ar  164  TYR164      0.1957
     32  OH        10.9110   46.6740    6.4340 O.3   164  TYR164     -0.2866
     33  N         16.9700   51.2330   16.7670 N.3   198  LYS198     -0.1231
     34  CA        16.4760   50.2960   15.7540 C.3   198  LYS198      0.1693
     35  C         14.9490   50.2480   15.7320 C.2   198  LYS198      0.2592
     36  O         14.3550   49.8790   14.7330 O.2   198  LYS198     -0.2718
     37  CB        17.0210   48.8890   16.0320 C.3   198  LYS198      0.0285
     38  CG        16.6040   48.3500   17.3920 C.3   198  LYS198      0.0035
     39  CD        16.7910   46.8550   17.4810 C.3   198  LYS198      0.0206
     40  CE        16.3460   46.3180   18.8540 C.3   198  LYS198      0.1093
     41  NZ        17.4140   46.4470   19.9040 N.3   198  LYS198     -0.1314
     42  N         14.3120   50.6250   16.8390 N.am  199  PHE199     -0.1976
     43  CA        12.8480   50.6180   16.8890 C.3   199  PHE199      0.1639
     44  C         12.2320   51.7430   16.0660 C.2   199  PHE199      0.2290
     45  O         11.0580   51.6750   15.7110 O.2   199  PHE199     -0.2864
     46  CB        12.3440   50.6470   18.3440 C.3   199  PHE199      0.0560
     47  CG        12.5820   49.3670   19.0810 C.ar  199  PHE199     -0.0200
     48  CD1       11.7960   48.2600   18.8290 C.ar  199  PHE199     -0.0042
     49  CD2       13.6070   49.2600   19.9960 C.ar  199  PHE199     -0.0042
     50  CE1       12.0170   47.0710   19.4820 C.ar  199  PHE199     -0.0003
     51  CE2       13.8330   48.0750   20.6630 C.ar  199  PHE199     -0.0003
     52  CZ        13.0380   46.9790   20.4090 C.ar  199  PHE199     -0.0000
     53  N         11.1250   53.6840   12.8910 N.3   201  HIS201     -0.1241
     54  CA        10.7390   53.1030   11.6100 C.3   201  HIS201      0.1621
     55  C         11.5210   53.6360   10.4090 C.2   201  HIS201      0.2264
     56  O         11.5460   52.9890    9.3580 O.2   201  HIS201     -0.2867
     57  CB         9.2200   53.1960   11.3930 C.3   201  HIS201      0.0745
     58  CG         8.4370   52.2710   12.2790 C.ar  201  HIS201      0.0817
     59  ND1        7.1640   51.8360   11.9750 N.ar  201  HIS201     -0.2268
     60  CD2        8.7630   51.6840   13.4550 C.ar  201  HIS201      0.1154
     61  CE1        6.7360   51.0270   12.9290 C.ar  201  HIS201      0.1986
     62  NE2        7.6890   50.9180   13.8390 N.ar  201  HIS201     -0.2212
     63  N         13.7550   51.1390    8.3370 N.3   204  TRP204     -0.1241
     64  CA        13.2320   49.9410    7.6870 C.3   204  TRP204      0.1605
     65  C         12.4570   50.2390    6.3950 C.2   204  TRP204      0.2264
     66  O         11.3480   50.7780    6.4570 O.2   204  TRP204     -0.2867
     67  CB        12.3270   49.2030    8.6980 C.3   204  TRP204      0.0550
     68  CG        13.0140   48.9330   10.0160 C.ar  204  TRP204      0.0003
     69  CD1       13.1620   49.8060   11.0730 C.ar  204  TRP204      0.0946
     70  CD2       13.6640   47.7170   10.4100 C.ar  204  TRP204      0.0152
     71  NE1       13.8500   49.1980   12.0890 N.ar  204  TRP204     -0.2442
     72  CE2       14.1740   47.9180   11.7110 C.ar  204  TRP204      0.0810
     73  CE3       13.8690   46.4760    9.7810 C.ar  204  TRP204      0.0012
     74  CZ2       14.8850   46.9260   12.4030 C.ar  204  TRP204      0.0191
     75  CZ3       14.5500   45.4720   10.4870 C.ar  204  TRP204      0.0001
     76  CH2       15.0590   45.7120   11.7810 C.ar  204  TRP204      0.0015
     77  N         11.1900   49.0300    2.1700 N.3   206  GLY206     -0.1225
     78  CA        10.4550   47.9550    1.5250 C.3   206  GLY206      0.1811
     79  C          9.1200   47.7200    2.2200 C.2   206  GLY206      0.2280
     80  O          8.5950   48.5930    2.9300 O.2   206  GLY206     -0.2866
     81  N          7.5950   44.5710    4.4760 N.3   208  PRO208     -0.2116
     82  CA         7.7510   43.2240    5.0350 C.3   208  PRO208      0.1372
     83  C          6.4250   42.4460    4.9890 C.2   208  PRO208      0.2244
     84  O          5.3430   43.0550    4.9200 O.2   208  PRO208     -0.2868
     85  CB         8.1840   43.4880    6.4690 C.3   208  PRO208      0.0268
     86  CG         7.6160   44.8480    6.8030 C.3   208  PRO208      0.0207
     87  CD         7.6480   45.6220    5.5190 C.3   208  PRO208      0.0892
     88  N          4.3920   40.9660    7.0260 N.3   210  TRP210     -0.1227
     89  CA         3.2680   41.2720    7.9280 C.3   210  TRP210      0.1737
     90  C          2.4560   42.4890    7.4770 C.2   210  TRP210      0.2595
     91  O          1.2200   42.5310    7.6450 O.2   210  TRP210     -0.2718
     92  CB         3.7020   41.4320    9.3950 C.3   210  TRP210      0.0564
     93  CG         4.8040   42.4330    9.6450 C.ar  210  TRP210      0.0003
     94  CD1        4.6690   43.7510   10.0070 C.ar  210  TRP210      0.0946
     95  CD2        6.2150   42.1790    9.5800 C.ar  210  TRP210      0.0152
     96  NE1        5.9210   44.3330   10.1480 N.ar  210  TRP210     -0.2442
     97  CE2        6.8780   43.3900    9.8900 C.ar  210  TRP210      0.0810
     98  CE3        6.9760   41.0500    9.2670 C.ar  210  TRP210      0.0012
     99  CZ2        8.2620   43.4900    9.9290 C.ar  210  TRP210      0.0191
    100  CZ3        8.3430   41.1520    9.2860 C.ar  210  TRP210      0.0001
    101  CH2        8.9800   42.3640    9.6140 C.ar  210  TRP210      0.0015
    102  N          3.1510   43.4830    6.9340 N.am  211  ILE211     -0.1980
    103  CA         2.4850   44.6430    6.3510 C.3   211  ILE211      0.1595
    104  C          1.7580   44.3100    5.0390 C.2   211  ILE211      0.2287
    105  O          0.5980   44.7040    4.8460 O.2   211  ILE211     -0.2864
    106  CB         3.4580   45.8070    6.1440 C.3   211  ILE211      0.0276
    107  CG1        4.0410   46.2440    7.4900 C.3   211  ILE211      0.0022
    108  CG2        2.7510   46.9590    5.3960 C.3   211  ILE211      0.0022
    109  CD1        3.0080   46.5830    8.5330 C.3   211  ILE211      0.0001
    110  N          8.0080   39.5550   15.9120 N.3   224  PHE224     -0.1241
    111  CA         9.0760   39.9370   16.8260 C.3   224  PHE224      0.1605
    112  C          8.7890   39.2650   18.1420 C.2   224  PHE224      0.2264
    113  O          7.6400   39.1390   18.5310 O.2   224  PHE224     -0.2867
    114  CB         9.1590   41.4600   16.9780 C.3   224  PHE224      0.0534
    115  CG         9.7870   42.2280   15.8460 C.ar  224  PHE224     -0.0203
    116  CD1       11.1020   42.0100   15.4790 C.ar  224  PHE224     -0.0042
    117  CD2        9.0740   43.1900   15.1420 C.ar  224  PHE224     -0.0042
    118  CE1       11.6890   42.7150   14.4160 C.ar  224  PHE224     -0.0003
    119  CE2        9.6830   43.9140   14.1170 C.ar  224  PHE224     -0.0003
    120  CZ        10.9630   43.6690   13.7640 C.ar  224  PHE224     -0.0000
@<TRIPOS>BOND
     1    78    77    1
     2    78    79    1
     3    79    80    2
     4    81    82    1
     5    81    87    1
     6    24    23    2
     7   105   104    2
     8    84    83    2
     9    83    82    1
    10    82    85    1
    11   104   103    1
    12   108   106    1
    13    23    22    1
    14    87    86    1
    15    29    27   ar
    16    29    31   ar
    17   106   103    1
    18   106   107    1
    19    27    26   ar
    20   103   102    1
    21    65    66    2
    22    65    64    1
    23    32    31    1
    24    85    86    1
    25    31    30   ar
    26   102    90   am
    27    22    25    1
    28    22    21    1
    29    88    89    1
    30    26    25    1
    31    26    28   ar
    32    30    28   ar
    33    90    91    2
    34    90    89    1
    35   107   109    1
    36    64    63    1
    37    64    67    1
    38    89    92    1
    39    67    68    1
    40    98   100   ar
    41    98    95   ar
    42   100   101   ar
    43    56    55    2
    44    92    93    1
    45    95    93   ar
    46    95    97   ar
    47   101    99   ar
    48    93    94   ar
    49    73    70   ar
    50    73    75   ar
    51    97    99   ar
    52    97    96   ar
    53    94    96   ar
    54    68    70   ar
    55    68    69   ar
    56    55    54    1
    57    70    72   ar
    58    75    76   ar
    59    69    71   ar
    60    57    54    1
    61    57    58    1
    62    54    53    1
    63    72    71   ar
    64    72    74   ar
    65    76    74   ar
    66    59    58   ar
    67    59    61   ar
    68    58    60   ar
    69    61    62   ar
    70    60    62   ar
    71   120   119   ar
    72   120   118   ar
    73   119   117   ar
    74   118   116   ar
    75    36    35    2
    76   117   115   ar
    77   116   115   ar
    78    45    44    2
    79    35    34    1
    80    35    42   am
    81    34    37    1
    82    34    33    1
    83   115   114    1
    84   110   111    1
    85    37    38    1
    86    44    43    1
    87   111   114    1
    88   111   112    1
    89    42    43    1
    90    43    46    1
    91    38    39    1
    92    39    40    1
    93   112   113    2
    94    20    19    1
    95    46    47    1
    96     7     6    1
    97    48    47   ar
    98    48    50   ar
    99    40    41    1
   100    47    49   ar
   101    50    52   ar
   102    19    18   ar
   103    19    17   ar
   104     6     8    1
   105     6     5    1
   106    49    51   ar
   107    18    16   ar
   108    17    15   ar
   109    52    51   ar
   110     5     2    1
   111    16    14   ar
   112    15    14   ar
   113     2     1    1
   114     2     3    1
   115    14    13    1
   116     4     3    2
   117    13    10    1
   118    10     9    1
   119    10    11    1
   120    11    12    2
