@<TRIPOS>MOLECULE
tmp/3nknA01.pdb
 197 198 0 0 0
SMALL
GASTEIGER

@<TRIPOS>ATOM
      1  N         13.8850   41.6870   -0.5450 N.3   170  LEU170     -0.1231
      2  CA        14.8050   42.7120   -1.0450 C.3   170  LEU170      0.1693
      3  C         16.2720   42.4740   -0.6440 C.2   170  LEU170      0.2592
      4  O         16.5490   41.9620    0.4480 O.2   170  LEU170     -0.2718
      5  CB        14.4110   44.0980   -0.4890 C.3   170  LEU170      0.0284
      6  CG        13.0330   44.5560   -0.9900 C.3   170  LEU170      0.0019
      7  CD1       12.5770   45.7910   -0.1900 C.3   170  LEU170      0.0001
      8  CD2       13.1560   44.9080   -2.4240 C.3   170  LEU170      0.0001
      9  N         17.1830   42.9030   -1.5050 N.am  171  TYR171     -0.1976
     10  CA        18.5890   43.0490   -1.1100 C.3   171  TYR171      0.1639
     11  C         18.6650   44.0900    0.0120 C.2   171  TYR171      0.2290
     12  O         17.8890   45.0410    0.0270 O.2   171  TYR171     -0.2864
     13  CB        19.4360   43.5280   -2.2800 C.3   171  TYR171      0.0560
     14  CG        19.4510   42.5770   -3.4590 C.ar  171  TYR171     -0.0198
     15  CD1       19.9160   41.2700   -3.3090 C.ar  171  TYR171     -0.0009
     16  CD2       18.9720   42.9720   -4.6870 C.ar  171  TYR171     -0.0009
     17  CE1       19.9300   40.3760   -4.3870 C.ar  171  TYR171      0.0417
     18  CE2       18.9670   42.0830   -5.7830 C.ar  171  TYR171      0.0417
     19  CZ        19.4470   40.7990   -5.6080 C.ar  171  TYR171      0.1957
     20  OH        19.4430   39.9440   -6.6510 O.3   171  TYR171     -0.2866
     21  N         20.6750   46.5160    0.3270 N.3   173  GLU173     -0.1231
     22  CA        20.9380   47.8640   -0.2010 C.3   173  GLU173      0.1699
     23  C         19.6050   48.5430   -0.5130 C.2   173  GLU173      0.2593
     24  O         19.5120   49.7680   -0.5170 O.2   173  GLU173     -0.2718
     25  CB        21.8450   47.8560   -1.4460 C.3   173  GLU173      0.0402
     26  CG        21.1870   47.1700   -2.6900 C.3   173  GLU173      0.1161
     27  CD        22.0130   47.1810   -3.9510 C.2   173  GLU173      0.3649
     28  OE1       23.1410   47.7220   -3.9540 O.co2 173  GLU173     -0.2457
     29  OE2       21.5100   46.6410   -4.9650 O.co2 173  GLU173     -0.2457
     30  N         18.5890   47.7270   -0.7720 N.am  174  SER174     -0.1938
     31  CA        17.2610   48.2260   -1.0530 C.3   174  SER174      0.2055
     32  C         16.3920   48.3390    0.2030 C.2   174  SER174      0.2643
     33  O         15.7390   49.3530    0.3950 O.2   174  SER174     -0.2714
     34  CB        16.5680   47.3820   -2.1600 C.3   174  SER174      0.2130
     35  OG        17.1300   47.6510   -3.4270 O.3   174  SER174     -0.2179
     36  N         16.3800   47.3330    1.0820 N.am  175  HIS175     -0.1959
     37  CA        15.5300   47.4550    2.2630 C.3   175  HIS175      0.1787
     38  C         16.1090   48.3620    3.3770 C.2   175  HIS175      0.2620
     39  O         15.3860   48.8220    4.2780 O.2   175  HIS175     -0.2715
     40  CB        15.0550   46.0770    2.8010 C.3   175  HIS175      0.0785
     41  CG        16.1330   45.1470    3.2920 C.ar  175  HIS175      0.0821
     42  ND1       17.0500   45.4900    4.2600 N.ar  175  HIS175     -0.2267
     43  CD2       16.3300   43.8230    3.0510 C.ar  175  HIS175      0.1154
     44  CE1       17.7860   44.4350    4.5720 C.ar  175  HIS175      0.1986
     45  NE2       17.3840   43.4140    3.8360 N.ar  175  HIS175     -0.2212
     46  N         17.4140   48.6200    3.2770 N.am  176  GLY176     -0.1954
     47  CA        18.0900   49.5410    4.1820 C.3   176  GLY176      0.1869
     48  C         18.8240   48.9730    5.4010 C.2   176  GLY176      0.2309
     49  O         19.5730   49.6960    6.0470 O.2   176  GLY176     -0.2863
     50  N         12.1720   54.7890   10.5690 N.3   202  ARG202     -0.1231
     51  CA        12.9390   55.3890    9.4800 C.3   202  ARG202      0.1694
     52  C         14.0100   54.4440    8.9230 C.2   202  ARG202      0.2592
     53  O         14.4570   54.6200    7.7940 O.2   202  ARG202     -0.2718
     54  CB        13.6120   56.6980    9.9180 C.3   202  ARG202      0.0321
     55  CG        14.6560   56.5440   11.0370 C.3   202  ARG202      0.0489
     56  CD        15.1920   57.9230   11.4580 C.3   202  ARG202      0.2205
     57  NE        16.1080   57.8770   12.5990 N.pl3 202  ARG202     -0.0865
     58  CZ        16.8030   58.9320   13.0250 C.cat 202  ARG202      0.5346
     59  NH1       16.6810   60.0940   12.3930 N.pl3 202  ARG202      0.1354
     60  NH2       17.6280   58.8210   14.0600 N.pl3 202  ARG202      0.1354
     61  N         14.4270   53.4490    9.7010 N.am  203  TRP203     -0.1962
     62  CA        15.5080   52.5670    9.2110 C.3   203  TRP203      0.1771
     63  C         15.0230   51.5260    8.2100 C.2   203  TRP203      0.2620
     64  O         15.7910   51.0590    7.3850 O.2   203  TRP203     -0.2715
     65  CB        16.2220   51.8540   10.3610 C.3   203  TRP203      0.0590
     66  CG        16.9900   52.7950   11.2410 C.ar  203  TRP203      0.0006
     67  CD1       16.5590   53.3620   12.4080 C.ar  203  TRP203      0.0946
     68  CD2       18.3140   53.3020   11.0150 C.ar  203  TRP203      0.0152
     69  NE1       17.5360   54.1870   12.9180 N.ar  203  TRP203     -0.2442
     70  CE2       18.6190   54.1660   12.0840 C.ar  203  TRP203      0.0810
     71  CE3       19.2680   53.1090   10.0140 C.ar  203  TRP203      0.0012
     72  CZ2       19.8430   54.8310   12.1750 C.ar  203  TRP203      0.0191
     73  CZ3       20.4790   53.7660   10.1130 C.ar  203  TRP203      0.0001
     74  CH2       20.7570   54.5990   11.1890 C.ar  203  TRP203      0.0015
     75  N         13.7550   51.1390    8.3370 N.am  204  TRP204     -0.1960
     76  CA        13.2320   49.9410    7.6870 C.3   204  TRP204      0.1771
     77  C         12.4570   50.2390    6.3950 C.2   204  TRP204      0.2620
     78  O         11.3480   50.7780    6.4570 O.2   204  TRP204     -0.2715
     79  CB        12.3270   49.2030    8.6980 C.3   204  TRP204      0.0590
     80  CG        13.0140   48.9330   10.0160 C.ar  204  TRP204      0.0006
     81  CD1       13.1620   49.8060   11.0730 C.ar  204  TRP204      0.0946
     82  CD2       13.6640   47.7170   10.4100 C.ar  204  TRP204      0.0152
     83  NE1       13.8500   49.1980   12.0890 N.ar  204  TRP204     -0.2442
     84  CE2       14.1740   47.9180   11.7110 C.ar  204  TRP204      0.0810
     85  CE3       13.8690   46.4760    9.7810 C.ar  204  TRP204      0.0012
     86  CZ2       14.8850   46.9260   12.4030 C.ar  204  TRP204      0.0191
     87  CZ3       14.5500   45.4720   10.4870 C.ar  204  TRP204      0.0001
     88  CH2       15.0590   45.7120   11.7810 C.ar  204  TRP204      0.0015
     89  N         13.0340   49.9030    5.2410 N.am  205  GLY205     -0.1940
     90  CA        12.3920   50.1280    3.9560 C.3   205  GLY205      0.2014
     91  C         11.6670   48.9050    3.3950 C.2   205  GLY205      0.2639
     92  O         11.5480   47.8710    4.0550 O.2   205  GLY205     -0.2714
     93  N         11.1900   49.0300    2.1700 N.am  206  GLY206     -0.1954
     94  CA        10.4550   47.9550    1.5250 C.3   206  GLY206      0.1869
     95  C          9.1200   47.7200    2.2200 C.2   206  GLY206      0.2309
     96  O          8.5950   48.5930    2.9300 O.2   206  GLY206     -0.2863
     97  N         25.3210   42.5970   -4.7350 N.3   383  HIS383     -0.1241
     98  CA        24.3020   43.6540   -4.7070 C.3   383  HIS383      0.1621
     99  C         24.4540   44.5420   -3.4840 C.2   383  HIS383      0.2264
    100  O         23.4640   44.8920   -2.8360 O.2   383  HIS383     -0.2867
    101  CB        22.8780   43.0520   -4.7980 C.3   383  HIS383      0.0745
    102  CG        22.6260   42.3680   -6.1060 C.ar  383  HIS383      0.0817
    103  ND1       22.3820   43.0730   -7.2670 N.ar  383  HIS383     -0.2268
    104  CD2       22.6220   41.0610   -6.4480 C.ar  383  HIS383      0.1154
    105  CE1       22.2140   42.2220   -8.2650 C.ar  383  HIS383      0.1986
    106  NE2       22.3490   40.9980   -7.7920 N.ar  383  HIS383     -0.2212
    107  N         24.3830   50.1920   -3.4330 N.3   386  ASN386     -0.1225
    108  CA        23.4550   51.3000   -3.6710 C.3   386  ASN386      0.1785
    109  C         22.6510   51.7490   -2.4460 C.2   386  ASN386      0.2597
    110  O         21.4120   51.6770   -2.4180 O.2   386  ASN386     -0.2718
    111  CB        22.5060   50.9680   -4.8320 C.3   386  ASN386      0.1169
    112  CG        21.6490   52.1590   -5.2190 C.2   386  ASN386      0.2627
    113  OD1       22.0930   53.2910   -5.0740 O.2   386  ASN386     -0.2716
    114  ND2       20.4160   51.9150   -5.6960 N.am  386  ASN386     -0.0877
    115  N         23.3550   52.2120   -1.4190 N.am  387  ASN387     -0.1960
    116  CA        22.7290   52.7020   -0.2070 C.3   387  ASN387      0.1819
    117  C         23.7280   53.6170    0.4810 C.2   387  ASN387      0.2621
    118  O         24.9300   53.3030    0.5630 O.2   387  ASN387     -0.2715
    119  CB        22.3610   51.5660    0.7580 C.3   387  ASN387      0.1195
    120  CG        21.3860   52.0240    1.8640 C.2   387  ASN387      0.2630
    121  OD1       21.7670   52.7640    2.7780 O.2   387  ASN387     -0.2716
    122  ND2       20.1290   51.5760    1.7800 N.am  387  ASN387     -0.0877
    123  N         23.2260   54.7370    0.9720 N.am  388  ARG388     -0.1963
    124  CA        24.0810   55.7370    1.6370 C.3   388  ARG388      0.1729
    125  C         24.6640   55.2420    2.9680 C.2   388  ARG388      0.2616
    126  O         25.6360   55.8100    3.4930 O.2   388  ARG388     -0.2715
    127  CB        23.3030   57.0300    1.8770 C.3   388  ARG388      0.0348
    128  CG        22.2280   56.8910    2.8920 C.3   388  ARG388      0.0492
    129  CD        21.3140   58.1150    2.8770 C.3   388  ARG388      0.2205
    130  NE        20.4120   58.1000    4.0180 N.pl3 388  ARG388     -0.0865
    131  CZ        19.2300   58.6980    4.0370 C.cat 388  ARG388      0.5346
    132  NH1       18.8150   59.3660    2.9680 N.pl3 388  ARG388      0.1354
    133  NH2       18.4720   58.6280    5.1220 N.pl3 388  ARG388      0.1354
    134  N         24.1030   54.1630    3.5090 N.am  389  ARG389     -0.1977
    135  CA        24.5940   53.5860    4.7510 C.3   389  ARG389      0.1597
    136  C         25.7240   52.5990    4.5010 C.2   389  ARG389      0.2287
    137  O         26.2810   52.0540    5.4490 O.2   389  ARG389     -0.2864
    138  CB        23.4640   52.8610    5.5050 C.3   389  ARG389      0.0334
    139  CG        22.3080   53.7750    5.8700 C.3   389  ARG389      0.0492
    140  CD        21.0270   52.9970    6.2610 C.3   389  ARG389      0.2205
    141  NE        19.8960   53.9260    6.4280 N.pl3 389  ARG389     -0.0865
    142  CZ        18.6390   53.5320    6.5900 C.cat 389  ARG389      0.5346
    143  NH1       18.3570   52.2380    6.5990 N.pl3 389  ARG389      0.1354
    144  NH2       17.6620   54.4270    6.7460 N.pl3 389  ARG389      0.1354
    145  N          6.8420   45.0200   -4.8750 N.3   463  PRO463     -0.2102
    146  CA         7.9740   44.8560   -5.7870 C.3   463  PRO463      0.1504
    147  C          9.1950   44.3730   -5.0250 C.2   463  PRO463      0.2576
    148  O          9.5270   44.9300   -3.9780 O.2   463  PRO463     -0.2718
    149  CB         8.2070   46.2750   -6.3020 C.3   463  PRO463      0.0282
    150  CG         6.8380   46.9010   -6.2270 C.3   463  PRO463      0.0208
    151  CD         6.2310   46.3570   -4.9940 C.3   463  PRO463      0.0893
    152  N          9.8640   43.3540   -5.5260 N.am  464  ASN464     -0.1961
    153  CA        11.0190   42.8890   -4.7570 C.3   464  ASN464      0.1819
    154  C         12.0550   42.2690   -5.6680 C.2   464  ASN464      0.2621
    155  O         11.8900   42.2950   -6.8860 O.2   464  ASN464     -0.2715
    156  CB        10.5760   41.9310   -3.6550 C.3   464  ASN464      0.1195
    157  CG        10.0220   40.6210   -4.1990 C.2   464  ASN464      0.2630
    158  OD1       10.7590   39.6390   -4.3610 O.2   464  ASN464     -0.2716
    159  ND2        8.7110   40.5920   -4.4540 N.am  464  ASN464     -0.0877
    160  N         13.1260   41.7000   -5.1060 N.am  465  ASN465     -0.1972
    161  CA        14.1860   41.1770   -5.9650 C.3   465  ASN465      0.1688
    162  C         14.1400   39.6920   -6.3230 C.2   465  ASN465      0.2292
    163  O         14.9820   39.2360   -7.0770 O.2   465  ASN465     -0.2864
    164  CB        15.5390   41.5470   -5.3560 C.3   465  ASN465      0.1181
    165  CG        15.6440   43.0460   -5.1180 C.2   465  ASN465      0.2629
    166  OD1       15.7590   43.5110   -3.9800 O.2   465  ASN465     -0.2716
    167  ND2       15.5540   43.8040   -6.2200 N.am  465  ASN465     -0.0877
    168  N         23.7480   50.8200   -9.1490 N.3   666  ASN666     -0.1225
    169  CA        22.4530   50.4240   -8.6250 C.3   666  ASN666      0.1785
    170  C         21.9820   49.0680   -9.1740 C.2   666  ASN666      0.2598
    171  O         20.8810   48.6210   -8.8760 O.2   666  ASN666     -0.2718
    172  CB        21.3970   51.5170   -8.8660 C.3   666  ASN666      0.1169
    173  CG        21.0010   51.6510  -10.3360 C.2   666  ASN666      0.2627
    174  OD1       21.6090   51.0670  -11.2180 O.2   666  ASN666     -0.2716
    175  ND2       19.9680   52.4400  -10.5880 N.am  666  ASN666     -0.0877
    176  N         22.8330   48.4020   -9.9460 N.am  667  GLY667     -0.1942
    177  CA        22.5270   47.0530  -10.3800 C.3   667  GLY667      0.2014
    178  C         21.5870   47.0340  -11.5730 C.2   667  GLY667      0.2638
    179  O         21.1260   45.9610  -12.0090 O.2   667  GLY667     -0.2714
    180  N         21.3300   48.2230  -12.1280 N.am  668  LEU668     -0.1977
    181  CA        20.3290   48.3740  -13.2050 C.3   668  LEU668      0.1596
    182  C         20.9600   49.0540  -14.4180 C.2   668  LEU668      0.2287
    183  O         21.8020   49.9210  -14.2700 O.2   668  LEU668     -0.2864
    184  CB        19.1680   49.2550  -12.7360 C.3   668  LEU668      0.0297
    185  CG        18.3670   48.9160  -11.4700 C.3   668  LEU668      0.0022
    186  CD1       17.3030   49.9700  -11.2170 C.3   668  LEU668      0.0001
    187  CD2       17.7300   47.5410  -11.6170 C.3   668  LEU668      0.0001
    188  N         19.0150   42.4870  -15.3070 N.3   754  HIS754     -0.1241
    189  CA        18.8000   43.7800  -14.6500 C.3   754  HIS754      0.1621
    190  C         19.7470   44.8130  -15.2240 C.2   754  HIS754      0.2264
    191  O         19.3620   45.9460  -15.4730 O.2   754  HIS754     -0.2867
    192  CB        19.0270   43.6990  -13.1400 C.3   754  HIS754      0.0745
    193  CG        18.0370   42.8290  -12.4300 C.ar  754  HIS754      0.0817
    194  ND1       18.3890   42.0010  -11.3810 N.ar  754  HIS754     -0.2268
    195  CD2       16.7060   42.6560  -12.6170 C.ar  754  HIS754      0.1154
    196  CE1       17.3190   41.3540  -10.9560 C.ar  754  HIS754      0.1986
    197  NE2       16.2870   41.7230  -11.6960 N.ar  754  HIS754     -0.2212
@<TRIPOS>BOND
     1   191   190    2
     2   188   189    1
     3   190   189    1
     4   189   192    1
     5   182   183    2
     6   182   181    1
     7   181   184    1
     8   181   180    1
     9   192   193    1
    10   184   185    1
    11   195   193   ar
    12   195   197   ar
    13   193   194   ar
    14   180   178   am
    15   179   178    2
    16   197   196   ar
    17   187   185    1
    18   178   177    1
    19   185   186    1
    20   194   196   ar
    21   174   173    2
    22   175   173   am
    23   177   176    1
    24   173   172    1
    25   176   170   am
    26   170   171    2
    27   170   169    1
    28   168   169    1
    29   172   169    1
    30   105   106   ar
    31   105   103   ar
    32   106   104   ar
    33   103   102   ar
    34   163   162    2
    35   155   154    2
    36    20    19    1
    37   104   102   ar
    38   162   161    1
    39   149   150    1
    40   149   146    1
    41   150   151    1
    42   167   165   am
    43   102   101    1
    44   161   164    1
    45   161   160    1
    46   146   147    1
    47   146   145    1
    48    18    19   ar
    49    18    16   ar
    50   114   112   am
    51   154   160   am
    52   154   153    1
    53    19    17   ar
    54   152   147   am
    55   152   153    1
    56   164   165    1
    57   112   113    2
    58   112   111    1
    59   165   166    2
    60   147   148    2
    61   151   145    1
    62    29    27   ar
    63   111   108    1
    64   101    98    1
    65   153   156    1
    66    97    98    1
    67    98    99    1
    68    16    14   ar
    69   159   157   am
    70    17    15   ar
    71   158   157    2
    72   157   156    1
    73    28    27   ar
    74    27    26    1
    75   108   107    1
    76   108   109    1
    77    99   100    2
    78    14    15   ar
    79    14    13    1
    80    35    34    1
    81    26    25    1
    82   109   110    2
    83   109   115   am
    84     8     6    1
    85    13    10    1
    86    34    31    1
    87     9    10    1
    88     9     3   am
    89    25    22    1
    90   115   116    1
    91    10    11    1
    92    31    30    1
    93    31    32    1
    94     2     3    1
    95     2     1    1
    96     2     5    1
    97     6     5    1
    98     6     7    1
    99    30    23   am
   100     3     4    2
   101    24    23    2
   102    23    22    1
   103   116   117    1
   104   116   119    1
   105    22    21    1
   106    11    12    2
   107    32    33    2
   108    32    36   am
   109   117   118    2
   110   117   123   am
   111   119   120    1
   112   123   124    1
   113    36    37    1
   114    94    93    1
   115    94    95    1
   116   124   127    1
   117   124   125    1
   118   122   120   am
   119   120   121    2
   120   127   128    1
   121    93    91   am
   122    95    96    2
   123    37    40    1
   124    37    38    1
   125    40    41    1
   126   129   128    1
   127   129   130    1
   128   125   126    2
   129   125   134   am
   130   132   131    1
   131    43    41   ar
   132    43    45   ar
   133    46    38   am
   134    46    47    1
   135    41    42   ar
   136    38    39    2
   137    91    90    1
   138    91    92    2
   139   134   135    1
   140    45    44   ar
   141    90    89    1
   142   130   131    2
   143   131   133    1
   144    47    48    1
   145    42    44   ar
   146   136   135    1
   147   136   137    2
   148   135   138    1
   149    89    77   am
   150    48    49    2
   151   138   139    1
   152   139   140    1
   153   140   141    1
   154    77    78    2
   155    77    76    1
   156   141   142    2
   157   142   143    1
   158   142   144    1
   159    64    63    2
   160    76    75    1
   161    76    79    1
   162    53    52    2
   163    63    75   am
   164    63    62    1
   165    79    80    1
   166    52    51    1
   167    52    61   am
   168    62    61    1
   169    62    65    1
   170    51    54    1
   171    51    50    1
   172    85    82   ar
   173    85    87   ar
   174    54    55    1
   175    71    73   ar
   176    71    68   ar
   177    80    82   ar
   178    80    81   ar
   179    73    74   ar
   180    65    66    1
   181    82    84   ar
   182    87    88   ar
   183    68    66   ar
   184    68    70   ar
   185    55    56    1
   186    81    83   ar
   187    74    72   ar
   188    66    67   ar
   189    56    57    1
   190    84    83   ar
   191    84    86   ar
   192    88    86   ar
   193    70    72   ar
   194    70    69   ar
   195    59    58    1
   196    67    69   ar
   197    57    58    2
   198    58    60    1
