@<TRIPOS>MOLECULE
tmp/3nkpA02.pdb
 239 229 0 0 0
SMALL
GASTEIGER

@<TRIPOS>ATOM
      1  N          6.0830   30.2110   10.0930 N.3   117  ILE117     -0.1245
      2  CA         7.4760   30.3390    9.7020 C.3   117  ILE117      0.1561
      3  C          8.2790   30.1050   10.9640 C.2   117  ILE117      0.2260
      4  O          8.1190   30.8210   11.9590 O.2   117  ILE117     -0.2867
      5  CB         7.7660   31.7390    9.1300 C.3   117  ILE117      0.0252
      6  CG1        6.8090   32.0430    7.9700 C.3   117  ILE117      0.0019
      7  CG2        9.2460   31.8610    8.7070 C.3   117  ILE117      0.0019
      8  CD1        6.5220   33.5270    7.7750 C.3   117  ILE117      0.0001
      9  N         11.8470   30.1310   12.3160 N.3   119  SER119     -0.1217
     10  CA        13.1770   30.5910   11.9400 C.3   119  SER119      0.1889
     11  C         14.2070   30.2470   13.0100 C.2   119  SER119      0.2288
     12  O         13.9720   30.4050   14.2000 O.2   119  SER119     -0.2866
     13  CB        13.1860   32.0940   11.6220 C.3   119  SER119      0.2089
     14  OG        12.8150   32.8500   12.7580 O.3   119  SER119     -0.2183
     15  N         18.3110   30.7650   14.1160 N.3   121  ASP121     -0.1239
     16  CA        19.4300   31.6650   13.8780 C.3   121  ASP121      0.1674
     17  C         20.7290   30.8790   13.7920 C.2   121  ASP121      0.2266
     18  O         21.0100   30.0670   14.6600 O.2   121  ASP121     -0.2867
     19  CB        19.5150   32.6710   15.0260 C.3   121  ASP121      0.1410
     20  CG        20.3550   33.8780   14.6690 C.2   121  ASP121      0.3668
     21  OD1       21.4780   33.7030   14.1170 O.co2 121  ASP121     -0.2456
     22  OD2       19.8930   35.0020   14.9380 O.co2 121  ASP121     -0.2456
     23  N         24.8160   38.0900    8.2540 N.3   158  LYS158     -0.1231
     24  CA        24.4670   38.3180    9.6460 C.3   158  LYS158      0.1693
     25  C         22.9440   38.3930    9.8010 C.2   158  LYS158      0.2593
     26  O         22.2000   38.4520    8.8160 O.2   158  LYS158     -0.2718
     27  CB        25.1190   39.6160   10.1250 C.3   158  LYS158      0.0285
     28  CG        26.6630   39.5720   10.0580 C.3   158  LYS158      0.0035
     29  CD        27.3010   39.9170   11.3760 C.3   158  LYS158      0.0206
     30  CE        28.8360   39.9070   11.3170 C.3   158  LYS158      0.1093
     31  NZ        29.3950   40.5100   12.5640 N.3   158  LYS158     -0.1314
     32  N         22.4950   38.4180   11.0430 N.am  159  THR159     -0.1939
     33  CA        21.0770   38.2440   11.3610 C.3   159  THR159      0.2028
     34  C         20.1350   39.3050   10.8490 C.2   159  THR159      0.2642
     35  O         19.1490   38.9900   10.1560 O.2   159  THR159     -0.2714
     36  CB        20.9070   38.2100   12.8720 C.3   159  THR159      0.1808
     37  OG1       21.7840   37.2130   13.3890 O.3   159  THR159     -0.2208
     38  CG2       19.4440   37.9190   13.2510 C.3   159  THR159      0.0379
     39  N         20.3780   40.5510   11.2330 N.am  160  PHE160     -0.1973
     40  CA        19.4300   41.6070   10.8320 C.3   160  PHE160      0.1639
     41  C         19.2150   41.7140    9.3160 C.2   160  PHE160      0.2290
     42  O         18.0610   41.7640    8.8580 O.2   160  PHE160     -0.2864
     43  CB        19.7860   42.9720   11.4420 C.3   160  PHE160      0.0560
     44  CG        19.1520   43.2280   12.7940 C.ar  160  PHE160     -0.0200
     45  CD1       19.4970   42.4550   13.8950 C.ar  160  PHE160     -0.0042
     46  CD2       18.2410   44.2570   12.9650 C.ar  160  PHE160     -0.0042
     47  CE1       18.9250   42.6970   15.1450 C.ar  160  PHE160     -0.0003
     48  CE2       17.6680   44.5090   14.2140 C.ar  160  PHE160     -0.0003
     49  CZ        18.0070   43.7280   15.2990 C.ar  160  PHE160     -0.0000
     50  N         17.2090   38.3740    8.2150 N.3   163  LEU163     -0.1245
     51  CA        15.8230   38.2110    8.6250 C.3   163  LEU163      0.1561
     52  C         14.9680   39.2200    7.8620 C.2   163  LEU163      0.2260
     53  O         13.8740   38.8990    7.4240 O.2   163  LEU163     -0.2867
     54  CB        15.6520   38.3800   10.1280 C.3   163  LEU163      0.0270
     55  CG        16.2410   37.2930   11.0400 C.3   163  LEU163      0.0019
     56  CD1       15.9910   37.6610   12.5190 C.3   163  LEU163      0.0001
     57  CD2       15.6560   35.9250   10.7240 C.3   163  LEU163      0.0001
     58  N         14.4760   37.9810    4.3220 N.3   166  LEU166     -0.1231
     59  CA        13.4250   36.9440    4.3090 C.3   166  LEU166      0.1693
     60  C         12.0320   37.5860    4.3110 C.2   166  LEU166      0.2591
     61  O         11.1400   37.1470    3.5930 O.2   166  LEU166     -0.2718
     62  CB        13.5550   35.9920    5.5050 C.3   166  LEU166      0.0284
     63  CG        14.7420   35.0240    5.4260 C.3   166  LEU166      0.0019
     64  CD1       15.1070   34.4370    6.8000 C.3   166  LEU166      0.0001
     65  CD2       14.4390   33.9090    4.4110 C.3   166  LEU166      0.0001
     66  N         11.8530   38.6260    5.1240 N.am  167  ALA167     -0.1980
     67  CA        10.5220   39.2210    5.2950 C.3   167  ALA167      0.1597
     68  C         10.0740   40.0900    4.1270 C.2   167  ALA167      0.2287
     69  O          8.8680   40.3760    3.9960 O.2   167  ALA167     -0.2864
     70  CB        10.4570   40.0370    6.6180 C.3   167  ALA167      0.0319
     71  N         24.0450   44.5560   10.9870 N.3   180  ASN180     -0.1240
     72  CA        23.5160   44.5320   12.3510 C.3   180  ASN180      0.1653
     73  C         23.7530   45.8830   13.0180 C.2   180  ASN180      0.2266
     74  O         23.0660   46.2610   13.9700 O.2   180  ASN180     -0.2867
     75  CB        24.1980   43.4700   13.2120 C.3   180  ASN180      0.1155
     76  CG        23.7880   42.0570   12.8610 C.2   180  ASN180      0.2627
     77  OD1       22.8300   41.8260   12.1170 O.2   180  ASN180     -0.2716
     78  ND2       24.4970   41.0940   13.4260 N.am  180  ASN180     -0.0877
     79  N         22.2430   46.5300   16.9250 N.3   193  LEU193     -0.1245
     80  CA        21.4480   45.3390   17.1930 C.3   193  LEU193      0.1561
     81  C         20.8300   45.4230   18.5870 C.2   193  LEU193      0.2260
     82  O         19.6970   44.9870   18.8020 O.2   193  LEU193     -0.2867
     83  CB        22.3050   44.0760   17.0600 C.3   193  LEU193      0.0270
     84  CG        21.6030   42.7320   17.2730 C.3   193  LEU193      0.0019
     85  CD1       22.2960   41.6190   16.5010 C.3   193  LEU193      0.0001
     86  CD2       21.4720   42.3680   18.7410 C.3   193  LEU193      0.0001
     87  N          6.4310   41.0380    5.0650 N.3   209  LEU209     -0.1231
     88  CA         5.2810   40.1420    4.9180 C.3   209  LEU209      0.1693
     89  C          4.0830   40.4970    5.7980 C.2   209  LEU209      0.2592
     90  O          2.9300   40.4040    5.3460 O.2   209  LEU209     -0.2718
     91  CB         5.7050   38.6920    5.1560 C.3   209  LEU209      0.0284
     92  CG         4.6270   37.6420    4.8570 C.3   209  LEU209      0.0019
     93  CD1        4.2550   37.6930    3.3850 C.3   209  LEU209      0.0001
     94  CD2        5.0950   36.2410    5.2600 C.3   209  LEU209      0.0001
     95  N          4.3210   40.8790    7.0510 N.am  210  TRP210     -0.1976
     96  CA         3.1870   41.1720    7.9360 C.3   210  TRP210      0.1640
     97  C          2.3890   42.4030    7.5010 C.2   210  TRP210      0.2290
     98  O          1.1560   42.4390    7.6490 O.2   210  TRP210     -0.2864
     99  CB         3.6060   41.2970    9.4000 C.3   210  TRP210      0.0576
    100  CG         4.6980   42.2920    9.6740 C.ar  210  TRP210      0.0006
    101  CD1        4.5510   43.5920   10.0730 C.ar  210  TRP210      0.0946
    102  CD2        6.1150   42.0490    9.6130 C.ar  210  TRP210      0.0152
    103  NE1        5.7920   44.1750   10.2510 N.ar  210  TRP210     -0.2442
    104  CE2        6.7640   43.2490    9.9720 C.ar  210  TRP210      0.0810
    105  CE3        6.8920   40.9350    9.2750 C.ar  210  TRP210      0.0012
    106  CZ2        8.1540   43.3620   10.0220 C.ar  210  TRP210      0.0191
    107  CZ3        8.2710   41.0530    9.3090 C.ar  210  TRP210      0.0001
    108  CH2        8.8860   42.2550    9.6880 C.ar  210  TRP210      0.0015
    109  N          5.5830   39.0350   14.5410 N.3   223  PHE223     -0.1227
    110  CA         6.8150   38.5730   13.9310 C.3   223  PHE223      0.1736
    111  C          7.9790   39.0130   14.7880 C.2   223  PHE223      0.2595
    112  O          9.1360   38.9750   14.3600 O.2   223  PHE223     -0.2718
    113  CB         6.9490   39.1100   12.5190 C.3   223  PHE223      0.0547
    114  CG         6.2140   38.2980   11.4970 C.ar  223  PHE223     -0.0202
    115  CD1        4.8500   38.0890   11.6090 C.ar  223  PHE223     -0.0042
    116  CD2        6.8870   37.7570   10.4150 C.ar  223  PHE223     -0.0042
    117  CE1        4.1700   37.3440   10.6580 C.ar  223  PHE223     -0.0003
    118  CE2        6.2140   37.0150    9.4610 C.ar  223  PHE223     -0.0003
    119  CZ         4.8480   36.8150    9.5840 C.ar  223  PHE223     -0.0000
    120  N          7.6590   39.4460   16.0030 N.am  224  PHE224     -0.1962
    121  CA         8.6760   39.8350   16.9550 C.3   224  PHE224      0.1771
    122  C          8.3750   39.1790   18.2850 C.2   224  PHE224      0.2619
    123  O          7.2260   39.0940   18.6940 O.2   224  PHE224     -0.2715
    124  CB         8.7230   41.3560   17.1040 C.3   224  PHE224      0.0574
    125  CG         9.0140   42.0880   15.8140 C.ar  224  PHE224     -0.0200
    126  CD1       10.1620   41.8140   15.1370 C.ar  224  PHE224     -0.0042
    127  CD2        8.0580   42.9380   15.2730 C.ar  224  PHE224     -0.0042
    128  CE1       10.4440   42.4450   13.9270 C.ar  224  PHE224     -0.0003
    129  CE2        8.3270   43.5400   14.0580 C.ar  224  PHE224     -0.0003
    130  CZ         9.5110   43.2340   13.3780 C.ar  224  PHE224     -0.0000
    131  N          9.4170   38.7010   18.9540 N.am  225  TRP225     -0.1974
    132  CA         9.2760   38.1960   20.3080 C.3   225  TRP225      0.1640
    133  C         10.3250   38.8410   21.1980 C.2   225  TRP225      0.2290
    134  O         11.4970   38.9270   20.8210 O.2   225  TRP225     -0.2864
    135  CB         9.4710   36.6800   20.3430 C.3   225  TRP225      0.0576
    136  CG         8.4940   35.9010   19.5280 C.ar  225  TRP225      0.0006
    137  CD1        8.6660   35.4560   18.2470 C.ar  225  TRP225      0.0946
    138  CD2        7.1960   35.4470   19.9410 C.ar  225  TRP225      0.0152
    139  NE1        7.5540   34.7570   17.8380 N.ar  225  TRP225     -0.2442
    140  CE2        6.6380   34.7400   18.8590 C.ar  225  TRP225      0.0810
    141  CE3        6.4510   35.5730   21.1190 C.ar  225  TRP225      0.0012
    142  CZ2        5.3670   34.1560   18.9200 C.ar  225  TRP225      0.0191
    143  CZ3        5.1900   34.9970   21.1770 C.ar  225  TRP225      0.0001
    144  CH2        4.6590   34.3020   20.0800 C.ar  225  TRP225      0.0015
    145  N         13.0450   39.0580   23.9350 N.3   227  VAL227     -0.1245
    146  CA        14.0520   38.0680   24.2880 C.3   227  VAL227      0.1561
    147  C         13.7320   37.3470   25.5990 C.2   227  VAL227      0.2260
    148  O         14.1720   36.2190   25.8170 O.2   227  VAL227     -0.2867
    149  CB        15.4560   38.7020   24.3820 C.3   227  VAL227      0.0252
    150  CG1       15.7800   39.4440   23.0940 C.3   227  VAL227      0.0019
    151  CG2       15.5360   39.6390   25.5750 C.3   227  VAL227      0.0019
    152  N          6.4780   30.9660   23.5020 N.3   234  ARG234     -0.1245
    153  CA         6.2240   31.4070   22.1380 C.3   234  ARG234      0.1563
    154  C          5.3910   30.3630   21.4160 C.2   234  ARG234      0.2260
    155  O          4.4470   30.6910   20.7020 O.2   234  ARG234     -0.2867
    156  CB         7.5430   31.6600   21.3850 C.3   234  ARG234      0.0307
    157  CG         8.4510   32.6590   22.0970 C.3   234  ARG234      0.0489
    158  CD         9.7920   32.8430   21.3720 C.3   234  ARG234      0.2205
    159  NE        10.6840   33.6080   22.2310 N.pl3 234  ARG234     -0.0865
    160  CZ        11.8830   34.0600   21.8860 C.cat 234  ARG234      0.5346
    161  NH1       12.3810   33.8280   20.6720 N.pl3 234  ARG234      0.1354
    162  NH2       12.5880   34.7470   22.7740 N.pl3 234  ARG234      0.1354
    163  N          4.9670   33.4890   13.0020 N.3   254  ALA254     -0.1245
    164  CA         6.4150   33.3360   12.9950 C.3   254  ALA254      0.1562
    165  C          6.9010   32.9560   14.3830 C.2   254  ALA254      0.2260
    166  O          6.5000   33.5430   15.3980 O.2   254  ALA254     -0.2867
    167  CB         7.0810   34.6250   12.5610 C.3   254  ALA254      0.0290
    168  N         10.7540   32.4220   16.2830 N.3   256  TYR256     -0.1241
    169  CA        12.1820   32.6660   16.1440 C.3   256  TYR256      0.1605
    170  C         12.9480   32.0860   17.3300 C.2   256  TYR256      0.2264
    171  O         12.5320   32.2260   18.4800 O.2   256  TYR256     -0.2867
    172  CB        12.4620   34.1580   15.9960 C.3   256  TYR256      0.0534
    173  CG        13.9230   34.5120   16.1770 C.ar  256  TYR256     -0.0201
    174  CD1       14.8270   34.3610   15.1290 C.ar  256  TYR256     -0.0009
    175  CD2       14.3990   34.9880   17.3990 C.ar  256  TYR256     -0.0009
    176  CE1       16.1920   34.6850   15.2960 C.ar  256  TYR256      0.0417
    177  CE2       15.7540   35.3060   17.5790 C.ar  256  TYR256      0.0417
    178  CZ        16.6350   35.1530   16.5240 C.ar  256  TYR256      0.1957
    179  OH        17.9640   35.4710   16.7080 O.3   256  TYR256     -0.2866
    180  N         16.9910   32.0370   18.8640 N.3   258  GLU258     -0.1245
    181  CA        18.3350   32.6080   18.7640 C.3   258  GLU258      0.1567
    182  C         19.4070   31.5250   18.6600 C.2   258  GLU258      0.2260
    183  O         20.5850   31.8190   18.4290 O.2   258  GLU258     -0.2867
    184  CB        18.6110   33.4840   19.9750 C.3   258  GLU258      0.0388
    185  CG        18.8210   32.7090   21.2580 C.3   258  GLU258      0.1160
    186  CD        17.5250   32.1940   21.9030 C.2   258  GLU258      0.3649
    187  OE1       17.6400   31.3260   22.8070 O.co2 258  GLU258     -0.2457
    188  OE2       16.4070   32.6490   21.5210 O.co2 258  GLU258     -0.2457
    189  N         22.7390   29.7410   16.8630 N.3   261  ASP261     -0.1239
    190  CA        23.7130   30.8070   16.6760 C.3   261  ASP261      0.1674
    191  C         24.5650   31.0400   17.9180 C.2   261  ASP261      0.2266
    192  O         25.8000   31.0860   17.8370 O.2   261  ASP261     -0.2867
    193  CB        23.0050   32.1080   16.2750 C.3   261  ASP261      0.1410
    194  CG        23.9810   33.2310   15.9350 C.2   261  ASP261      0.3668
    195  OD1       24.5840   33.1870   14.8430 O.co2 261  ASP261     -0.2456
    196  OD2       24.1240   34.1570   16.7660 O.co2 261  ASP261     -0.2456
    197  N         28.7380   30.5390   18.0230 N.3   265  HIS265     -0.1241
    198  CA        29.7600   31.5230   18.3890 C.3   265  HIS265      0.1621
    199  C         30.6940   31.0250   19.4790 C.2   265  HIS265      0.2264
    200  O         31.9050   31.1940   19.3880 O.2   265  HIS265     -0.2867
    201  CB        29.1210   32.8240   18.8640 C.3   265  HIS265      0.0745
    202  CG        28.5260   33.6280   17.7530 C.ar  265  HIS265      0.0817
    203  ND1       29.3010   34.2680   16.8110 N.ar  265  HIS265     -0.2268
    204  CD2       27.2370   33.8660   17.4120 C.ar  265  HIS265      0.1154
    205  CE1       28.5120   34.8820   15.9430 C.ar  265  HIS265      0.1986
    206  NE2       27.2580   34.6580   16.2920 N.ar  265  HIS265     -0.2212
    207  N         13.4230   27.5060    8.5130 N.3   306  VAL306     -0.1245
    208  CA        14.3540   28.3050    7.7170 C.3   306  VAL306      0.1561
    209  C         15.3840   29.0310    8.5820 C.2   306  VAL306      0.2260
    210  O         15.0630   29.5340    9.6570 O.2   306  VAL306     -0.2867
    211  CB        13.5710   29.3250    6.8650 C.3   306  VAL306      0.0252
    212  CG1       12.9100   30.3530    7.7680 C.3   306  VAL306      0.0019
    213  CG2       14.4740   29.9880    5.8390 C.3   306  VAL306      0.0019
    214  N         32.0180   32.2930   13.9860 N.3   414  ASP414     -0.1225
    215  CA        31.3780   33.5340   13.5320 C.3   414  ASP414      0.1805
    216  C         30.8760   33.3870   12.0880 C.2   414  ASP414      0.2597
    217  O         31.1030   32.3720   11.4230 O.2   414  ASP414     -0.2718
    218  CB        32.3490   34.7170   13.6460 C.3   414  ASP414      0.1424
    219  CG        31.6540   36.0710   13.8750 C.2   414  ASP414      0.3668
    220  OD1       30.3970   36.1740   13.8350 O.co2 414  ASP414     -0.2456
    221  OD2       32.4020   37.0660   14.0830 O.co2 414  ASP414     -0.2456
    222  N         30.2210   34.4370   11.5970 N.am  415  HIS415     -0.1975
    223  CA        29.6450   34.4420   10.2690 C.3   415  HIS415      0.1656
    224  C         29.5340   35.9110    9.8580 C.2   415  HIS415      0.2291
    225  O         29.7400   36.8100   10.6820 O.2   415  HIS415     -0.2864
    226  CB        28.2460   33.8310   10.3400 C.3   415  HIS415      0.0771
    227  CG        27.4060   34.4540   11.4040 C.ar  415  HIS415      0.0820
    228  ND1       26.6020   35.5490   11.1720 N.ar  415  HIS415     -0.2267
    229  CD2       27.2920   34.1760   12.7230 C.ar  415  HIS415      0.1154
    230  CE1       26.0130   35.9050   12.2980 C.ar  415  HIS415      0.1986
    231  NE2       26.4140   35.0900   13.2540 N.ar  415  HIS415     -0.2212
    232  N          5.9000   32.8990    0.0550 N.3   453  MET453     -0.1245
    233  CA         5.0610   33.0510    1.2390 C.3   453  MET453      0.1570
    234  C          3.7960   33.8210    0.8880 C.2   453  MET453      0.2261
    235  O          2.7100   33.5220    1.3980 O.2   453  MET453     -0.2867
    236  CB         5.8350   33.7090    2.3930 C.3   453  MET453      0.0387
    237  CG         6.9810   32.8190    2.8650 C.3   453  MET453      0.0595
    238  SD         7.8160   33.4610    4.3090 S.3   453  MET453     -0.1393
    239  CE         8.6570   34.8640    3.5470 C.3   453  MET453      0.0692
@<TRIPOS>BOND
     1   232   233    1
     2   234   233    1
     3   234   235    2
     4   233   236    1
     5   236   237    1
     6   237   238    1
     7    93    92    1
     8   239   238    1
     9    61    60    2
    10    69    68    2
    11    68    67    1
    12    59    60    1
    13    59    58    1
    14    59    62    1
    15    60    66   am
    16    65    63    1
    17    92    91    1
    18    92    94    1
    19    88    87    1
    20    88    91    1
    21    88    89    1
    22    66    67    1
    23    67    70    1
    24    90    89    2
    25    63    62    1
    26    63    64    1
    27    89    95   am
    28   213   211    1
    29   211   208    1
    30   211   212    1
    31    95    96    1
    32    53    52    2
    33    97    98    2
    34    97    96    1
    35   208   207    1
    36   208   209    1
    37     8     6    1
    38    52    51    1
    39    96    99    1
    40     6     5    1
    41    50    51    1
    42    23    24    1
    43   209   210    2
    44    51    54    1
    45     7     5    1
    46    26    25    2
    47    42    41    2
    48     5     2    1
    49   105   107   ar
    50   105   102   ar
    51   107   108   ar
    52    41    40    1
    53    99   100    1
    54   118   119   ar
    55   118   116   ar
    56   119   117   ar
    57   102   100   ar
    58   102   104   ar
    59    24    25    1
    60    24    27    1
    61   100   101   ar
    62   108   106   ar
    63     2     1    1
    64     2     3    1
    65    25    32   am
    66   224   223    1
    67   224   225    2
    68   104   106   ar
    69   104   103   ar
    70    28    27    1
    71    28    29    1
    72   101   103   ar
    73    54    55    1
    74    35    34    2
    75   223   226    1
    76   223   222    1
    77   226   227    1
    78   116   114   ar
    79   117   115   ar
    80    57    55    1
    81    40    39    1
    82    40    43    1
    83    34    39   am
    84    34    33    1
    85     3     4    2
    86    71    72    1
    87    55    56    1
    88    32    33    1
    89   228   227   ar
    90   228   230   ar
    91    30    29    1
    92    30    31    1
    93    33    36    1
    94   227   229   ar
    95   217   216    2
    96    43    44    1
    97   114   115   ar
    98   114   113    1
    99   222   216   am
   100    13    10    1
   101    13    14    1
   102    10     9    1
   103    10    11    1
   104   216   215    1
   105    77    76    2
   106   230   231   ar
   107    72    73    1
   108    72    75    1
   109   113   110    1
   110   167   164    1
   111   229   231   ar
   112    44    46   ar
   113    44    45   ar
   114    76    75    1
   115    76    78   am
   116    36    38    1
   117    36    37    1
   118    46    48   ar
   119   164   163    1
   120   164   165    1
   121    11    12    2
   122    73    74    2
   123   130   128   ar
   124   130   129   ar
   125   215   218    1
   126   215   214    1
   127   218   219    1
   128    17    16    1
   129    17    18    2
   130   220   219   ar
   131   219   221   ar
   132    16    15    1
   133    16    19    1
   134    45    47   ar
   135   128   126   ar
   136   110   109    1
   137   110   111    1
   138   129   127   ar
   139    21    20   ar
   140    48    49   ar
   141   112   111    2
   142   165   166    2
   143    20    22   ar
   144    20    19    1
   145   111   120   am
   146   195   194   ar
   147   174   176   ar
   148   174   173   ar
   149   126   125   ar
   150    47    49   ar
   151   127   125   ar
   152   176   178   ar
   153   125   124    1
   154   194   193    1
   155   194   196   ar
   156   205   206   ar
   157   205   203   ar
   158   172   169    1
   159   172   173    1
   160   120   121    1
   161   169   168    1
   162   169   170    1
   163   173   175   ar
   164   193   190    1
   165   206   204   ar
   166    85    84    1
   167   178   179    1
   168   178   177   ar
   169   190   189    1
   170   190   191    1
   171   203   202   ar
   172    79    80    1
   173   121   124    1
   174   121   122    1
   175    83    80    1
   176    83    84    1
   177    80    81    1
   178    84    86    1
   179   170   171    2
   180   175   177   ar
   181   204   202   ar
   182   202   201    1
   183   192   191    2
   184   139   137   ar
   185   139   140   ar
   186   197   198    1
   187   137   136   ar
   188   122   123    2
   189   122   131   am
   190   198   201    1
   191   198   199    1
   192   183   182    2
   193    81    82    2
   194   182   181    1
   195   181   180    1
   196   181   184    1
   197   140   142   ar
   198   140   138   ar
   199   142   144   ar
   200   131   132    1
   201   200   199    2
   202   136   138   ar
   203   136   135    1
   204   138   141   ar
   205   184   185    1
   206   144   143   ar
   207   132   135    1
   208   132   133    1
   209   161   160    1
   210   155   154    2
   211   134   133    2
   212   141   143   ar
   213   185   186    1
   214   158   157    1
   215   158   159    1
   216   156   157    1
   217   156   153    1
   218   154   153    1
   219   188   186   ar
   220   160   159    2
   221   160   162    1
   222   186   187   ar
   223   153   152    1
   224   150   149    1
   225   145   146    1
   226   146   149    1
   227   146   147    1
   228   149   151    1
   229   147   148    2
