@<TRIPOS>MOLECULE
tmp/3nkqA02.pdb
 244 236 0 0 0
SMALL
GASTEIGER

@<TRIPOS>ATOM
      1  N          6.1100   30.2210   10.0820 N.3   117  ILE117     -0.1245
      2  CA         7.5170   30.3290    9.6830 C.3   117  ILE117      0.1561
      3  C          8.3050   30.0900   10.9660 C.2   117  ILE117      0.2260
      4  O          8.1510   30.8120   11.9420 O.2   117  ILE117     -0.2867
      5  CB         7.8110   31.7360    9.1070 C.3   117  ILE117      0.0252
      6  CG1        6.8760   32.0280    7.9270 C.3   117  ILE117      0.0019
      7  CG2        9.3040   31.8850    8.7140 C.3   117  ILE117      0.0019
      8  CD1        6.4620   33.5030    7.7950 C.3   117  ILE117      0.0001
      9  N         11.8420   30.1450   12.3280 N.3   119  SER119     -0.1217
     10  CA        13.1730   30.6070   11.9140 C.3   119  SER119      0.1889
     11  C         14.1900   30.2870   12.9930 C.2   119  SER119      0.2288
     12  O         13.9220   30.4260   14.1840 O.2   119  SER119     -0.2866
     13  CB        13.1720   32.1090   11.5680 C.3   119  SER119      0.2089
     14  OG        12.7430   32.8680   12.6850 O.3   119  SER119     -0.2183
     15  N         18.3330   30.8190   14.1470 N.3   121  ASP121     -0.1239
     16  CA        19.4590   31.7180   13.8910 C.3   121  ASP121      0.1674
     17  C         20.7470   30.9140   13.7920 C.2   121  ASP121      0.2266
     18  O         21.0090   30.0630   14.6370 O.2   121  ASP121     -0.2867
     19  CB        19.5570   32.7450   15.0370 C.3   121  ASP121      0.1410
     20  CG        20.3270   33.9710   14.6280 C.2   121  ASP121      0.3668
     21  OD1       21.4290   33.7980   14.0640 O.co2 121  ASP121     -0.2456
     22  OD2       19.8310   35.0960   14.8370 O.co2 121  ASP121     -0.2456
     23  N         24.8350   38.1720    8.1960 N.3   158  LYS158     -0.1231
     24  CA        24.4810   38.3920    9.5860 C.3   158  LYS158      0.1693
     25  C         22.9690   38.4650    9.7460 C.2   158  LYS158      0.2593
     26  O         22.2170   38.4610    8.7750 O.2   158  LYS158     -0.2718
     27  CB        25.1310   39.6750   10.0810 C.3   158  LYS158      0.0285
     28  CG        26.6640   39.5440   10.0860 C.3   158  LYS158      0.0035
     29  CD        27.3080   40.1980   11.2510 C.3   158  LYS158      0.0206
     30  CE        28.8260   39.9620   11.2830 C.3   158  LYS158      0.1093
     31  NZ        29.4270   40.6080   12.4730 N.3   158  LYS158     -0.1314
     32  N         22.5410   38.5280   11.0010 N.am  159  THR159     -0.1939
     33  CA        21.1230   38.3120   11.3180 C.3   159  THR159      0.2028
     34  C         20.1640   39.3560   10.8100 C.2   159  THR159      0.2642
     35  O         19.1690   39.0290   10.1220 O.2   159  THR159     -0.2714
     36  CB        20.9530   38.2640   12.8080 C.3   159  THR159      0.1808
     37  OG1       21.7980   37.2310   13.2830 O.3   159  THR159     -0.2208
     38  CG2       19.4640   37.9700   13.1700 C.3   159  THR159      0.0379
     39  N         20.4200   40.6080   11.1520 N.am  160  PHE160     -0.1973
     40  CA        19.4560   41.6480   10.7680 C.3   160  PHE160      0.1639
     41  C         19.2440   41.7610    9.2550 C.2   160  PHE160      0.2290
     42  O         18.0880   41.8200    8.7910 O.2   160  PHE160     -0.2864
     43  CB        19.8260   43.0070   11.3830 C.3   160  PHE160      0.0560
     44  CG        19.2300   43.2250   12.7580 C.ar  160  PHE160     -0.0200
     45  CD1       19.8020   42.6530   13.8810 C.ar  160  PHE160     -0.0042
     46  CD2       18.1110   44.0250   12.9160 C.ar  160  PHE160     -0.0042
     47  CE1       19.2400   42.8790   15.1560 C.ar  160  PHE160     -0.0003
     48  CE2       17.5610   44.2560   14.1760 C.ar  160  PHE160     -0.0003
     49  CZ        18.1080   43.6820   15.2820 C.ar  160  PHE160     -0.0000
     50  N         17.2360   38.3340    8.1550 N.3   163  LEU163     -0.1231
     51  CA        15.8360   38.1980    8.5790 C.3   163  LEU163      0.1693
     52  C         14.9930   39.2270    7.8380 C.2   163  LEU163      0.2592
     53  O         13.8750   38.9120    7.4340 O.2   163  LEU163     -0.2718
     54  CB        15.6760   38.3360   10.0840 C.3   163  LEU163      0.0284
     55  CG        16.2740   37.2430   10.9900 C.3   163  LEU163      0.0019
     56  CD1       16.0260   37.5850   12.4680 C.3   163  LEU163      0.0001
     57  CD2       15.6740   35.9010   10.6600 C.3   163  LEU163      0.0001
     58  N         15.4830   40.4560    7.6750 N.am  164  TYR164     -0.1976
     59  CA        14.6210   41.4200    6.9720 C.3   164  TYR164      0.1639
     60  C         14.5310   41.1160    5.4670 C.2   164  TYR164      0.2290
     61  O         13.5140   41.3860    4.8280 O.2   164  TYR164     -0.2864
     62  CB        15.0830   42.8760    7.1960 C.3   164  TYR164      0.0560
     63  CG        13.9560   43.8750    6.9990 C.ar  164  TYR164     -0.0198
     64  CD1       14.1340   45.0030    6.2030 C.ar  164  TYR164     -0.0009
     65  CD2       12.7320   43.6770    7.6120 C.ar  164  TYR164     -0.0009
     66  CE1       13.0980   45.9480    6.0220 C.ar  164  TYR164      0.0417
     67  CE2       11.6770   44.6040    7.4280 C.ar  164  TYR164      0.0417
     68  CZ        11.8760   45.7160    6.6390 C.ar  164  TYR164      0.1957
     69  OH        10.8290   46.6150    6.4660 O.3   164  TYR164     -0.2866
     70  N         14.4870   37.9600    4.3230 N.3   166  LEU166     -0.1231
     71  CA        13.4180   36.9300    4.3160 C.3   166  LEU166      0.1693
     72  C         12.0360   37.6030    4.3030 C.2   166  LEU166      0.2591
     73  O         11.1590   37.2000    3.5410 O.2   166  LEU166     -0.2718
     74  CB        13.5320   35.9800    5.5090 C.3   166  LEU166      0.0284
     75  CG        14.6830   34.9780    5.3530 C.3   166  LEU166      0.0019
     76  CD1       14.9500   34.2790    6.6980 C.3   166  LEU166      0.0001
     77  CD2       14.3060   33.9560    4.2720 C.3   166  LEU166      0.0001
     78  N         11.8480   38.6350    5.1280 N.am  167  ALA167     -0.1980
     79  CA        10.5270   39.2690    5.2730 C.3   167  ALA167      0.1597
     80  C         10.0840   40.1020    4.0830 C.2   167  ALA167      0.2287
     81  O          8.8880   40.3770    3.9560 O.2   167  ALA167     -0.2864
     82  CB        10.4520   40.1480    6.5560 C.3   167  ALA167      0.0319
     83  N         24.0190   44.6080   10.9130 N.3   180  ASN180     -0.1240
     84  CA        23.5580   44.6040   12.3160 C.3   180  ASN180      0.1653
     85  C         23.8360   45.9520   12.9660 C.2   180  ASN180      0.2266
     86  O         23.1680   46.3450   13.9270 O.2   180  ASN180     -0.2867
     87  CB        24.2300   43.5270   13.1730 C.3   180  ASN180      0.1155
     88  CG        23.7640   42.1160   12.8510 C.2   180  ASN180      0.2627
     89  OD1       22.8010   41.9130   12.1280 O.2   180  ASN180     -0.2716
     90  ND2       24.4650   41.1340   13.3910 N.am  180  ASN180     -0.0877
     91  N         22.2810   46.5580   17.1270 N.3   193  LEU193     -0.1231
     92  CA        21.4950   45.4390   17.6400 C.3   193  LEU193      0.1693
     93  C         20.8800   45.8310   18.9590 C.2   193  LEU193      0.2591
     94  O         19.6820   45.6490   19.1960 O.2   193  LEU193     -0.2718
     95  CB        22.4060   44.2570   17.9370 C.3   193  LEU193      0.0284
     96  CG        23.0580   43.4250   16.8440 C.3   193  LEU193      0.0019
     97  CD1       24.2500   42.7350   17.4670 C.3   193  LEU193      0.0001
     98  CD2       22.0840   42.4020   16.3060 C.3   193  LEU193      0.0001
     99  N         21.7400   46.3370   19.8330 N.am  194  ARG194     -0.1980
    100  CA        21.3570   46.7510   21.1660 C.3   194  ARG194      0.1597
    101  C         20.9140   48.1960   21.1360 C.2   194  ARG194      0.2287
    102  O         21.4740   49.0090   20.4090 O.2   194  ARG194     -0.2864
    103  CB        22.5580   46.6160   22.1130 C.3   194  ARG194      0.0334
    104  CG        23.2300   45.2420   22.1280 C.3   194  ARG194      0.0492
    105  CD        22.6730   44.3390   23.2210 C.3   194  ARG194      0.2205
    106  NE        21.2870   43.9520   22.9750 N.pl3 194  ARG194     -0.0865
    107  CZ        20.9110   43.0210   22.1120 C.cat 194  ARG194      0.5346
    108  NH1       21.8190   42.3660   21.4050 N.pl3 194  ARG194      0.1354
    109  NH2       19.6300   42.7190   21.9710 N.pl3 194  ARG194      0.1354
    110  N         13.6870   51.1820    8.2740 N.3   204  TRP204     -0.1241
    111  CA        13.1670   49.9560    7.6730 C.3   204  TRP204      0.1605
    112  C         12.3700   50.1870    6.3840 C.2   204  TRP204      0.2264
    113  O         11.2290   50.6820    6.4440 O.2   204  TRP204     -0.2867
    114  CB        12.2960   49.2060    8.7000 C.3   204  TRP204      0.0550
    115  CG        12.9820   48.9320   10.0200 C.ar  204  TRP204      0.0003
    116  CD1       13.1290   49.8100   11.0770 C.ar  204  TRP204      0.0946
    117  CD2       13.6250   47.7070   10.4320 C.ar  204  TRP204      0.0152
    118  NE1       13.8160   49.2090   12.0930 N.ar  204  TRP204     -0.2442
    119  CE2       14.1310   47.9220   11.7390 C.ar  204  TRP204      0.0810
    120  CE3       13.8150   46.4570    9.8310 C.ar  204  TRP204      0.0012
    121  CZ2       14.8310   46.9400   12.4440 C.ar  204  TRP204      0.0191
    122  CZ3       14.5020   45.4610   10.5530 C.ar  204  TRP204      0.0001
    123  CH2       14.9960   45.7130   11.8480 C.ar  204  TRP204      0.0015
    124  N          6.4780   41.0350    5.0650 N.3   209  LEU209     -0.1231
    125  CA         5.3270   40.1640    4.8650 C.3   209  LEU209      0.1693
    126  C          4.1310   40.5110    5.7490 C.2   209  LEU209      0.2592
    127  O          2.9640   40.4250    5.2880 O.2   209  LEU209     -0.2718
    128  CB         5.7410   38.7100    5.0790 C.3   209  LEU209      0.0284
    129  CG         4.6340   37.6860    4.8100 C.3   209  LEU209      0.0019
    130  CD1        4.3140   37.6510    3.3280 C.3   209  LEU209      0.0001
    131  CD2        5.0800   36.3190    5.3090 C.3   209  LEU209      0.0001
    132  N          4.3750   40.8770    7.0040 N.am  210  TRP210     -0.1976
    133  CA         3.2470   41.1760    7.8950 C.3   210  TRP210      0.1640
    134  C          2.4430   42.3960    7.4450 C.2   210  TRP210      0.2290
    135  O          1.2070   42.4130    7.5780 O.2   210  TRP210     -0.2864
    136  CB         3.6670   41.2950    9.3640 C.3   210  TRP210      0.0576
    137  CG         4.7700   42.2940    9.6480 C.ar  210  TRP210      0.0006
    138  CD1        4.6270   43.5900   10.0490 C.ar  210  TRP210      0.0946
    139  CD2        6.1880   42.0430    9.5920 C.ar  210  TRP210      0.0152
    140  NE1        5.8720   44.1730   10.2420 N.ar  210  TRP210     -0.2442
    141  CE2        6.8410   43.2460    9.9630 C.ar  210  TRP210      0.0810
    142  CE3        6.9640   40.9320    9.2550 C.ar  210  TRP210      0.0012
    143  CZ2        8.2260   43.3570   10.0170 C.ar  210  TRP210      0.0191
    144  CZ3        8.3410   41.0430    9.3010 C.ar  210  TRP210      0.0001
    145  CH2        8.9580   42.2500    9.6890 C.ar  210  TRP210      0.0015
    146  N          5.7270   39.0980   14.4970 N.3   223  PHE223     -0.1227
    147  CA         6.9580   38.6320   13.8700 C.3   223  PHE223      0.1736
    148  C          8.1210   39.0730   14.7350 C.2   223  PHE223      0.2595
    149  O          9.2850   39.0160   14.3160 O.2   223  PHE223     -0.2718
    150  CB         7.0870   39.1690   12.4530 C.3   223  PHE223      0.0547
    151  CG         6.3760   38.3330   11.4180 C.ar  223  PHE223     -0.0202
    152  CD1        5.0080   38.1520   11.4860 C.ar  223  PHE223     -0.0042
    153  CD2        7.0820   37.7410   10.3880 C.ar  223  PHE223     -0.0042
    154  CE1        4.3550   37.3850   10.5330 C.ar  223  PHE223     -0.0003
    155  CE2        6.4420   36.9800    9.4270 C.ar  223  PHE223     -0.0003
    156  CZ         5.0610   36.8180    9.4920 C.ar  223  PHE223     -0.0000
    157  N          7.7900   39.5170   15.9450 N.am  224  PHE224     -0.1976
    158  CA         8.8020   39.9420   16.9000 C.3   224  PHE224      0.1639
    159  C          8.5090   39.3030   18.2300 C.2   224  PHE224      0.2290
    160  O          7.3650   39.3070   18.6840 O.2   224  PHE224     -0.2864
    161  CB         8.8290   41.4650   17.0280 C.3   224  PHE224      0.0560
    162  CG         9.4310   42.2120   15.8780 C.ar  224  PHE224     -0.0200
    163  CD1       10.5040   41.7040   15.1370 C.ar  224  PHE224     -0.0042
    164  CD2        8.9130   43.4790   15.5500 C.ar  224  PHE224     -0.0042
    165  CE1       11.0700   42.4490   14.1200 C.ar  224  PHE224     -0.0003
    166  CE2        9.4710   44.2200   14.5160 C.ar  224  PHE224     -0.0003
    167  CZ        10.5630   43.6980   13.8060 C.ar  224  PHE224     -0.0000
    168  N         13.0900   39.1230   23.9490 N.3   227  VAL227     -0.1245
    169  CA        14.1160   38.1820   24.3510 C.3   227  VAL227      0.1561
    170  C         13.7840   37.5170   25.6810 C.2   227  VAL227      0.2260
    171  O         14.2330   36.4070   25.9470 O.2   227  VAL227     -0.2867
    172  CB        15.4950   38.8700   24.4560 C.3   227  VAL227      0.0252
    173  CG1       15.7950   39.6420   23.1700 C.3   227  VAL227      0.0019
    174  CG2       15.5430   39.7840   25.6680 C.3   227  VAL227      0.0019
    175  N          4.9600   33.5420   13.0010 N.3   254  ALA254     -0.1245
    176  CA         6.4180   33.3880   13.0010 C.3   254  ALA254      0.1562
    177  C          6.9120   32.9880   14.3810 C.2   254  ALA254      0.2260
    178  O          6.4690   33.5090   15.4010 O.2   254  ALA254     -0.2867
    179  CB         7.0560   34.7010   12.6150 C.3   254  ALA254      0.0290
    180  N         10.7950   32.4940   16.2600 N.3   256  TYR256     -0.1241
    181  CA        12.2330   32.7620   16.1100 C.3   256  TYR256      0.1605
    182  C         12.9990   32.1730   17.2900 C.2   256  TYR256      0.2264
    183  O         12.5940   32.3220   18.4360 O.2   256  TYR256     -0.2867
    184  CB        12.4740   34.2760   16.0450 C.3   256  TYR256      0.0534
    185  CG        13.9440   34.6290   16.1940 C.ar  256  TYR256     -0.0201
    186  CD1       14.8210   34.4670   15.1170 C.ar  256  TYR256     -0.0009
    187  CD2       14.4350   35.1220   17.3850 C.ar  256  TYR256     -0.0009
    188  CE1       16.1860   34.7850   15.2520 C.ar  256  TYR256      0.0417
    189  CE2       15.7880   35.4370   17.5320 C.ar  256  TYR256      0.0417
    190  CZ        16.6500   35.2680   16.4620 C.ar  256  TYR256      0.1957
    191  OH        17.9790   35.5980   16.6550 O.3   256  TYR256     -0.2866
    192  N         17.0380   32.1250   18.8560 N.3   258  GLU258     -0.1245
    193  CA        18.3880   32.6850   18.7800 C.3   258  GLU258      0.1567
    194  C         19.4300   31.5800   18.7310 C.2   258  GLU258      0.2260
    195  O         20.6210   31.8490   18.5130 O.2   258  GLU258     -0.2867
    196  CB        18.6390   33.5830   19.9790 C.3   258  GLU258      0.0388
    197  CG        18.8170   32.8300   21.3080 C.3   258  GLU258      0.1160
    198  CD        17.5170   32.2390   21.8940 C.2   258  GLU258      0.3649
    199  OE1       17.6570   31.3570   22.7840 O.co2 258  GLU258     -0.2457
    200  OE2       16.3760   32.6410   21.4930 O.co2 258  GLU258     -0.2457
    201  N         22.7350   29.7760   16.8850 N.3   261  ASP261     -0.1239
    202  CA        23.7130   30.8500   16.7190 C.3   261  ASP261      0.1674
    203  C         24.5360   31.1180   17.9560 C.2   261  ASP261      0.2266
    204  O         25.7700   31.1350   17.9000 O.2   261  ASP261     -0.2867
    205  CB        23.0020   32.1360   16.2810 C.3   261  ASP261      0.1410
    206  CG        23.9740   33.3030   16.0260 C.2   261  ASP261      0.3668
    207  OD1       24.5460   33.3700   14.9260 O.co2 261  ASP261     -0.2456
    208  OD2       24.1230   34.1580   16.9220 O.co2 261  ASP261     -0.2456
    209  N         28.6870   30.5840   18.0970 N.3   265  HIS265     -0.1241
    210  CA        29.7050   31.5810   18.4370 C.3   265  HIS265      0.1621
    211  C         30.6520   31.1200   19.5500 C.2   265  HIS265      0.2264
    212  O         31.8630   31.3460   19.4890 O.2   265  HIS265     -0.2867
    213  CB        29.0650   32.8930   18.8750 C.3   265  HIS265      0.0745
    214  CG        28.4730   33.6800   17.7530 C.ar  265  HIS265      0.0817
    215  ND1       29.2510   34.3240   16.8120 N.ar  265  HIS265     -0.2268
    216  CD2       27.1890   33.9510   17.4310 C.ar  265  HIS265      0.1154
    217  CE1       28.4630   34.9460   15.9460 C.ar  265  HIS265      0.1986
    218  NE2       27.2110   34.7490   16.3140 N.ar  265  HIS265     -0.2212
    219  N         31.9650   32.3610   14.0040 N.3   414  ASP414     -0.1225
    220  CA        31.3360   33.6110   13.5640 C.3   414  ASP414      0.1805
    221  C         30.8500   33.4750   12.1050 C.2   414  ASP414      0.2597
    222  O         31.0680   32.4530   11.4220 O.2   414  ASP414     -0.2718
    223  CB        32.3140   34.8030   13.7210 C.3   414  ASP414      0.1424
    224  CG        31.6120   36.1680   13.8660 C.2   414  ASP414      0.3668
    225  OD1       30.3540   36.2780   13.8390 O.co2 414  ASP414     -0.2456
    226  OD2       32.3460   37.1750   14.0240 O.co2 414  ASP414     -0.2456
    227  N         30.1800   34.5170   11.6170 N.am  415  HIS415     -0.1975
    228  CA        29.6200   34.4980   10.2780 C.3   415  HIS415      0.1656
    229  C         29.5230   35.9570    9.8480 C.2   415  HIS415      0.2291
    230  O         29.7350   36.8500   10.6650 O.2   415  HIS415     -0.2864
    231  CB        28.2000   33.8850   10.3400 C.3   415  HIS415      0.0771
    232  CG        27.3580   34.5170   11.3880 C.ar  415  HIS415      0.0820
    233  ND1       26.5710   35.6220   11.1360 N.ar  415  HIS415     -0.2267
    234  CD2       27.2530   34.2740   12.7150 C.ar  415  HIS415      0.1154
    235  CE1       25.9860   36.0050   12.2590 C.ar  415  HIS415      0.1986
    236  NE2       26.3960   35.2170   13.2280 N.ar  415  HIS415     -0.2212
    237  N          5.9660   32.8610    0.0530 N.3   453  MET453     -0.1245
    238  CA         5.1360   33.0480    1.2310 C.3   453  MET453      0.1570
    239  C          3.8830   33.8360    0.8730 C.2   453  MET453      0.2261
    240  O          2.8100   33.5870    1.4290 O.2   453  MET453     -0.2867
    241  CB         5.9320   33.7160    2.3710 C.3   453  MET453      0.0387
    242  CG         7.0490   32.8090    2.8730 C.3   453  MET453      0.0595
    243  SD         7.8650   33.4320    4.3480 S.3   453  MET453     -0.1393
    244  CE         8.6520   34.8830    3.6130 C.3   453  MET453      0.0692
@<TRIPOS>BOND
     1   237   238    1
     2   239   238    1
     3   239   240    2
     4   238   241    1
     5   241   242    1
     6   242   243    1
     7   130   129    1
     8    73    72    2
     9   244   243    1
    10    81    80    2
    11    80    79    1
    12    77    75    1
    13    72    71    1
    14    72    78   am
    15    71    70    1
    16    71    74    1
    17   129   128    1
    18   129   131    1
    19    61    60    2
    20   125   124    1
    21   125   128    1
    22   125   126    1
    23    78    79    1
    24    79    82    1
    25   127   126    2
    26    75    74    1
    27    75    76    1
    28    60    59    1
    29   126   132   am
    30    66    64   ar
    31    66    68   ar
    32    64    63   ar
    33   112   113    2
    34   112   111    1
    35    69    68    1
    36    68    67   ar
    37    59    62    1
    38    59    58    1
    39    63    62    1
    40    63    65   ar
    41   132   133    1
    42    67    65   ar
    43    53    52    2
    44   134   135    2
    45   134   133    1
    46   111   110    1
    47   111   114    1
    48    58    52   am
    49     8     6    1
    50    52    51    1
    51   133   136    1
    52     6     5    1
    53    50    51    1
    54    23    24    1
    55    51    54    1
    56   114   115    1
    57     7     5    1
    58    26    25    2
    59    42    41    2
    60     5     2    1
    61    41    40    1
    62   142   144   ar
    63   142   139   ar
    64   144   145   ar
    65   136   137    1
    66   155   156   ar
    67   155   153   ar
    68   156   154   ar
    69    24    25    1
    70    24    27    1
    71   139   137   ar
    72   139   141   ar
    73   137   138   ar
    74     2     1    1
    75     2     3    1
    76   145   143   ar
    77    25    32   am
    78   120   117   ar
    79   120   122   ar
    80   229   228    1
    81   229   230    2
    82   141   143   ar
    83   141   140   ar
    84   115   117   ar
    85   115   116   ar
    86   138   140   ar
    87    27    28    1
    88    54    55    1
    89    28    29    1
    90    35    34    2
    91   228   231    1
    92   228   227    1
    93   231   232    1
    94   153   151   ar
    95   117   119   ar
    96   154   152   ar
    97   122   123   ar
    98    57    55    1
    99    40    39    1
   100    40    43    1
   101    34    39   am
   102    34    33    1
   103    83    84    1
   104     3     4    2
   105    55    56    1
   106    32    33    1
   107   116   118   ar
   108   233   232   ar
   109   233   235   ar
   110    29    30    1
   111    30    31    1
   112    33    36    1
   113    43    44    1
   114   232   234   ar
   115   151   152   ar
   116   151   150    1
   117   222   221    2
   118    13    10    1
   119    13    14    1
   120   227   221   am
   121   119   118   ar
   122   119   121   ar
   123   123   121   ar
   124    10     9    1
   125    10    11    1
   126   221   220    1
   127    89    88    2
   128   235   236   ar
   129    84    85    1
   130    84    87    1
   131   150   147    1
   132   179   176    1
   133   234   236   ar
   134    44    46   ar
   135    44    45   ar
   136    36    38    1
   137    36    37    1
   138    88    87    1
   139    88    90   am
   140    46    48   ar
   141    85    86    2
   142    11    12    2
   143   176   175    1
   144   176   177    1
   145   220   223    1
   146   220   219    1
   147   223   224    1
   148    17    16    1
   149    17    18    2
   150   167   165   ar
   151   167   166   ar
   152   225   224   ar
   153   224   226   ar
   154   147   146    1
   155   147   148    1
   156    45    47   ar
   157    16    15    1
   158    16    19    1
   159    21    20   ar
   160   165   163   ar
   161    48    49   ar
   162   149   148    2
   163   177   178    2
   164   166   164   ar
   165    20    22   ar
   166    20    19    1
   167   148   157   am
   168   207   206   ar
   169   186   188   ar
   170   186   185   ar
   171   163   162   ar
   172    47    49   ar
   173   188   190   ar
   174   164   162   ar
   175   162   161    1
   176   157   158    1
   177   217   218   ar
   178   217   215   ar
   179   206   205    1
   180   206   208   ar
   181   184   181    1
   182   184   185    1
   183   181   180    1
   184   181   182    1
   185   185   187   ar
   186   205   202    1
   187    98    96    1
   188   218   216   ar
   189   190   191    1
   190   190   189   ar
   191   202   201    1
   192   202   203    1
   193   215   214   ar
   194    96    97    1
   195    96    95    1
   196   158   161    1
   197   158   159    1
   198    91    92    1
   199   182   183    2
   200   187   189   ar
   201   216   214   ar
   202    92    95    1
   203    92    93    1
   204   214   213    1
   205   204   203    2
   206   209   210    1
   207   159   160    2
   208   210   213    1
   209   210   211    1
   210   195   194    2
   211   194   193    1
   212   193   192    1
   213   193   196    1
   214    93    94    2
   215    93    99   am
   216   212   211    2
   217    99   100    1
   218   196   197    1
   219   102   101    2
   220   101   100    1
   221   100   103    1
   222   197   198    1
   223   108   107    1
   224   200   198   ar
   225   198   199   ar
   226   109   107    1
   227   107   106    2
   228   103   104    1
   229   104   105    1
   230   106   105    1
   231   173   172    1
   232   168   169    1
   233   169   172    1
   234   169   170    1
   235   172   174    1
   236   170   171    2
