@<TRIPOS>MOLECULE
tmp/3nkrA03.pdb
 250 246 0 0 0
SMALL
GASTEIGER

@<TRIPOS>ATOM
      1  N          6.0430   30.0640   10.0110 N.3   117  ILE117     -0.1245
      2  CA         7.4560   30.1820    9.6660 C.3   117  ILE117      0.1561
      3  C          8.2620   29.9530   10.9370 C.2   117  ILE117      0.2260
      4  O          8.1300   30.7010   11.9070 O.2   117  ILE117     -0.2867
      5  CB         7.7780   31.5720    9.0640 C.3   117  ILE117      0.0252
      6  CG1        6.8230   31.8700    7.9010 C.3   117  ILE117      0.0019
      7  CG2        9.2520   31.6310    8.6060 C.3   117  ILE117      0.0019
      8  CD1        6.4170   33.3160    7.7790 C.3   117  ILE117      0.0001
      9  N         11.8230   29.9880   12.2280 N.3   119  SER119     -0.1217
     10  CA        13.1710   30.4230   11.8420 C.3   119  SER119      0.1889
     11  C         14.1650   30.0900   12.9420 C.2   119  SER119      0.2288
     12  O         13.8870   30.2570   14.1230 O.2   119  SER119     -0.2866
     13  CB        13.1830   31.9240   11.5500 C.3   119  SER119      0.2089
     14  OG        12.7410   32.6270   12.7030 O.3   119  SER119     -0.2183
     15  N         18.2780   30.6170   14.1480 N.3   121  ASP121     -0.1239
     16  CA        19.4180   31.5100   13.8800 C.3   121  ASP121      0.1674
     17  C         20.6960   30.6890   13.7790 C.2   121  ASP121      0.2266
     18  O         20.9430   29.8480   14.6440 O.2   121  ASP121     -0.2867
     19  CB        19.5590   32.5230   15.0130 C.3   121  ASP121      0.1410
     20  CG        20.2760   33.7700   14.5720 C.2   121  ASP121      0.3668
     21  OD1       21.4030   33.6390   14.0390 O.co2 121  ASP121     -0.2456
     22  OD2       19.7140   34.8790   14.7220 O.co2 121  ASP121     -0.2456
     23  N         24.7990   38.0170    8.1600 N.3   158  LYS158     -0.1231
     24  CA        24.4550   38.2720    9.5420 C.3   158  LYS158      0.1693
     25  C         22.9330   38.2860    9.7260 C.2   158  LYS158      0.2593
     26  O         22.1690   38.2980    8.7600 O.2   158  LYS158     -0.2718
     27  CB        24.9940   39.6360    9.9450 C.3   158  LYS158      0.0285
     28  CG        26.5000   39.7590    9.8030 C.3   158  LYS158      0.0035
     29  CD        27.1640   39.5390   11.0900 C.3   158  LYS158      0.0206
     30  CE        28.6520   39.8890   11.0120 C.3   158  LYS158      0.1093
     31  NZ        29.2580   39.9460   12.3590 N.3   158  LYS158     -0.1314
     32  N         22.5070   38.3470   10.9770 N.am  159  THR159     -0.1939
     33  CA        21.0890   38.1260   11.3180 C.3   159  THR159      0.2028
     34  C         20.1110   39.1680   10.7920 C.2   159  THR159      0.2642
     35  O         19.1530   38.8370   10.0720 O.2   159  THR159     -0.2714
     36  CB        20.9450   38.0640   12.8160 C.3   159  THR159      0.1808
     37  OG1       21.7950   37.0230   13.2850 O.3   159  THR159     -0.2208
     38  CG2       19.4790   37.7920   13.2260 C.3   159  THR159      0.0379
     39  N         20.3120   40.4230   11.1570 N.am  160  PHE160     -0.1973
     40  CA        19.3210   41.4230   10.7330 C.3   160  PHE160      0.1639
     41  C         19.1230   41.5610    9.2110 C.2   160  PHE160      0.2290
     42  O         17.9750   41.6030    8.7400 O.2   160  PHE160     -0.2864
     43  CB        19.5590   42.7880   11.4100 C.3   160  PHE160      0.0560
     44  CG        18.8380   42.9370   12.7300 C.ar  160  PHE160     -0.0200
     45  CD1       18.7910   41.8870   13.6270 C.ar  160  PHE160     -0.0042
     46  CD2       18.2320   44.1340   13.0750 C.ar  160  PHE160     -0.0042
     47  CE1       18.1390   42.0250   14.8530 C.ar  160  PHE160     -0.0003
     48  CE2       17.5830   44.2790   14.3030 C.ar  160  PHE160     -0.0003
     49  CZ        17.5350   43.2280   15.1830 C.ar  160  PHE160     -0.0000
     50  N         17.1860   38.1960    8.1480 N.3   163  LEU163     -0.1231
     51  CA        15.7860   38.0790    8.5630 C.3   163  LEU163      0.1693
     52  C         14.9260   39.0750    7.7940 C.2   163  LEU163      0.2592
     53  O         13.8260   38.7370    7.3620 O.2   163  LEU163     -0.2718
     54  CB        15.6360   38.2720   10.0670 C.3   163  LEU163      0.0284
     55  CG        16.2600   37.1960   10.9680 C.3   163  LEU163      0.0019
     56  CD1       16.0430   37.5530   12.4300 C.3   163  LEU163      0.0001
     57  CD2       15.6780   35.8230   10.6250 C.3   163  LEU163      0.0001
     58  N         15.3940   40.3070    7.6310 N.am  164  TYR164     -0.1976
     59  CA        14.5510   41.2760    6.9310 C.3   164  TYR164      0.1639
     60  C         14.4660   40.9690    5.4300 C.2   164  TYR164      0.2290
     61  O         13.4550   41.2370    4.8010 O.2   164  TYR164     -0.2864
     62  CB        14.9950   42.7360    7.2220 C.3   164  TYR164      0.0560
     63  CG        13.8820   43.7500    7.0170 C.ar  164  TYR164     -0.0198
     64  CD1       14.0890   44.8970    6.2490 C.ar  164  TYR164     -0.0009
     65  CD2       12.6450   43.5450    7.5900 C.ar  164  TYR164     -0.0009
     66  CE1       13.0320   45.8330    6.0370 C.ar  164  TYR164      0.0417
     67  CE2       11.5940   44.4590    7.4000 C.ar  164  TYR164      0.0417
     68  CZ        11.8010   45.5890    6.6330 C.ar  164  TYR164      0.1957
     69  OH        10.7510   46.4760    6.4720 O.3   164  TYR164     -0.2866
     70  N         14.3720   37.8480    4.3010 N.3   166  LEU166     -0.1231
     71  CA        13.3220   36.7970    4.3030 C.3   166  LEU166      0.1693
     72  C         11.9420   37.4350    4.2940 C.2   166  LEU166      0.2591
     73  O         11.0580   37.0200    3.5440 O.2   166  LEU166     -0.2718
     74  CB        13.4610   35.8680    5.5030 C.3   166  LEU166      0.0284
     75  CG        14.6600   34.9190    5.4300 C.3   166  LEU166      0.0019
     76  CD1       14.9170   34.3080    6.8080 C.3   166  LEU166      0.0001
     77  CD2       14.3910   33.8240    4.3990 C.3   166  LEU166      0.0001
     78  N         11.7750   38.4750    5.1030 N.am  167  ALA167     -0.1980
     79  CA        10.4670   39.1200    5.2360 C.3   167  ALA167      0.1597
     80  C         10.0360   39.9670    4.0480 C.2   167  ALA167      0.2287
     81  O          8.8350   40.2450    3.9080 O.2   167  ALA167     -0.2864
     82  CB        10.3940   39.9690    6.5460 C.3   167  ALA167      0.0319
     83  N         23.8990   44.4420   10.8910 N.3   180  ASN180     -0.1240
     84  CA        23.4500   44.4590   12.2990 C.3   180  ASN180      0.1653
     85  C         23.7440   45.8090   12.9370 C.2   180  ASN180      0.2266
     86  O         23.0470   46.2440   13.8610 O.2   180  ASN180     -0.2867
     87  CB        24.1490   43.3920   13.1270 C.3   180  ASN180      0.1155
     88  CG        23.6390   41.9940   12.8380 C.2   180  ASN180      0.2627
     89  OD1       22.6440   41.8110   12.1250 O.2   180  ASN180     -0.2716
     90  ND2       24.3200   41.0010   13.3880 N.am  180  ASN180     -0.0877
     91  N         21.9830   46.2250   16.7300 N.3   193  LEU193     -0.1245
     92  CA        21.0660   45.1180   16.9560 C.3   193  LEU193      0.1561
     93  C         20.4980   45.1900   18.3760 C.2   193  LEU193      0.2260
     94  O         19.3250   44.8700   18.6140 O.2   193  LEU193     -0.2867
     95  CB        21.7530   43.7770   16.6780 C.3   193  LEU193      0.0270
     96  CG        20.8960   42.5260   16.8800 C.3   193  LEU193      0.0019
     97  CD1       21.3320   41.4050   15.9240 C.3   193  LEU193      0.0001
     98  CD2       20.9310   42.0600   18.3360 C.3   193  LEU193      0.0001
     99  N         13.6570   51.0320    8.2560 N.3   204  TRP204     -0.1241
    100  CA        13.1440   49.8010    7.6560 C.3   204  TRP204      0.1605
    101  C         12.3530   50.0470    6.3750 C.2   204  TRP204      0.2264
    102  O         11.2450   50.5600    6.4350 O.2   204  TRP204     -0.2867
    103  CB        12.2490   49.0770    8.6770 C.3   204  TRP204      0.0550
    104  CG        12.9390   48.7950   10.0020 C.ar  204  TRP204      0.0003
    105  CD1       13.0650   49.6580   11.0660 C.ar  204  TRP204      0.0946
    106  CD2       13.5920   47.5820   10.3960 C.ar  204  TRP204      0.0152
    107  NE1       13.7530   49.0500   12.0880 N.ar  204  TRP204     -0.2442
    108  CE2       14.0900   47.7720   11.7060 C.ar  204  TRP204      0.0810
    109  CE3       13.7950   46.3380    9.7680 C.ar  204  TRP204      0.0012
    110  CZ2       14.7860   46.7860   12.4020 C.ar  204  TRP204      0.0191
    111  CZ3       14.4890   45.3350   10.4730 C.ar  204  TRP204      0.0001
    112  CH2       14.9750   45.5720   11.7740 C.ar  204  TRP204      0.0015
    113  N          4.2790   40.7160    6.9810 N.3   210  TRP210     -0.1241
    114  CA         3.1590   41.0010    7.8890 C.3   210  TRP210      0.1605
    115  C          2.3240   42.2070    7.4400 C.2   210  TRP210      0.2264
    116  O          1.0990   42.2410    7.6250 O.2   210  TRP210     -0.2867
    117  CB         3.6150   41.1590    9.3440 C.3   210  TRP210      0.0550
    118  CG         4.7100   42.1650    9.5910 C.ar  210  TRP210      0.0003
    119  CD1        4.5640   43.4790    9.9470 C.ar  210  TRP210      0.0946
    120  CD2        6.1310   41.9180    9.5510 C.ar  210  TRP210      0.0152
    121  NE1        5.8060   44.0650   10.1160 N.ar  210  TRP210     -0.2442
    122  CE2        6.7760   43.1330    9.8740 C.ar  210  TRP210      0.0810
    123  CE3        6.9060   40.7950    9.2650 C.ar  210  TRP210      0.0012
    124  CZ2        8.1640   43.2440    9.9350 C.ar  210  TRP210      0.0191
    125  CZ3        8.2920   40.9140    9.3210 C.ar  210  TRP210      0.0001
    126  CH2        8.8980   42.1250    9.6470 C.ar  210  TRP210      0.0015
    127  N          5.5890   39.0020   14.5310 N.3   223  PHE223     -0.1227
    128  CA         6.8170   38.5760   13.8920 C.3   223  PHE223      0.1736
    129  C          7.9950   39.0570   14.7190 C.2   223  PHE223      0.2595
    130  O          9.1390   39.0590   14.2520 O.2   223  PHE223     -0.2718
    131  CB         6.8810   39.0620   12.4630 C.3   223  PHE223      0.0547
    132  CG         6.0990   38.2070   11.5100 C.ar  223  PHE223     -0.0202
    133  CD1        4.7570   37.9260   11.7450 C.ar  223  PHE223     -0.0042
    134  CD2        6.7040   37.6860   10.3780 C.ar  223  PHE223     -0.0042
    135  CE1        4.0320   37.1350   10.8630 C.ar  223  PHE223     -0.0003
    136  CE2        5.9880   36.9170    9.4950 C.ar  223  PHE223     -0.0003
    137  CZ         4.6480   36.6490    9.7330 C.ar  223  PHE223     -0.0000
    138  N          7.6970   39.4620   15.9520 N.am  224  PHE224     -0.1962
    139  CA         8.7340   39.8030   16.9180 C.3   224  PHE224      0.1771
    140  C          8.4390   39.1450   18.2560 C.2   224  PHE224      0.2619
    141  O          7.2980   39.1440   18.7180 O.2   224  PHE224     -0.2715
    142  CB         8.8680   41.3280   17.0700 C.3   224  PHE224      0.0574
    143  CG         9.7690   41.7550   18.2150 C.ar  224  PHE224     -0.0200
    144  CD1       11.1500   41.6150   18.1300 C.ar  224  PHE224     -0.0042
    145  CD2        9.2290   42.2860   19.3820 C.ar  224  PHE224     -0.0042
    146  CE1       11.9770   41.9960   19.1950 C.ar  224  PHE224     -0.0003
    147  CE2       10.0440   42.6720   20.4360 C.ar  224  PHE224     -0.0003
    148  CZ        11.4180   42.5240   20.3450 C.ar  224  PHE224     -0.0000
    149  N          9.4710   38.5810   18.8830 N.am  225  TRP225     -0.1974
    150  CA         9.3360   38.0320   20.2250 C.3   225  TRP225      0.1640
    151  C         10.3590   38.6730   21.1530 C.2   225  TRP225      0.2290
    152  O         11.5450   38.6930   20.8360 O.2   225  TRP225     -0.2864
    153  CB         9.5760   36.5160   20.2030 C.3   225  TRP225      0.0576
    154  CG         8.5700   35.7620   19.3940 C.ar  225  TRP225      0.0006
    155  CD1        8.7010   35.3290   18.1030 C.ar  225  TRP225      0.0946
    156  CD2        7.2690   35.3550   19.8270 C.ar  225  TRP225      0.0152
    157  NE1        7.5560   34.6690   17.7090 N.ar  225  TRP225     -0.2442
    158  CE2        6.6590   34.6750   18.7510 C.ar  225  TRP225      0.0810
    159  CE3        6.5520   35.5050   21.0180 C.ar  225  TRP225      0.0012
    160  CZ2        5.3700   34.1370   18.8360 C.ar  225  TRP225      0.0191
    161  CZ3        5.2720   34.9760   21.1020 C.ar  225  TRP225      0.0001
    162  CH2        4.7000   34.2970   20.0200 C.ar  225  TRP225      0.0015
    163  N         13.0410   39.0370   23.9300 N.3   227  VAL227     -0.1245
    164  CA        14.0480   38.0810   24.3680 C.3   227  VAL227      0.1561
    165  C         13.7020   37.4320   25.6990 C.2   227  VAL227      0.2260
    166  O         14.1260   36.3130   25.9650 O.2   227  VAL227     -0.2867
    167  CB        15.4420   38.7150   24.4810 C.3   227  VAL227      0.0252
    168  CG1       16.0570   38.8590   23.1050 C.3   227  VAL227      0.0019
    169  CG2       15.3510   40.0600   25.1820 C.3   227  VAL227      0.0019
    170  N          4.8800   33.3250   13.0260 N.3   254  ALA254     -0.1231
    171  CA         6.3390   33.2410   12.9760 C.3   254  ALA254      0.1694
    172  C          6.8620   32.8390   14.3360 C.2   254  ALA254      0.2592
    173  O          6.4200   33.3540   15.3620 O.2   254  ALA254     -0.2718
    174  CB         6.9280   34.5790   12.5660 C.3   254  ALA254      0.0304
    175  N          7.8240   31.9190   14.3420 N.am  255  PHE255     -0.1962
    176  CA         8.5400   31.5880   15.5420 C.3   255  PHE255      0.1771
    177  C          9.9930   31.8770   15.2380 C.2   255  PHE255      0.2619
    178  O         10.4140   31.7330   14.0900 O.2   255  PHE255     -0.2715
    179  CB         8.3710   30.1000   15.8900 C.3   255  PHE255      0.0574
    180  CG         9.3050   29.6340   16.9570 C.ar  255  PHE255     -0.0200
    181  CD1        8.9530   29.7100   18.2990 C.ar  255  PHE255     -0.0042
    182  CD2       10.5540   29.1350   16.6190 C.ar  255  PHE255     -0.0042
    183  CE1        9.8190   29.3030   19.2890 C.ar  255  PHE255     -0.0003
    184  CE2       11.4400   28.7330   17.6190 C.ar  255  PHE255     -0.0003
    185  CZ        11.0750   28.8080   18.9420 C.ar  255  PHE255     -0.0000
    186  N         10.7240   32.3150   16.2580 N.am  256  TYR256     -0.1974
    187  CA        12.1580   32.5630   16.1090 C.3   256  TYR256      0.1639
    188  C         12.9210   31.9660   17.2640 C.2   256  TYR256      0.2290
    189  O         12.5120   32.1160   18.4230 O.2   256  TYR256     -0.2864
    190  CB        12.4310   34.0740   16.0330 C.3   256  TYR256      0.0560
    191  CG        13.9070   34.4160   16.1730 C.ar  256  TYR256     -0.0198
    192  CD1       14.7670   34.2720   15.0960 C.ar  256  TYR256     -0.0009
    193  CD2       14.4210   34.8740   17.3780 C.ar  256  TYR256     -0.0009
    194  CE1       16.1260   34.5820   15.2160 C.ar  256  TYR256      0.0417
    195  CE2       15.7640   35.1850   17.5180 C.ar  256  TYR256      0.0417
    196  CZ        16.6100   35.0460   16.4310 C.ar  256  TYR256      0.1957
    197  OH        17.9420   35.3660   16.6200 O.3   256  TYR256     -0.2866
    198  N         16.9910   31.9050   18.8100 N.3   258  GLU258     -0.1245
    199  CA        18.3290   32.4910   18.7300 C.3   258  GLU258      0.1567
    200  C         19.3920   31.4000   18.7010 C.2   258  GLU258      0.2260
    201  O         20.5830   31.6800   18.5380 O.2   258  GLU258     -0.2867
    202  CB        18.5520   33.4470   19.9010 C.3   258  GLU258      0.0388
    203  CG        18.7560   32.7890   21.2680 C.3   258  GLU258      0.1160
    204  CD        17.4900   32.1450   21.8550 C.2   258  GLU258      0.3649
    205  OE1       17.6530   31.2700   22.7370 O.co2 258  GLU258     -0.2457
    206  OE2       16.3490   32.5000   21.4510 O.co2 258  GLU258     -0.2457
    207  N         22.6660   29.5880   16.8980 N.3   261  ASP261     -0.1239
    208  CA        23.6680   30.6380   16.7060 C.3   261  ASP261      0.1674
    209  C         24.5160   30.9050   17.9430 C.2   261  ASP261      0.2266
    210  O         25.7510   30.9920   17.8830 O.2   261  ASP261     -0.2867
    211  CB        22.9500   31.9260   16.2900 C.3   261  ASP261      0.1410
    212  CG        23.9060   33.0620   15.9560 C.2   261  ASP261      0.3668
    213  OD1       24.5420   33.0140   14.8870 O.co2 261  ASP261     -0.2456
    214  OD2       23.9810   34.0110   16.7560 O.co2 261  ASP261     -0.2456
    215  N         28.6200   30.3560   18.1200 N.3   265  HIS265     -0.1241
    216  CA        29.6400   31.3530   18.4720 C.3   265  HIS265      0.1621
    217  C         30.5820   30.8660   19.5710 C.2   265  HIS265      0.2264
    218  O         31.7940   31.0190   19.4800 O.2   265  HIS265     -0.2867
    219  CB        29.0070   32.6810   18.9050 C.3   265  HIS265      0.0745
    220  CG        28.4330   33.4540   17.7760 C.ar  265  HIS265      0.0817
    221  ND1       29.2120   34.0190   16.7770 N.ar  265  HIS265     -0.2268
    222  CD2       27.1430   33.7550   17.4540 C.ar  265  HIS265      0.1154
    223  CE1       28.4230   34.6220   15.9050 C.ar  265  HIS265      0.1986
    224  NE2       27.1840   34.4850   16.2980 N.ar  265  HIS265     -0.2212
    225  N         31.8770   32.1660   13.9760 N.3   414  ASP414     -0.1225
    226  CA        31.2600   33.4170   13.5340 C.3   414  ASP414      0.1805
    227  C         30.7670   33.2870   12.0830 C.2   414  ASP414      0.2597
    228  O         30.9590   32.2670   11.4090 O.2   414  ASP414     -0.2718
    229  CB        32.2440   34.6020   13.6930 C.3   414  ASP414      0.1424
    230  CG        31.5500   35.9680   13.8730 C.2   414  ASP414      0.3668
    231  OD1       30.2920   36.0580   13.8290 O.co2 414  ASP414     -0.2456
    232  OD2       32.2820   36.9840   14.0620 O.co2 414  ASP414     -0.2456
    233  N         30.1130   34.3380   11.5980 N.am  415  HIS415     -0.1975
    234  CA        29.5510   34.3390   10.2560 C.3   415  HIS415      0.1656
    235  C         29.4790   35.7810    9.8130 C.2   415  HIS415      0.2291
    236  O         29.7050   36.6720   10.6180 O.2   415  HIS415     -0.2864
    237  CB        28.1250   33.7520   10.3090 C.3   415  HIS415      0.0771
    238  CG        27.2800   34.3710   11.3680 C.ar  415  HIS415      0.0820
    239  ND1       26.4920   35.4790   11.1430 N.ar  415  HIS415     -0.2267
    240  CD2       27.1350   34.0700   12.6910 C.ar  415  HIS415      0.1154
    241  CE1       25.8900   35.8220   12.2670 C.ar  415  HIS415      0.1986
    242  NE2       26.2500   34.9870   13.2120 N.ar  415  HIS415     -0.2212
    243  N          5.9100   32.6990    0.0680 N.3   453  MET453     -0.1245
    244  CA         5.0580   32.8820    1.2340 C.3   453  MET453      0.1570
    245  C          3.8090   33.6680    0.8340 C.2   453  MET453      0.2261
    246  O          2.7220   33.4210    1.3430 O.2   453  MET453     -0.2867
    247  CB         5.8250   33.5780    2.3660 C.3   453  MET453      0.0387
    248  CG         6.9930   32.7390    2.8380 C.3   453  MET453      0.0595
    249  SD         7.7880   33.3230    4.3500 S.3   453  MET453     -0.1393
    250  CE         8.4230   34.8790    3.7660 C.3   453  MET453      0.0692
@<TRIPOS>BOND
     1   243   244    1
     2   245   244    1
     3   245   246    2
     4   244   247    1
     5   247   248    1
     6   248   249    1
     7    73    72    2
     8   250   249    1
     9    81    80    2
    10    80    79    1
    11    72    71    1
    12    72    78   am
    13    70    71    1
    14    71    74    1
    15    77    75    1
    16    61    60    2
    17    78    79    1
    18    79    82    1
    19    60    59    1
    20    75    74    1
    21    75    76    1
    22    66    64   ar
    23    66    68   ar
    24    64    63   ar
    25   101   102    2
    26   101   100    1
    27    69    68    1
    28    68    67   ar
    29    59    62    1
    30    59    58    1
    31   113   114    1
    32    63    62    1
    33    63    65   ar
    34    53    52    2
    35    67    65   ar
    36   115   116    2
    37   115   114    1
    38    58    52   am
    39   100    99    1
    40   100   103    1
    41     8     6    1
    42    52    51    1
    43   114   117    1
    44     6     5    1
    45    50    51    1
    46    23    24    1
    47    51    54    1
    48     7     5    1
    49   103   104    1
    50    42    41    2
    51    26    25    2
    52     5     2    1
    53    41    40    1
    54   123   125   ar
    55   123   120   ar
    56   125   126   ar
    57   117   118    1
    58   136   137   ar
    59   136   134   ar
    60    24    25    1
    61    24    27    1
    62   120   118   ar
    63   120   122   ar
    64   118   119   ar
    65   126   124   ar
    66     2     1    1
    67     2     3    1
    68    25    32   am
    69   137   135   ar
    70   109   106   ar
    71   109   111   ar
    72    28    27    1
    73    28    29    1
    74   235   234    1
    75   235   236    2
    76   122   124   ar
    77   122   121   ar
    78   119   121   ar
    79   104   106   ar
    80   104   105   ar
    81    54    55    1
    82    35    34    2
    83   234   237    1
    84   234   233    1
    85   237   238    1
    86   134   132   ar
    87   106   108   ar
    88   111   112   ar
    89    57    55    1
    90    40    39    1
    91    40    43    1
    92    34    39   am
    93    34    33    1
    94   135   133   ar
    95    83    84    1
    96     3     4    2
    97    55    56    1
    98    32    33    1
    99    30    29    1
   100    30    31    1
   101   105   107   ar
   102   239   238   ar
   103   239   241   ar
   104    33    36    1
   105   238   240   ar
   106   228   227    2
   107    43    44    1
   108   132   133   ar
   109   132   131    1
   110    13    10    1
   111    13    14    1
   112   233   227   am
   113   108   107   ar
   114   108   110   ar
   115   112   110   ar
   116    10     9    1
   117    10    11    1
   118   227   226    1
   119    89    88    2
   120   241   242   ar
   121    84    85    1
   122    84    87    1
   123   131   128    1
   124   174   171    1
   125   240   242   ar
   126    44    46   ar
   127    44    45   ar
   128    36    38    1
   129    36    37    1
   130    88    87    1
   131    88    90   am
   132    85    86    2
   133    11    12    2
   134   171   170    1
   135   171   172    1
   136    46    48   ar
   137   226   229    1
   138   226   225    1
   139    45    47   ar
   140   229   230    1
   141    17    16    1
   142    17    18    2
   143   231   230   ar
   144   230   232   ar
   145    16    15    1
   146    16    19    1
   147   128   127    1
   148   128   129    1
   149    21    20   ar
   150   178   177    2
   151   130   129    2
   152    48    49   ar
   153   172   175   am
   154   172   173    2
   155   175   176    1
   156    20    22   ar
   157    20    19    1
   158   129   138   am
   159    47    49   ar
   160   213   212   ar
   161   192   194   ar
   162   192   191   ar
   163   194   196   ar
   164   177   176    1
   165   177   186   am
   166   176   179    1
   167   179   180    1
   168   223   224   ar
   169   223   221   ar
   170    97    96    1
   171   138   139    1
   172   212   211    1
   173   212   214   ar
   174   190   187    1
   175   190   191    1
   176   187   186    1
   177   187   188    1
   178   191   193   ar
   179   211   208    1
   180   224   222   ar
   181   196   197    1
   182   196   195   ar
   183   182   180   ar
   184   182   184   ar
   185    95    96    1
   186    95    92    1
   187   208   207    1
   188   208   209    1
   189    91    92    1
   190   221   220   ar
   191    96    98    1
   192   139   142    1
   193   139   140    1
   194    92    93    1
   195   180   181   ar
   196   142   143    1
   197   188   189    2
   198   193   195   ar
   199   222   220   ar
   200   184   185   ar
   201   157   155   ar
   202   157   158   ar
   203   220   219    1
   204   210   209    2
   205   155   154   ar
   206   215   216    1
   207   144   143   ar
   208   144   146   ar
   209   143   145   ar
   210   140   141    2
   211   140   149   am
   212   181   183   ar
   213    93    94    2
   214   216   219    1
   215   216   217    1
   216   201   200    2
   217   200   199    1
   218   199   198    1
   219   199   202    1
   220   158   160   ar
   221   158   156   ar
   222   160   162   ar
   223   149   150    1
   224   185   183   ar
   225   146   148   ar
   226   145   147   ar
   227   154   156   ar
   228   154   153    1
   229   218   217    2
   230   156   159   ar
   231   202   203    1
   232   162   161   ar
   233   153   150    1
   234   150   151    1
   235   148   147   ar
   236   152   151    2
   237   159   161   ar
   238   203   204    1
   239   206   204   ar
   240   204   205   ar
   241   168   167    1
   242   163   164    1
   243   164   167    1
   244   164   165    1
   245   167   169    1
   246   165   166    2
