@<TRIPOS>MOLECULE
tmp/3nkrA04.pdb
 149 153 0 0 0
SMALL
GASTEIGER

@<TRIPOS>ATOM
      1  N          5.8720   43.5140   21.9610 N.3    28  LEU28      -0.1245
      2  CA         6.6410   44.7370   21.8720 C.3    28  LEU28       0.1561
      3  C          6.5570   45.5760   23.1530 C.2    28  LEU28       0.2260
      4  O          7.2750   46.5550   23.2910 O.2    28  LEU28      -0.2867
      5  CB         6.2180   45.5510   20.6440 C.3    28  LEU28       0.0270
      6  CG         6.5430   44.9430   19.3020 C.3    28  LEU28       0.0019
      7  CD1        5.7980   43.7530   18.9020 C.3    28  LEU28       0.0001
      8  CD2        6.1830   45.9680   18.1740 C.3    28  LEU28       0.0001
      9  N          8.9860   49.2210   24.7940 N.3    32  TYR32      -0.1241
     10  CA         8.3660   50.5290   24.8510 C.3    32  TYR32       0.1605
     11  C          7.9750   50.8720   26.2690 C.2    32  TYR32       0.2264
     12  O          7.3520   51.9050   26.5090 O.2    32  TYR32      -0.2867
     13  CB         7.1420   50.5650   23.9450 C.3    32  TYR32       0.0534
     14  CG         7.4560   50.1250   22.5420 C.ar   32  TYR32      -0.0201
     15  CD1        7.5480   48.7830   22.2250 C.ar   32  TYR32      -0.0009
     16  CD2        7.6740   51.0530   21.5360 C.ar   32  TYR32      -0.0009
     17  CE1        7.8400   48.3690   20.9440 C.ar   32  TYR32       0.0417
     18  CE2        7.9700   50.6520   20.2500 C.ar   32  TYR32       0.0417
     19  CZ         8.0500   49.3100   19.9570 C.ar   32  TYR32       0.1957
     20  OH         8.3390   48.9080   18.6710 O.3    32  TYR32      -0.2866
     21  N         15.3940   40.3070    7.6310 N.3   164  TYR164     -0.1241
     22  CA        14.5510   41.2760    6.9310 C.3   164  TYR164      0.1605
     23  C         14.4660   40.9690    5.4300 C.2   164  TYR164      0.2264
     24  O         13.4550   41.2370    4.8010 O.2   164  TYR164     -0.2867
     25  CB        14.9950   42.7360    7.2220 C.3   164  TYR164      0.0534
     26  CG        13.8820   43.7500    7.0170 C.ar  164  TYR164     -0.0201
     27  CD1       14.0890   44.8970    6.2490 C.ar  164  TYR164     -0.0009
     28  CD2       12.6450   43.5450    7.5900 C.ar  164  TYR164     -0.0009
     29  CE1       13.0320   45.8330    6.0370 C.ar  164  TYR164      0.0417
     30  CE2       11.5940   44.4590    7.4000 C.ar  164  TYR164      0.0417
     31  CZ        11.8010   45.5890    6.6330 C.ar  164  TYR164      0.1957
     32  OH        10.7510   46.4760    6.4720 O.3   164  TYR164     -0.2866
     33  N         16.8780   50.9430   16.7650 N.3   198  LYS198     -0.1231
     34  CA        16.3540   50.0180   15.7530 C.3   198  LYS198      0.1693
     35  C         14.8260   50.0160   15.7210 C.2   198  LYS198      0.2592
     36  O         14.2210   49.6960   14.7010 O.2   198  LYS198     -0.2718
     37  CB        16.8580   48.5990   16.0090 C.3   198  LYS198      0.0285
     38  CG        16.4990   48.0620   17.3890 C.3   198  LYS198      0.0035
     39  CD        16.6940   46.5580   17.4440 C.3   198  LYS198      0.0206
     40  CE        16.1930   45.9700   18.7680 C.3   198  LYS198      0.1093
     41  NZ        17.2170   46.0460   19.8510 N.3   198  LYS198     -0.1314
     42  N         14.2060   50.3810   16.8440 N.am  199  PHE199     -0.1976
     43  CA        12.7450   50.4700   16.9070 C.3   199  PHE199      0.1639
     44  C         12.1560   51.6150   16.0890 C.2   199  PHE199      0.2290
     45  O         10.9620   51.6020   15.7620 O.2   199  PHE199     -0.2864
     46  CB        12.2700   50.5130   18.3670 C.3   199  PHE199      0.0560
     47  CG        12.4810   49.2180   19.0850 C.ar  199  PHE199     -0.0200
     48  CD1       11.6540   48.1450   18.8350 C.ar  199  PHE199     -0.0042
     49  CD2       13.5360   49.0540   19.9640 C.ar  199  PHE199     -0.0042
     50  CE1       11.8540   46.9400   19.4540 C.ar  199  PHE199     -0.0003
     51  CE2       13.7380   47.8510   20.5920 C.ar  199  PHE199     -0.0003
     52  CZ        12.8970   46.7860   20.3380 C.ar  199  PHE199     -0.0000
     53  N         11.0600   53.4620   12.8870 N.3   201  HIS201     -0.1226
     54  CA        10.6500   52.9300   11.5910 C.3   201  HIS201      0.1752
     55  C         11.4260   53.4790   10.4000 C.2   201  HIS201      0.2596
     56  O         11.4150   52.8780    9.3310 O.2   201  HIS201     -0.2718
     57  CB         9.1420   53.1000   11.3900 C.3   201  HIS201      0.0759
     58  CG         8.3320   52.1450   12.2000 C.ar  201  HIS201      0.0818
     59  ND1        7.0420   51.7750   11.8720 N.ar  201  HIS201     -0.2268
     60  CD2        8.6390   51.4580   13.3310 C.ar  201  HIS201      0.1154
     61  CE1        6.5930   50.9170   12.7660 C.ar  201  HIS201      0.1986
     62  NE2        7.5360   50.7070   13.6590 N.ar  201  HIS201     -0.2212
     63  N         12.1170   54.5990   10.5850 N.am  202  ARG202     -0.1966
     64  CA        12.8020   55.2280    9.4700 C.3   202  ARG202      0.1729
     65  C         13.8670   54.3150    8.8690 C.2   202  ARG202      0.2616
     66  O         14.2450   54.4920    7.7120 O.2   202  ARG202     -0.2715
     67  CB        13.4340   56.5600    9.8860 C.3   202  ARG202      0.0348
     68  CG        14.4880   56.4320   10.9490 C.3   202  ARG202      0.0492
     69  CD        15.0640   57.8030   11.2950 C.3   202  ARG202      0.2205
     70  NE        16.0000   57.7070   12.4090 N.pl3 202  ARG202     -0.0865
     71  CZ        16.6670   58.7420   12.9060 C.cat 202  ARG202      0.5346
     72  NH1       16.5020   59.9460   12.3830 N.pl3 202  ARG202      0.1354
     73  NH2       17.5010   58.5660   13.9210 N.pl3 202  ARG202      0.1354
     74  N         14.3390   53.3340    9.6330 N.am  203  TRP203     -0.1960
     75  CA        15.4120   52.4550    9.1200 C.3   203  TRP203      0.1771
     76  C         14.9280   51.4060    8.1310 C.2   203  TRP203      0.2620
     77  O         15.6880   50.9500    7.2860 O.2   203  TRP203     -0.2715
     78  CB        16.1020   51.7170   10.2580 C.3   203  TRP203      0.0590
     79  CG        16.8300   52.6220   11.1700 C.ar  203  TRP203      0.0006
     80  CD1       16.3660   53.1510   12.3360 C.ar  203  TRP203      0.0946
     81  CD2       18.1590   53.1200   11.0010 C.ar  203  TRP203      0.0152
     82  NE1       17.3360   53.9570   12.9100 N.ar  203  TRP203     -0.2442
     83  CE2       18.4490   53.9540   12.0970 C.ar  203  TRP203      0.0810
     84  CE3       19.1420   52.9500   10.0110 C.ar  203  TRP203      0.0012
     85  CZ2       19.6650   54.6050   12.2510 C.ar  203  TRP203      0.0191
     86  CZ3       20.3560   53.5980   10.1650 C.ar  203  TRP203      0.0001
     87  CH2       20.6050   54.4050   11.2770 C.ar  203  TRP203      0.0015
     88  N         13.6570   51.0320    8.2560 N.am  204  TRP204     -0.1960
     89  CA        13.1440   49.8010    7.6560 C.3   204  TRP204      0.1771
     90  C         12.3530   50.0470    6.3750 C.2   204  TRP204      0.2620
     91  O         11.2450   50.5600    6.4350 O.2   204  TRP204     -0.2715
     92  CB        12.2490   49.0770    8.6770 C.3   204  TRP204      0.0590
     93  CG        12.9390   48.7950   10.0020 C.ar  204  TRP204      0.0006
     94  CD1       13.0650   49.6580   11.0660 C.ar  204  TRP204      0.0946
     95  CD2       13.5920   47.5820   10.3960 C.ar  204  TRP204      0.0152
     96  NE1       13.7530   49.0500   12.0880 N.ar  204  TRP204     -0.2442
     97  CE2       14.0900   47.7720   11.7060 C.ar  204  TRP204      0.0810
     98  CE3       13.7950   46.3380    9.7680 C.ar  204  TRP204      0.0012
     99  CZ2       14.7860   46.7860   12.4020 C.ar  204  TRP204      0.0191
    100  CZ3       14.4890   45.3350   10.4730 C.ar  204  TRP204      0.0001
    101  CH2       14.9750   45.5720   11.7740 C.ar  204  TRP204      0.0015
    102  N         12.9230   49.6870    5.2230 N.am  205  GLY205     -0.1940
    103  CA        12.2740   49.8950    3.9360 C.3   205  GLY205      0.2014
    104  C         11.5470   48.6770    3.4000 C.2   205  GLY205      0.2639
    105  O         11.4060   47.6720    4.0920 O.2   205  GLY205     -0.2714
    106  N         11.0820   48.7800    2.1560 N.am  206  GLY206     -0.1954
    107  CA        10.3550   47.7030    1.5160 C.3   206  GLY206      0.1869
    108  C          9.0250   47.4800    2.2080 C.2   206  GLY206      0.2309
    109  O          8.5140   48.3600    2.9200 O.2   206  GLY206     -0.2863
    110  N          7.4370   44.3510    4.4320 N.3   208  PRO208     -0.2116
    111  CA         7.5880   43.0140    5.0000 C.3   208  PRO208      0.1372
    112  C          6.2760   42.2360    4.9370 C.2   208  PRO208      0.2244
    113  O          5.2010   42.8290    4.8590 O.2   208  PRO208     -0.2868
    114  CB         7.9840   43.2900    6.4440 C.3   208  PRO208      0.0268
    115  CG         7.4710   44.6800    6.7380 C.3   208  PRO208      0.0207
    116  CD         7.6340   45.4120    5.4350 C.3   208  PRO208      0.0892
    117  N          4.2790   40.7160    6.9810 N.3   210  TRP210     -0.1227
    118  CA         3.1590   41.0010    7.8890 C.3   210  TRP210      0.1737
    119  C          2.3240   42.2070    7.4400 C.2   210  TRP210      0.2595
    120  O          1.0990   42.2410    7.6250 O.2   210  TRP210     -0.2718
    121  CB         3.6150   41.1590    9.3440 C.3   210  TRP210      0.0564
    122  CG         4.7100   42.1650    9.5910 C.ar  210  TRP210      0.0003
    123  CD1        4.5640   43.4790    9.9470 C.ar  210  TRP210      0.0946
    124  CD2        6.1310   41.9180    9.5510 C.ar  210  TRP210      0.0152
    125  NE1        5.8060   44.0650   10.1160 N.ar  210  TRP210     -0.2442
    126  CE2        6.7760   43.1330    9.8740 C.ar  210  TRP210      0.0810
    127  CE3        6.9060   40.7950    9.2650 C.ar  210  TRP210      0.0012
    128  CZ2        8.1640   43.2440    9.9350 C.ar  210  TRP210      0.0191
    129  CZ3        8.2920   40.9140    9.3210 C.ar  210  TRP210      0.0001
    130  CH2        8.8980   42.1250    9.6470 C.ar  210  TRP210      0.0015
    131  N          2.9900   43.1910    6.8560 N.am  211  ILE211     -0.1980
    132  CA         2.3070   44.3610    6.3160 C.3   211  ILE211      0.1595
    133  C          1.5960   44.0030    5.0170 C.2   211  ILE211      0.2287
    134  O          0.4470   44.3900    4.7990 O.2   211  ILE211     -0.2864
    135  CB         3.2990   45.4980    6.0530 C.3   211  ILE211      0.0276
    136  CG1        3.9930   45.8780    7.3580 C.3   211  ILE211      0.0022
    137  CG2        2.5950   46.6830    5.3850 C.3   211  ILE211      0.0022
    138  CD1        3.0460   46.2730    8.4290 C.3   211  ILE211      0.0001
    139  N          7.6970   39.4620   15.9520 N.3   224  PHE224     -0.1241
    140  CA         8.7340   39.8030   16.9180 C.3   224  PHE224      0.1605
    141  C          8.4390   39.1450   18.2560 C.2   224  PHE224      0.2264
    142  O          7.2980   39.1440   18.7180 O.2   224  PHE224     -0.2867
    143  CB         8.8680   41.3280   17.0700 C.3   224  PHE224      0.0534
    144  CG         9.7690   41.7550   18.2150 C.ar  224  PHE224     -0.0203
    145  CD1       11.1500   41.6150   18.1300 C.ar  224  PHE224     -0.0042
    146  CD2        9.2290   42.2860   19.3820 C.ar  224  PHE224     -0.0042
    147  CE1       11.9770   41.9960   19.1950 C.ar  224  PHE224     -0.0003
    148  CE2       10.0440   42.6720   20.4360 C.ar  224  PHE224     -0.0003
    149  CZ        11.4180   42.5240   20.3450 C.ar  224  PHE224     -0.0000
@<TRIPOS>BOND
     1   107   106    1
     2   107   108    1
     3   106   104   am
     4   108   109    2
     5   104   103    1
     6   104   105    2
     7   103   102    1
     8   110   111    1
     9   110   116    1
    10   134   133    2
    11    24    23    2
    12   113   112    2
    13   112   111    1
    14   111   114    1
    15   133   132    1
    16   102    90   am
    17   137   135    1
    18    23    22    1
    19   116   115    1
    20    29    27   ar
    21    29    31   ar
    22   135   132    1
    23   135   136    1
    24    27    26   ar
    25   132   131    1
    26    90    91    2
    27    90    89    1
    28   114   115    1
    29    32    31    1
    30    31    30   ar
    31   131   119   am
    32    22    25    1
    33    22    21    1
    34   117   118    1
    35    26    25    1
    36    26    28   ar
    37    77    76    2
    38   136   138    1
    39    30    28   ar
    40   119   120    2
    41   119   118    1
    42    89    88    1
    43    89    92    1
    44    66    65    2
    45   118   121    1
    46    76    88   am
    47    76    75    1
    48    92    93    1
    49    65    64    1
    50    65    74   am
    51    75    74    1
    52    75    78    1
    53   127   129   ar
    54   127   124   ar
    55   129   130   ar
    56    56    55    2
    57   121   122    1
    58    64    67    1
    59    64    63    1
    60   124   122   ar
    61   124   126   ar
    62   122   123   ar
    63   130   128   ar
    64    98    95   ar
    65    98   100   ar
    66   126   128   ar
    67   126   125   ar
    68    67    68    1
    69   123   125   ar
    70    93    95   ar
    71    93    94   ar
    72    84    86   ar
    73    84    81   ar
    74    86    87   ar
    75    78    79    1
    76    95    97   ar
    77    55    63   am
    78    55    54    1
    79   100   101   ar
    80    68    69    1
    81    81    79   ar
    82    81    83   ar
    83    94    96   ar
    84    79    80   ar
    85    87    85   ar
    86    69    70    1
    87    57    54    1
    88    57    58    1
    89    54    53    1
    90    97    96   ar
    91    97    99   ar
    92   101    99   ar
    93    59    58   ar
    94    59    61   ar
    95    83    85   ar
    96    83    82   ar
    97    58    60   ar
    98    80    82   ar
    99    72    71    1
   100    70    71    2
   101    61    62   ar
   102    71    73    1
   103    60    62   ar
   104    36    35    2
   105    35    34    1
   106    35    42   am
   107    34    37    1
   108    34    33    1
   109    45    44    2
   110   139   140    1
   111    37    38    1
   112    44    43    1
   113    42    43    1
   114    43    46    1
   115   140   143    1
   116   140   141    1
   117   143   144    1
   118    38    39    1
   119    39    40    1
   120   145   144   ar
   121   145   147   ar
   122     8     6    1
   123   144   146   ar
   124   141   142    2
   125    46    47    1
   126    20    19    1
   127    40    41    1
   128    48    47   ar
   129    48    50   ar
   130     7     6    1
   131    47    49   ar
   132   147   149   ar
   133     6     5    1
   134   146   148   ar
   135    50    52   ar
   136    19    18   ar
   137    19    17   ar
   138    49    51   ar
   139    18    16   ar
   140    52    51   ar
   141   149   148   ar
   142     5     2    1
   143    17    15   ar
   144    16    14   ar
   145     2     1    1
   146     2     3    1
   147    15    14   ar
   148    14    13    1
   149     3     4    2
   150    13    10    1
   151     9    10    1
   152    10    11    1
   153    11    12    2
