@<TRIPOS>MOLECULE
tmp/3nksA00.pdb
 157 150 0 0 0
SMALL
GASTEIGER

@<TRIPOS>ATOM
      1  N        -27.3640    7.9820   37.5910 N.3    58  ARG58      -0.1245
      2  CA       -27.4460    9.4360   37.6380 C.3    58  ARG58       0.1563
      3  C        -26.1460   10.0370   38.1550 C.2    58  ARG58       0.2260
      4  O        -26.0740   11.2220   38.4670 O.2    58  ARG58      -0.2867
      5  CB       -28.6180    9.8510   38.5330 C.3    58  ARG58       0.0307
      6  CG       -28.5580    9.2840   39.9440 C.3    58  ARG58       0.0489
      7  CD       -29.9580    9.0690   40.4920 C.3    58  ARG58       0.2205
      8  NE       -30.7190    8.2170   39.5820 N.pl3  58  ARG58      -0.0865
      9  CZ       -31.8450    8.5770   38.9750 C.cat  58  ARG58       0.5346
     10  NH1      -32.3640    9.7810   39.1930 N.pl3  58  ARG58       0.1354
     11  NH2      -32.4270    7.7440   38.1150 N.pl3  58  ARG58       0.1354
     12  N        -25.5730    9.6250   53.7870 N.3    96  ARG96      -0.1231
     13  CA       -26.4670    8.5890   53.2710 C.3    96  ARG96       0.1694
     14  C        -27.4010    8.2380   54.4270 C.2    96  ARG96       0.2592
     15  O        -26.9730    8.2120   55.5800 O.2    96  ARG96      -0.2718
     16  CB       -25.6800    7.3580   52.8150 C.3    96  ARG96       0.0321
     17  CG       -25.1580    7.4850   51.3900 C.3    96  ARG96       0.0489
     18  CD       -24.2720    6.3170   50.9830 C.3    96  ARG96       0.2205
     19  NE       -24.0680    6.2830   49.5340 N.pl3  96  ARG96      -0.0865
     20  CZ       -23.5080    7.2590   48.8210 C.cat  96  ARG96       0.5346
     21  NH1      -23.0780    8.3660   49.4140 N.pl3  96  ARG96       0.1354
     22  NH2      -23.3970    7.1350   47.5060 N.pl3  96  ARG96       0.1354
     23  N        -28.6710    7.9830   54.1290 N.am   97  PHE97      -0.1976
     24  CA       -29.6350    7.6800   55.1840 C.3    97  PHE97       0.1639
     25  C        -30.3400    6.3360   55.0400 C.2    97  PHE97       0.2290
     26  O        -30.3300    5.7190   53.9760 O.2    97  PHE97      -0.2864
     27  CB       -30.7030    8.7830   55.2410 C.3    97  PHE97       0.0560
     28  CG       -30.1640   10.1390   55.5960 C.ar   97  PHE97      -0.0200
     29  CD1      -30.1270   10.5630   56.9230 C.ar   97  PHE97      -0.0042
     30  CD2      -29.6800   10.9900   54.6100 C.ar   97  PHE97      -0.0042
     31  CE1      -29.6130   11.8160   57.2640 C.ar   97  PHE97      -0.0003
     32  CE2      -29.1600   12.2490   54.9410 C.ar   97  PHE97      -0.0003
     33  CZ       -29.1290   12.6600   56.2690 C.ar   97  PHE97      -0.0000
     34  N        -28.1750   -2.2380   51.4650 N.3   162  LEU162     -0.1245
     35  CA       -27.1290   -1.9990   50.4740 C.3   162  LEU162      0.1561
     36  C        -27.3270   -2.8320   49.2050 C.2   162  LEU162      0.2260
     37  O        -27.0620   -2.3530   48.1030 O.2   162  LEU162     -0.2867
     38  CB       -25.7470   -2.2790   51.0790 C.3   162  LEU162      0.0270
     39  CG       -24.5480   -1.8750   50.2110 C.3   162  LEU162      0.0019
     40  CD1      -24.5830   -0.3710   49.9380 C.3   162  LEU162      0.0001
     41  CD2      -23.2580   -2.2580   50.9240 C.3   162  LEU162      0.0001
     42  N        -30.1080   -3.7180   47.9690 N.3   164  ARG164     -0.1231
     43  CA       -31.2170   -3.1110   47.2490 C.3   164  ARG164      0.1694
     44  C        -30.7680   -1.8220   46.5540 C.2   164  ARG164      0.2593
     45  O        -31.1880   -1.5340   45.4360 O.2   164  ARG164     -0.2718
     46  CB       -32.3770   -2.8440   48.2200 C.3   164  ARG164      0.0321
     47  CG       -33.1810   -4.1170   48.5350 C.3   164  ARG164      0.0489
     48  CD       -33.7660   -4.1310   49.9460 C.3   164  ARG164      0.2205
     49  NE       -34.7710   -3.1000   50.1760 N.pl3 164  ARG164     -0.0865
     50  CZ       -36.0490   -3.1840   49.8130 C.cat 164  ARG164      0.5346
     51  NH1      -36.5030   -4.2590   49.1900 N.pl3 164  ARG164      0.1354
     52  NH2      -36.8780   -2.1860   50.0870 N.pl3 164  ARG164      0.1354
     53  N        -29.8960   -1.0600   47.2080 N.am  165  GLY165     -0.1942
     54  CA       -29.4250    0.1820   46.6220 C.3   165  GLY165      0.2014
     55  C        -28.4780    0.0020   45.4410 C.2   165  GLY165      0.2638
     56  O        -28.4280    0.8480   44.5490 O.2   165  GLY165     -0.2714
     57  N        -27.7360   -1.1020   45.4340 N.am  166  VAL166     -0.1977
     58  CA       -26.7700   -1.3850   44.3710 C.3   166  VAL166      0.1596
     59  C        -27.2990   -2.3400   43.2960 C.2   166  VAL166      0.2287
     60  O        -27.1020   -2.1120   42.1010 O.2   166  VAL166     -0.2864
     61  CB       -25.4740   -2.0150   44.9610 C.3   166  VAL166      0.0276
     62  CG1      -24.4880   -2.3450   43.8400 C.3   166  VAL166      0.0022
     63  CG2      -24.8500   -1.0700   45.9770 C.3   166  VAL166      0.0022
     64  N        -30.7080   -3.7080   43.5320 N.3   168  ALA168     -0.1245
     65  CA       -32.1710   -3.7570   43.5690 C.3   168  ALA168      0.1562
     66  C        -32.5630   -5.2090   43.8470 C.2   168  ALA168      0.2260
     67  O        -33.6180   -5.6850   43.4090 O.2   168  ALA168     -0.2867
     68  CB       -32.7470   -3.3050   42.2340 C.3   168  ALA168      0.0290
     69  N        -37.0020   -2.8930   37.7120 N.3   305  VAL305     -0.1245
     70  CA       -37.0290   -1.7360   38.5930 C.3   305  VAL305      0.1561
     71  C        -37.9330   -0.6840   37.9700 C.2   305  VAL305      0.2260
     72  O        -37.8360   -0.4070   36.7710 O.2   305  VAL305     -0.2867
     73  CB       -35.6310   -1.0900   38.7780 C.3   305  VAL305      0.0252
     74  CG1      -35.7790    0.2200   39.5460 C.3   305  VAL305      0.0019
     75  CG2      -34.6950   -2.0290   39.5440 C.3   305  VAL305      0.0019
     76  N        -27.4310   12.4030   50.1710 N.3   322  PHE322     -0.1227
     77  CA       -27.4400   11.7590   48.8610 C.3   322  PHE322      0.1736
     78  C        -28.8460   11.2310   48.5790 C.2   322  PHE322      0.2596
     79  O        -29.3810   11.3780   47.4790 O.2   322  PHE322     -0.2718
     80  CB       -26.4670   10.5810   48.8470 C.3   322  PHE322      0.0547
     81  CG       -26.4940    9.7960   47.5640 C.ar  322  PHE322     -0.0202
     82  CD1      -25.7860   10.2390   46.4490 C.ar  322  PHE322     -0.0042
     83  CD2      -27.2680    8.6420   47.4540 C.ar  322  PHE322     -0.0042
     84  CE1      -25.8460    9.5480   45.2410 C.ar  322  PHE322     -0.0003
     85  CE2      -27.3380    7.9410   46.2480 C.ar  322  PHE322     -0.0003
     86  CZ       -26.6250    8.3960   45.1380 C.ar  322  PHE322     -0.0000
     87  N        -29.4220   10.6070   49.6000 N.am  323  GLY323     -0.1942
     88  CA       -30.7510   10.0230   49.5060 C.3   323  GLY323      0.2014
     89  C        -30.8730    9.0290   50.6480 C.2   323  GLY323      0.2639
     90  O        -30.0760    9.0780   51.5930 O.2   323  GLY323     -0.2714
     91  N        -31.8550    8.1310   50.5880 N.am  324  HIS324     -0.1959
     92  CA       -31.9880    7.1350   51.6410 C.3   324  HIS324      0.1787
     93  C        -32.4060    5.7760   51.1120 C.2   324  HIS324      0.2620
     94  O        -33.0590    5.6640   50.0750 O.2   324  HIS324     -0.2715
     95  CB       -32.9670    7.5950   52.7490 C.3   324  HIS324      0.0785
     96  CG       -34.4110    7.6020   52.3480 C.ar  324  HIS324      0.0821
     97  ND1      -35.0740    8.7490   51.9700 N.ar  324  HIS324     -0.2267
     98  CD2      -35.3290    6.6050   52.2970 C.ar  324  HIS324      0.1154
     99  CE1      -36.3370    8.4610   51.7040 C.ar  324  HIS324      0.1986
    100  NE2      -36.5170    7.1660   51.8940 N.ar  324  HIS324     -0.2212
    101  N        -31.9960    4.7390   51.8260 N.am  325  LEU325     -0.1977
    102  CA       -32.3380    3.3840   51.4530 C.3   325  LEU325      0.1596
    103  C        -33.4710    2.9200   52.3630 C.2   325  LEU325      0.2287
    104  O        -33.6580    3.4600   53.4610 O.2   325  LEU325     -0.2864
    105  CB       -31.1190    2.4740   51.6090 C.3   325  LEU325      0.0297
    106  CG       -29.9840    2.7360   50.6120 C.3   325  LEU325      0.0022
    107  CD1      -28.7590    1.9090   51.0000 C.3   325  LEU325      0.0001
    108  CD2      -30.4520    2.3810   49.2020 C.3   325  LEU325      0.0001
    109  N        -37.3610    0.5900   47.2030 N.3   335  LEU335     -0.1231
    110  CA       -35.9480    0.3010   47.4180 C.3   335  LEU335      0.1693
    111  C        -35.2070    1.4810   48.0540 C.2   335  LEU335      0.2593
    112  O        -34.3340    1.2990   48.9010 O.2   335  LEU335     -0.2718
    113  CB       -35.2930   -0.0670   46.0820 C.3   335  LEU335      0.0284
    114  CG       -35.9020   -1.2400   45.3080 C.3   335  LEU335      0.0019
    115  CD1      -35.2540   -1.3380   43.9320 C.3   335  LEU335      0.0001
    116  CD2      -35.7020   -2.5320   46.0920 C.3   335  LEU335      0.0001
    117  N        -35.5650    2.6880   47.6370 N.am  336  GLY336     -0.1942
    118  CA       -34.9260    3.8750   48.1680 C.3   336  GLY336      0.2014
    119  C        -35.2980    5.0900   47.3540 C.2   336  GLY336      0.2639
    120  O        -36.0040    4.9700   46.3530 O.2   336  GLY336     -0.2714
    121  N        -34.8250    6.2550   47.7900 N.am  337  ILE337     -0.1963
    122  CA       -35.0950    7.5150   47.1180 C.3   337  ILE337      0.1727
    123  C        -33.8040    8.3280   47.0100 C.2   337  ILE337      0.2616
    124  O        -33.0800    8.4900   47.9990 O.2   337  ILE337     -0.2715
    125  CB       -36.1350    8.3430   47.9030 C.3   337  ILE337      0.0290
    126  CG1      -37.4430    7.5540   48.0200 C.3   337  ILE337      0.0022
    127  CG2      -36.3760    9.6850   47.2130 C.3   337  ILE337      0.0023
    128  CD1      -38.5130    8.2790   48.8210 C.3   337  ILE337      0.0001
    129  N        -33.5110    8.8200   45.8080 N.am  338  VAL338     -0.1977
    130  CA       -32.3160    9.6290   45.5970 C.3   338  VAL338      0.1596
    131  C        -32.7220   11.1000   45.5880 C.2   338  VAL338      0.2287
    132  O        -33.7160   11.4750   44.9590 O.2   338  VAL338     -0.2864
    133  CB       -31.6260    9.2930   44.2500 C.3   338  VAL338      0.0276
    134  CG1      -30.3670   10.1300   44.0920 C.3   338  VAL338      0.0022
    135  CG2      -31.2770    7.8150   44.1950 C.3   338  VAL338      0.0022
    136  N        -37.0850    4.6160   43.6030 N.3   359  MET359     -0.1245
    137  CA       -36.7990    3.3510   42.9300 C.3   359  MET359      0.1570
    138  C        -37.6950    2.2670   43.5350 C.2   359  MET359      0.2261
    139  O        -37.6250    1.9980   44.7340 O.2   359  MET359     -0.2867
    140  CB       -35.3300    2.9700   43.1280 C.3   359  MET359      0.0387
    141  CG       -34.3450    4.0400   42.6670 C.3   359  MET359      0.0595
    142  SD       -34.4240    4.3130   40.8930 S.3   359  MET359     -0.1393
    143  CE       -32.9420    5.3720   40.6360 C.3   359  MET359      0.0692
    144  N        -33.6250   -5.2280   34.2450 N.3   409  CYS409     -0.1221
    145  CA       -32.5600   -4.2550   34.0510 C.3   409  CYS409      0.1808
    146  C        -31.3050   -4.4430   34.9060 C.2   409  CYS409      0.2601
    147  O        -30.2530   -3.9100   34.5650 O.2   409  CYS409     -0.2717
    148  CB       -33.1120   -2.8380   34.2570 C.3   409  CYS409      0.0970
    149  SG       -33.8310   -2.5620   35.8920 S.3   409  CYS409     -0.0800
    150  N        -31.4010   -5.1650   36.0200 N.am  410  ILE410     -0.1979
    151  CA       -30.2030   -5.3820   36.8370 C.3   410  ILE410      0.1595
    152  C        -29.9020   -6.8550   37.0770 C.2   410  ILE410      0.2287
    153  O        -30.5940   -7.5350   37.8410 O.2   410  ILE410     -0.2864
    154  CB       -30.2840   -4.6470   38.1900 C.3   410  ILE410      0.0276
    155  CG1      -30.4560   -3.1430   37.9350 C.3   410  ILE410      0.0022
    156  CG2      -28.9800   -4.8610   38.9840 C.3   410  ILE410      0.0022
    157  CD1      -30.4440   -2.3180   39.1660 C.3   410  ILE410      0.0001
@<TRIPOS>BOND
     1   145   144    1
     2   145   148    1
     3   145   146    1
     4   148   149    1
     5   147   146    2
     6   146   150   am
     7   150   151    1
     8    72    71    2
     9   151   152    1
    10   151   154    1
    11   152   153    2
    12     1     2    1
    13     2     3    1
    14     2     5    1
    15    69    70    1
    16   155   154    1
    17   155   157    1
    18    71    70    1
    19    11     9    1
    20     3     4    2
    21   154   156    1
    22     5     6    1
    23    70    73    1
    24    73    75    1
    25    73    74    1
    26     9    10    1
    27     9     8    2
    28     8     7    1
    29     6     7    1
    30   143   142    1
    31   142   141    1
    32    60    59    2
    33    68    65    1
    34   141   140    1
    35   137   140    1
    36   137   138    1
    37   137   136    1
    38    59    58    1
    39    67    66    2
    40    64    65    1
    41   138   139    2
    42    65    66    1
    43    62    61    1
    44   115   114    1
    45   134   133    1
    46   135   133    1
    47   133   130    1
    48    58    61    1
    49    58    57    1
    50    56    55    2
    51   132   131    2
    52    61    63    1
    53    86    84   ar
    54    86    85   ar
    55    84    82   ar
    56   114   113    1
    57   114   116    1
    58    57    55   am
    59    45    44    2
    60    55    54    1
    61   131   130    1
    62   130   129    1
    63   129   123   am
    64   113   110    1
    65    85    83   ar
    66   120   119    2
    67    82    81   ar
    68    44    53   am
    69    44    43    1
    70    54    53    1
    71   123   122    1
    72   123   124    2
    73   122   121    1
    74   122   125    1
    75   109   110    1
    76   127   125    1
    77    43    42    1
    78    43    46    1
    79   119   121   am
    80   119   118    1
    81   110   111    1
    82    83    81   ar
    83    79    78    2
    84    22    20    1
    85    81    80    1
    86   117   111   am
    87   117   118    1
    88   125   126    1
    89   126   128    1
    90   111   112    2
    91    37    36    2
    92    46    47    1
    93    47    48    1
    94    78    77    1
    95    78    87   am
    96    20    21    1
    97    20    19    2
    98    80    77    1
    99    77    76    1
   100    51    50    1
   101   108   106    1
   102    36    35    1
   103    88    87    1
   104    88    89    1
   105    19    18    1
   106    50    52    1
   107    50    49    2
   108    40    39    1
   109    48    49    1
   110    94    93    2
   111    39    41    1
   112    39    38    1
   113    35    38    1
   114    35    34    1
   115    91    89   am
   116    91    92    1
   117   106   107    1
   118   106   105    1
   119    89    90    2
   120    18    17    1
   121    93    92    1
   122    93   101   am
   123    17    16    1
   124   102   105    1
   125   102   101    1
   126   102   103    1
   127    92    95    1
   128    99   100   ar
   129    99    97   ar
   130   100    98   ar
   131    97    96   ar
   132    98    96   ar
   133    96    95    1
   134   103   104    2
   135    16    13    1
   136    13    12    1
   137    13    14    1
   138    26    25    2
   139    23    14   am
   140    23    24    1
   141    14    15    2
   142    30    32   ar
   143    30    28   ar
   144    32    33   ar
   145    25    24    1
   146    24    27    1
   147    27    28    1
   148    28    29   ar
   149    33    31   ar
   150    29    31   ar
