@<TRIPOS>MOLECULE
tmp/3nktA00.pdb
 125 119 0 0 0
SMALL
GASTEIGER

@<TRIPOS>ATOM
      1  N        -13.0770  -22.9630  -30.4030 N.3    80  ARG80      -0.1245
      2  CA       -12.0210  -22.0150  -30.0580 C.3    80  ARG80       0.1563
      3  C        -11.2070  -21.5680  -31.2920 C.2    80  ARG80       0.2260
      4  O        -10.9060  -22.3880  -32.1770 O.2    80  ARG80      -0.2867
      5  CB       -11.0670  -22.6250  -28.9880 C.3    80  ARG80       0.0307
      6  CG       -11.7530  -23.2980  -27.7380 C.3    80  ARG80       0.0489
      7  CD       -12.3640  -22.2540  -26.7920 C.3    80  ARG80       0.2205
      8  NE       -12.9050  -22.7920  -25.5440 N.pl3  80  ARG80      -0.0865
      9  CZ       -14.2030  -22.9000  -25.2550 C.cat  80  ARG80       0.5346
     10  NH1      -15.1250  -22.5680  -26.1580 N.pl3  80  ARG80       0.1354
     11  NH2      -14.5820  -23.3680  -24.0590 N.pl3  80  ARG80       0.1354
     12  N         -8.1090  -21.3630  -31.8170 N.3    82  ALA82      -0.1245
     13  CA        -6.8780  -21.8780  -31.2570 C.3    82  ALA82       0.1562
     14  C         -5.9950  -22.5540  -32.3340 C.2    82  ALA82       0.2260
     15  O         -6.4520  -23.4200  -33.0890 O.2    82  ALA82      -0.2867
     16  CB        -7.1790  -22.8210  -30.0720 C.3    82  ALA82       0.0290
     17  N         -0.8830  -31.1780  -26.5950 N.3   101  TRP101     -0.1241
     18  CA        -1.2160  -30.0280  -27.3980 C.3   101  TRP101      0.1605
     19  C         -0.6650  -28.7970  -26.7080 C.2   101  TRP101      0.2264
     20  O         -0.8960  -28.5770  -25.5190 O.2   101  TRP101     -0.2867
     21  CB        -2.7340  -29.8900  -27.5350 C.3   101  TRP101      0.0550
     22  CG        -3.1720  -28.5370  -28.0270 C.ar  101  TRP101      0.0003
     23  CD1       -3.0520  -27.3400  -27.3700 C.ar  101  TRP101      0.0946
     24  CD2       -3.7720  -28.2410  -29.2860 C.ar  101  TRP101      0.0152
     25  NE1       -3.5470  -26.3160  -28.1410 N.ar  101  TRP101     -0.2442
     26  CE2       -4.0140  -26.8450  -29.3190 C.ar  101  TRP101      0.0810
     27  CE3       -4.1360  -29.0200  -30.3930 C.ar  101  TRP101      0.0012
     28  CZ2       -4.6290  -26.2040  -30.4270 C.ar  101  TRP101      0.0191
     29  CZ3       -4.7420  -28.3970  -31.4790 C.ar  101  TRP101      0.0001
     30  CH2       -4.9790  -26.9920  -31.4860 C.ar  101  TRP101      0.0015
     31  N         -4.2260  -19.2490  -28.5230 N.3   105  GLN105     -0.1245
     32  CA        -5.6110  -18.9230  -28.6980 C.3   105  GLN105      0.1566
     33  C         -5.7690  -17.4000  -28.6820 C.2   105  GLN105      0.2260
     34  O         -5.0980  -16.7100  -27.9530 O.2   105  GLN105     -0.2867
     35  CB        -6.4790  -19.6210  -27.6390 C.3   105  GLN105      0.0367
     36  CG        -7.9400  -19.2550  -27.7780 C.3   105  GLN105      0.0905
     37  CD        -8.8940  -20.1400  -27.0080 C.2   105  GLN105      0.2608
     38  OE1       -8.5160  -21.1420  -26.3830 O.2   105  GLN105     -0.2717
     39  NE2      -10.1310  -19.7580  -27.0240 N.am  105  GLN105     -0.0878
     40  N        -17.9720  -25.6710  -22.4610 N.3   116  HIS116     -0.1241
     41  CA       -17.9420  -27.1140  -22.6560 C.3   116  HIS116      0.1621
     42  C        -17.1720  -27.8110  -21.5320 C.2   116  HIS116      0.2264
     43  O        -16.6040  -27.1370  -20.6840 O.2   116  HIS116     -0.2867
     44  CB       -17.4140  -27.4540  -24.0640 C.3   116  HIS116      0.0745
     45  CG       -15.9700  -27.1080  -24.2950 C.ar  116  HIS116      0.0817
     46  ND1      -15.5290  -26.4870  -25.4490 N.ar  116  HIS116     -0.2268
     47  CD2      -14.8630  -27.3320  -23.5430 C.ar  116  HIS116      0.1154
     48  CE1      -14.2190  -26.3100  -25.3800 C.ar  116  HIS116      0.1986
     49  NE2      -13.7900  -26.8150  -24.2350 N.ar  116  HIS116     -0.2212
     50  N        -14.6090  -31.7030  -20.9740 N.3   118  HIS118     -0.1241
     51  CA       -13.9230  -32.8090  -21.6000 C.3   118  HIS118      0.1621
     52  C        -12.9980  -33.4980  -20.5800 C.2   118  HIS118      0.2264
     53  O        -12.5020  -32.8480  -19.6790 O.2   118  HIS118     -0.2867
     54  CB       -13.1710  -32.3490  -22.8470 C.3   118  HIS118      0.0745
     55  CG       -12.5230  -31.0010  -22.7360 C.ar  118  HIS118      0.0817
     56  ND1      -11.3080  -30.7930  -22.1000 N.ar  118  HIS118     -0.2268
     57  CD2      -12.9040  -29.7930  -23.2160 C.ar  118  HIS118      0.1154
     58  CE1      -10.9830  -29.5170  -22.1840 C.ar  118  HIS118      0.1986
     59  NE2      -11.9370  -28.8860  -22.8480 N.ar  118  HIS118     -0.2212
     60  N         -4.2140  -22.5730  -19.0370 N.3   124  ARG124     -0.1245
     61  CA        -3.9340  -21.3830  -19.8500 C.3   124  ARG124      0.1563
     62  C         -2.7010  -20.6810  -19.3190 C.2   124  ARG124      0.2260
     63  O         -2.5020  -20.5380  -18.0950 O.2   124  ARG124     -0.2867
     64  CB        -5.0840  -20.3580  -19.8090 C.3   124  ARG124      0.0307
     65  CG        -6.4910  -20.8810  -19.6910 C.3   124  ARG124      0.0489
     66  CD        -6.8720  -21.5710  -20.9450 C.3   124  ARG124      0.2205
     67  NE        -7.9920  -22.4800  -20.7740 N.pl3 124  ARG124     -0.0865
     68  CZ        -8.1880  -23.5820  -21.5080 C.cat 124  ARG124      0.5346
     69  NH1       -7.3140  -23.9350  -22.4560 N.pl3 124  ARG124      0.1354
     70  NH2       -9.2520  -24.3450  -21.2860 N.pl3 124  ARG124      0.1354
     71  N        -16.0640  -24.9360  -18.7010 N.3   157  HIS157     -0.1241
     72  CA       -15.3430  -23.6780  -18.9050 C.3   157  HIS157      0.1621
     73  C        -15.7540  -23.0730  -20.2190 C.2   157  HIS157      0.2264
     74  O        -15.9470  -23.7900  -21.2050 O.2   157  HIS157     -0.2867
     75  CB       -13.8240  -23.8950  -18.8930 C.3   157  HIS157      0.0745
     76  CG       -13.3500  -24.9170  -19.8730 C.ar  157  HIS157      0.0817
     77  ND1      -13.5900  -26.2720  -19.7140 N.ar  157  HIS157     -0.2268
     78  CD2      -12.6610  -24.7940  -21.0320 C.ar  157  HIS157      0.1154
     79  CE1      -13.0660  -26.9360  -20.7300 C.ar  157  HIS157      0.1986
     80  NE2      -12.4820  -26.0680  -21.5380 N.ar  157  HIS157     -0.2212
     81  N        -14.8500  -18.9050  -22.2050 N.3   159  HIS159     -0.1241
     82  CA       -14.0970  -17.6600  -22.0500 C.3   159  HIS159      0.1621
     83  C        -14.9070  -16.4980  -22.6450 C.2   159  HIS159      0.2264
     84  O        -15.6190  -16.6830  -23.6370 O.2   159  HIS159     -0.2867
     85  CB       -12.7150  -17.7460  -22.7240 C.3   159  HIS159      0.0745
     86  CG       -12.1090  -19.1260  -22.7240 C.ar  159  HIS159      0.0817
     87  ND1      -11.6560  -19.7580  -21.5770 N.ar  159  HIS159     -0.2268
     88  CD2      -11.8720  -19.9920  -23.7400 C.ar  159  HIS159      0.1154
     89  CE1      -11.1730  -20.9490  -21.8840 C.ar  159  HIS159      0.1986
     90  NE2      -11.2830  -21.1140  -23.1930 N.ar  159  HIS159     -0.2212
     91  N         -2.6050  -22.4440  -24.6740 N.3   171  ASP171     -0.1239
     92  CA        -3.2300  -23.5960  -24.0650 C.3   171  ASP171      0.1674
     93  C         -2.2580  -24.7590  -24.0510 C.2   171  ASP171      0.2266
     94  O         -1.4730  -24.9570  -25.0210 O.2   171  ASP171     -0.2867
     95  CB        -4.4080  -24.0170  -24.8760 C.3   171  ASP171      0.1410
     96  CG        -5.3510  -22.9010  -25.1210 C.2   171  ASP171      0.3668
     97  OD1       -5.7890  -22.2350  -24.1490 O.co2 171  ASP171     -0.2456
     98  OD2       -5.6620  -22.6750  -26.3020 O.co2 171  ASP171     -0.2456
     99  N         -2.7080  -29.0020  -23.2290 N.3   173  LEU173     -0.1245
    100  CA        -3.7030  -30.0620  -22.9560 C.3   173  LEU173      0.1561
    101  C         -3.1040  -31.4340  -23.1320 C.2   173  LEU173      0.2260
    102  O         -2.1400  -31.6000  -23.8710 O.2   173  LEU173     -0.2867
    103  CB        -4.9370  -29.9560  -23.8680 C.3   173  LEU173      0.0270
    104  CG        -5.8960  -28.7760  -23.6060 C.3   173  LEU173      0.0019
    105  CD1       -5.4840  -27.4970  -24.3940 C.3   173  LEU173      0.0001
    106  CD2       -7.3290  -29.1760  -23.9140 C.3   173  LEU173      0.0001
    107  N         -4.5970  -33.4960  -24.7750 N.3   175  ILE175     -0.1245
    108  CA        -5.2930  -33.8480  -26.0300 C.3   175  ILE175      0.1561
    109  C         -4.6430  -35.0420  -26.8030 C.2   175  ILE175      0.2260
    110  O         -5.3350  -36.0170  -27.0740 O.2   175  ILE175     -0.2867
    111  CB        -5.5000  -32.5780  -26.9670 C.3   175  ILE175      0.0252
    112  CG1       -6.7190  -31.7920  -26.5510 C.3   175  ILE175      0.0019
    113  CG2       -5.6460  -32.9810  -28.4520 C.3   175  ILE175      0.0019
    114  CD1       -8.0160  -32.6140  -26.5600 C.3   175  ILE175      0.0001
    115  N        -16.6310  -35.8250  -24.0000 N.3   186  PHE186     -0.1241
    116  CA       -16.8800  -34.4410  -24.3500 C.3   186  PHE186      0.1605
    117  C        -18.3190  -34.0780  -24.1850 C.2   186  PHE186      0.2264
    118  O        -19.2080  -34.8650  -24.5110 O.2   186  PHE186     -0.2867
    119  CB       -16.4580  -34.1140  -25.7760 C.3   186  PHE186      0.0534
    120  CG       -16.6110  -32.6590  -26.1120 C.ar  186  PHE186     -0.0203
    121  CD1      -17.8310  -32.1580  -26.5970 C.ar  186  PHE186     -0.0042
    122  CD2      -15.5460  -31.7690  -25.9220 C.ar  186  PHE186     -0.0042
    123  CE1      -17.9850  -30.8030  -26.9000 C.ar  186  PHE186     -0.0003
    124  CE2      -15.7120  -30.4040  -26.2090 C.ar  186  PHE186     -0.0003
    125  CZ       -16.9240  -29.9310  -26.6990 C.ar  186  PHE186     -0.0000
@<TRIPOS>BOND
     1    15    14    2
     2    14    13    1
     3     4     3    2
     4    12    13    1
     5    30    29   ar
     6    30    28   ar
     7    29    27   ar
     8     3     2    1
     9    13    16    1
    10    28    26   ar
    11     1     2    1
    12    27    24   ar
    13     2     5    1
    14    26    24   ar
    15    26    25   ar
    16    24    22   ar
    17     5     6    1
    18    32    33    1
    19    32    31    1
    20    32    35    1
    21    33    34    2
    22   113   111    1
    23    25    23   ar
    24    22    21    1
    25    22    23   ar
    26    36    35    1
    27    36    37    1
    28     6     7    1
    29    21    18    1
    30    18    19    1
    31    18    17    1
    32   110   109    2
    33    39    37   am
    34    37    38    2
    35   111   112    1
    36   111   108    1
    37   123   125   ar
    38   123   121   ar
    39   109   108    1
    40     7     8    1
    41    19    20    2
    42   125   124   ar
    43   121   120   ar
    44   114   112    1
    45    98    96   ar
    46   124   122   ar
    47    10     9    1
    48   120   122   ar
    49   120   119    1
    50   108   107    1
    51   119   116    1
    52     8     9    2
    53    46    48   ar
    54    46    45   ar
    55    48    49   ar
    56     9    11    1
    57    96    95    1
    58    96    97   ar
    59    94    93    2
    60    95    92    1
    61    91    92    1
    62   118   117    2
    63   105   104    1
    64   116   117    1
    65   116   115    1
    66    45    44    1
    67    45    47   ar
    68    49    47   ar
    69    92    93    1
    70    44    41    1
    71   106   104    1
    72   102   101    2
    73   103   104    1
    74   103   100    1
    75    88    90   ar
    76    88    86   ar
    77    84    83    2
    78    99   100    1
    79    57    59   ar
    80    57    55   ar
    81    90    89   ar
    82   101   100    1
    83    59    58   ar
    84    54    55    1
    85    54    51    1
    86    55    56   ar
    87    85    86    1
    88    85    82    1
    89    86    87   ar
    90    41    40    1
    91    41    42    1
    92    83    82    1
    93    69    68    1
    94    81    82    1
    95    58    56   ar
    96    89    87   ar
    97    51    50    1
    98    51    52    1
    99    80    78   ar
   100    80    79   ar
   101    42    43    2
   102    68    70    1
   103    68    67    2
   104    74    73    2
   105    78    76   ar
   106    66    67    1
   107    66    65    1
   108    79    77   ar
   109    52    53    2
   110    73    72    1
   111    76    77   ar
   112    76    75    1
   113    61    64    1
   114    61    62    1
   115    61    60    1
   116    64    65    1
   117    62    63    2
   118    72    75    1
   119    72    71    1
