@<TRIPOS>MOLECULE
tmp/3nkzA00.pdb
 91 84 0 0 0
SMALL
GASTEIGER

@<TRIPOS>ATOM
      1  N          0.7600   -1.4350   29.5610 N.3    13  TYR13      -0.1241
      2  CA         1.0820   -1.3120   30.9740 C.3    13  TYR13       0.1605
      3  C          0.3990   -0.0920   31.5750 C.2    13  TYR13       0.2264
      4  O          0.0340   -0.0780   32.7580 O.2    13  TYR13      -0.2867
      5  CB         2.6010   -1.2530   31.1600 C.3    13  TYR13       0.0534
      6  CG         3.1960   -2.6090   31.4330 C.ar   13  TYR13      -0.0201
      7  CD1        3.3430   -3.0660   32.7410 C.ar   13  TYR13      -0.0009
      8  CD2        3.5740   -3.4500   30.3920 C.ar   13  TYR13      -0.0009
      9  CE1        3.8650   -4.3250   33.0100 C.ar   13  TYR13       0.0417
     10  CE2        4.1030   -4.7170   30.6470 C.ar   13  TYR13       0.0417
     11  CZ         4.2460   -5.1450   31.9670 C.ar   13  TYR13       0.1957
     12  OH         4.7690   -6.3910   32.2580 O.3    13  TYR13      -0.2866
     13  N         -3.1450   -1.2650   32.3430 N.3    16  ILE16      -0.1245
     14  CA        -3.1920   -2.0570   33.5650 C.3    16  ILE16       0.1561
     15  C         -2.9730   -1.2050   34.8140 C.2    16  ILE16       0.2260
     16  O         -3.7370   -1.2830   35.7730 O.2    16  ILE16      -0.2867
     17  CB        -2.1520   -3.1910   33.5600 C.3    16  ILE16       0.0252
     18  CG1       -2.3250   -4.0940   32.3450 C.3    16  ILE16       0.0019
     19  CG2       -2.3060   -4.0570   34.8000 C.3    16  ILE16       0.0019
     20  CD1       -1.3680   -5.2940   32.3860 C.3    16  ILE16       0.0001
     21  N         -9.8690   -5.0850   33.8000 N.3    40  TYR40      -0.1241
     22  CA        -8.5270   -5.2650   34.2920 C.3    40  TYR40       0.1605
     23  C         -7.9470   -6.5380   33.7220 C.2    40  TYR40       0.2264
     24  O         -6.8180   -6.5550   33.2160 O.2    40  TYR40      -0.2867
     25  CB        -8.5760   -5.3810   35.8140 C.3    40  TYR40       0.0534
     26  CG        -7.2310   -5.6060   36.4700 C.ar   40  TYR40      -0.0201
     27  CD1       -6.2940   -4.5870   36.5240 C.ar   40  TYR40      -0.0009
     28  CD2       -6.9040   -6.8290   37.0450 C.ar   40  TYR40      -0.0009
     29  CE1       -5.0720   -4.7700   37.1250 C.ar   40  TYR40       0.0417
     30  CE2       -5.6710   -7.0280   37.6480 C.ar   40  TYR40       0.0417
     31  CZ        -4.7580   -5.9870   37.6900 C.ar   40  TYR40       0.1957
     32  OH        -3.5170   -6.1480   38.2830 O.3    40  TYR40      -0.2866
     33  N         -4.7860   -7.3150   31.0710 N.3    44  VAL44      -0.1245
     34  CA        -3.7630   -8.2880   31.4520 C.3    44  VAL44       0.1561
     35  C         -3.6090   -9.3840   30.4040 C.2    44  VAL44       0.2260
     36  O         -2.4920   -9.7990   30.0940 O.2    44  VAL44      -0.2867
     37  CB        -4.0470   -8.8810   32.8580 C.3    44  VAL44       0.0252
     38  CG1       -3.0570   -9.9440   33.2170 C.3    44  VAL44       0.0019
     39  CG2       -4.0040   -7.7830   33.9030 C.3    44  VAL44       0.0019
     40  N         -1.6940   -8.0380   27.4390 N.3    47  THR47      -0.1203
     41  CA        -0.2760   -7.8560   27.7150 C.3    47  THR47       0.1994
     42  C          0.4400   -9.1930   27.6530 C.2    47  THR47       0.2617
     43  O          1.5190   -9.3140   27.0690 O.2    47  THR47      -0.2717
     44  CB        -0.0360   -7.2500   29.1070 C.3    47  THR47       0.1784
     45  OG1       -0.7460   -6.0040   29.2240 O.3    47  THR47      -0.2211
     46  CG2        1.4750   -7.0310   29.3370 C.3    47  THR47       0.0376
     47  N         -0.1650  -10.1990   28.2710 N.am   48  ALA48      -0.1979
     48  CA         0.4130  -11.5270   28.2690 C.3    48  ALA48       0.1597
     49  C          0.5990  -11.9710   26.8240 C.2    48  ALA48       0.2287
     50  O          1.5960  -12.5920   26.4670 O.2    48  ALA48      -0.2864
     51  CB        -0.4980  -12.4810   29.0100 C.3    48  ALA48       0.0319
     52  N          3.9720  -11.4530   24.4190 N.3    51  THR51      -0.1218
     53  CA         4.9590  -12.5190   24.4380 C.3    51  THR51       0.1862
     54  C          4.5050  -13.7860   23.7190 C.2    51  THR51       0.2287
     55  O          5.2790  -14.4460   23.0160 O.2    51  THR51      -0.2866
     56  CB         5.2300  -12.8980   25.8850 C.3    51  THR51       0.1770
     57  OG1        4.5940  -11.9370   26.7420 O.3    51  THR51      -0.2211
     58  CG2        6.7290  -12.9380   26.1590 C.3    51  THR51       0.0375
     59  N         -3.1000  -19.6460   29.4360 N.3    67  LEU67      -0.1245
     60  CA        -3.4990  -18.2830   29.8030 C.3    67  LEU67       0.1561
     61  C         -5.0120  -18.1890   30.0020 C.2    67  LEU67       0.2260
     62  O         -5.4730  -17.5610   30.9410 O.2    67  LEU67      -0.2867
     63  CB        -3.0110  -17.2610   28.7720 C.3    67  LEU67       0.0270
     64  CG        -3.3870  -15.7760   28.9080 C.3    67  LEU67       0.0019
     65  CD1       -2.8690  -15.1730   30.1960 C.3    67  LEU67       0.0001
     66  CD2       -2.8700  -14.9840   27.7090 C.3    67  LEU67       0.0001
     67  N         -5.7850  -19.8160   33.3370 N.3    70  ILE70      -0.1231
     68  CA        -5.3550  -18.9510   34.4250 C.3    70  ILE70       0.1692
     69  C         -6.3640  -17.8390   34.6550 C.2    70  ILE70       0.2591
     70  O         -6.7330  -17.5190   35.7880 O.2    70  ILE70      -0.2718
     71  CB        -3.9610  -18.3460   34.1340 C.3    70  ILE70       0.0266
     72  CG1       -2.8880  -19.4500   34.1640 C.3    70  ILE70       0.0019
     73  CG2       -3.6340  -17.2530   35.1290 C.3    70  ILE70       0.0020
     74  CD1       -1.5320  -19.0390   33.5400 C.3    70  ILE70       0.0001
     75  N         -6.8260  -17.2530   33.5680 N.am   71  LEU71      -0.1980
     76  CA        -7.7770  -16.1590   33.6680 C.3    71  LEU71       0.1596
     77  C         -9.1370  -16.6480   34.1770 C.2    71  LEU71       0.2287
     78  O         -9.7390  -16.0200   35.0440 O.2    71  LEU71      -0.2864
     79  CB        -7.9050  -15.4520   32.3140 C.3    71  LEU71       0.0297
     80  CG        -6.5950  -14.8020   31.8460 C.3    71  LEU71       0.0022
     81  CD1       -6.6280  -14.3860   30.3740 C.3    71  LEU71       0.0001
     82  CD2       -6.2880  -13.6110   32.7300 C.3    71  LEU71       0.0001
     83  N         -8.7820  -17.2210   37.8540 N.3    74  GLU74      -0.1245
     84  CA        -8.7910  -15.9420   38.5840 C.3    74  GLU74       0.1567
     85  C        -10.2080  -15.3820   38.6800 C.2    74  GLU74       0.2260
     86  O        -10.6030  -14.8210   39.6980 O.2    74  GLU74      -0.2867
     87  CB        -7.8640  -14.9020   37.9280 C.3    74  GLU74       0.0388
     88  CG        -6.4630  -14.7760   38.5520 C.3    74  GLU74       0.1160
     89  CD        -6.3490  -13.6990   39.6430 C.2    74  GLU74       0.3649
     90  OE1       -7.3100  -13.4990   40.4200 O.co2  74  GLU74      -0.2457
     91  OE2       -5.2760  -13.0600   39.7340 O.co2  74  GLU74      -0.2457
@<TRIPOS>BOND
     1    55    54    2
     2    54    53    1
     3    52    53    1
     4    53    56    1
     5    56    58    1
     6    56    57    1
     7    50    49    2
     8    49    48    1
     9    43    42    2
    10    40    41    1
    11    42    41    1
    12    42    47   am
    13    66    64    1
    14    41    44    1
    15    48    47    1
    16    48    51    1
    17    63    64    1
    18    63    60    1
    19    64    65    1
    20    44    45    1
    21    44    46    1
    22    59    60    1
    23     1     2    1
    24    60    61    1
    25    61    62    2
    26    36    35    2
    27    81    80    1
    28     8    10   ar
    29     8     6   ar
    30    35    34    1
    31    10    11   ar
    32     2     5    1
    33     2     3    1
    34    33    34    1
    35     5     6    1
    36     6     7   ar
    37    34    37    1
    38     3     4    2
    39    80    79    1
    40    80    82    1
    41    11    12    1
    42    11     9   ar
    43    79    76    1
    44    13    14    1
    45    18    20    1
    46    18    17    1
    47     7     9   ar
    48    37    38    1
    49    37    39    1
    50    24    23    2
    51    67    68    1
    52    74    72    1
    53    17    14    1
    54    17    19    1
    55    14    15    1
    56    75    76    1
    57    75    69   am
    58    76    77    1
    59    23    22    1
    60    21    22    1
    61    71    72    1
    62    71    68    1
    63    71    73    1
    64    77    78    2
    65    22    25    1
    66    68    69    1
    67    69    70    2
    68    15    16    2
    69    25    26    1
    70    26    27   ar
    71    26    28   ar
    72    27    29   ar
    73    28    30   ar
    74    29    31   ar
    75    30    31   ar
    76    31    32    1
    77    83    84    1
    78    87    88    1
    79    87    84    1
    80    88    89    1
    81    84    85    1
    82    85    86    2
    83    89    91   ar
    84    89    90   ar
