@<TRIPOS>MOLECULE
tmp/3nl1A00.pdb
 129 122 0 0 0
SMALL
GASTEIGER

@<TRIPOS>ATOM
      1  N        -13.3810  -23.4040  -30.1840 N.3    82  ARG82      -0.1245
      2  CA       -12.3140  -22.4910  -29.8590 C.3    82  ARG82       0.1563
      3  C        -11.5180  -22.1030  -31.1000 C.2    82  ARG82       0.2260
      4  O        -11.3160  -22.8740  -31.9770 O.2    82  ARG82      -0.2867
      5  CB       -11.3660  -23.1090  -28.8080 C.3    82  ARG82       0.0307
      6  CG       -12.0130  -23.8060  -27.6460 C.3    82  ARG82       0.0489
      7  CD       -12.4720  -22.8120  -26.6290 C.3    82  ARG82       0.2205
      8  NE       -13.0630  -23.3780  -25.4520 N.pl3  82  ARG82      -0.0865
      9  CZ       -14.3640  -23.4870  -25.2260 C.cat  82  ARG82       0.5346
     10  NH1      -15.2330  -23.1090  -26.1200 N.pl3  82  ARG82       0.1354
     11  NH2      -14.7890  -23.9880  -24.1000 N.pl3  82  ARG82       0.1354
     12  N         -8.2960  -21.8230  -31.7010 N.3    84  ALA84      -0.1245
     13  CA        -7.0230  -22.2470  -31.2110 C.3    84  ALA84       0.1562
     14  C         -6.2290  -22.9210  -32.3090 C.2    84  ALA84       0.2260
     15  O         -6.7520  -23.6210  -33.1150 O.2    84  ALA84      -0.2867
     16  CB        -7.1930  -23.1460  -30.0230 C.3    84  ALA84       0.0290
     17  N         -0.8570  -31.5370  -26.4310 N.3   103  TRP103     -0.1241
     18  CA        -1.2620  -30.5000  -27.3450 C.3   103  TRP103      0.1605
     19  C         -0.8000  -29.1600  -26.7520 C.2   103  TRP103      0.2264
     20  O         -0.8720  -28.9510  -25.5420 O.2   103  TRP103     -0.2867
     21  CB        -2.7760  -30.5160  -27.4920 C.3   103  TRP103      0.0550
     22  CG        -3.3930  -29.1990  -27.9360 C.ar  103  TRP103      0.0003
     23  CD1       -3.5350  -28.0580  -27.1880 C.ar  103  TRP103      0.0946
     24  CD2       -3.9700  -28.9160  -29.2140 C.ar  103  TRP103      0.0152
     25  NE1       -4.1700  -27.0710  -27.9330 N.ar  103  TRP103     -0.2442
     26  CE2       -4.4460  -27.5760  -29.1770 C.ar  103  TRP103      0.0810
     27  CE3       -4.1430  -29.6680  -30.3900 C.ar  103  TRP103      0.0012
     28  CZ2       -5.0800  -26.9800  -30.2570 C.ar  103  TRP103      0.0191
     29  CZ3       -4.7830  -29.0640  -31.4830 C.ar  103  TRP103      0.0001
     30  CH2       -5.2480  -27.7390  -31.4040 C.ar  103  TRP103      0.0015
     31  N         -1.3140  -24.9850  -27.9100 N.3   105  GLY105     -0.1225
     32  CA        -1.9220  -24.1430  -28.8850 C.3   105  GLY105      0.1811
     33  C         -1.9000  -22.6920  -28.4710 C.2   105  GLY105      0.2280
     34  O         -1.8180  -22.3670  -27.2750 O.2   105  GLY105     -0.2866
     35  N         -4.4080  -19.5640  -28.5250 N.3   107  GLN107     -0.1245
     36  CA        -5.8160  -19.2700  -28.6500 C.3   107  GLN107      0.1566
     37  C         -6.0060  -17.7610  -28.6610 C.2   107  GLN107      0.2260
     38  O         -5.3320  -17.0350  -27.9310 O.2   107  GLN107     -0.2867
     39  CB        -6.6390  -19.9190  -27.5280 C.3   107  GLN107      0.0367
     40  CG        -8.1250  -19.5910  -27.6910 C.3   107  GLN107      0.0905
     41  CD        -9.0770  -20.4270  -26.8780 C.2   107  GLN107      0.2608
     42  OE1      -10.2500  -20.1000  -26.8140 O.2   107  GLN107     -0.2717
     43  NE2       -8.5970  -21.5180  -26.2680 N.am  107  GLN107     -0.0878
     44  N        -18.1150  -26.1150  -22.3600 N.3   118  HIS118     -0.1241
     45  CA       -18.1150  -27.5730  -22.5520 C.3   118  HIS118      0.1621
     46  C        -17.2440  -28.2610  -21.5010 C.2   118  HIS118      0.2264
     47  O        -16.5960  -27.5730  -20.7070 O.2   118  HIS118     -0.2867
     48  CB       -17.6950  -27.9320  -23.9800 C.3   118  HIS118      0.0745
     49  CG       -16.3180  -27.4880  -24.3460 C.ar  118  HIS118      0.0817
     50  ND1      -15.2220  -27.6690  -23.5140 N.ar  118  HIS118     -0.2268
     51  CD2      -15.8430  -26.9240  -25.4820 C.ar  118  HIS118      0.1154
     52  CE1      -14.1420  -27.1950  -24.1120 C.ar  118  HIS118      0.1986
     53  NE2      -14.4860  -26.7450  -25.3100 N.ar  118  HIS118     -0.2212
     54  N        -14.6830  -32.1480  -20.9030 N.3   120  HIS120     -0.1241
     55  CA       -14.0220  -33.2970  -21.5600 C.3   120  HIS120      0.1621
     56  C        -13.0890  -33.9960  -20.5960 C.2   120  HIS120      0.2264
     57  O        -12.6190  -33.3980  -19.6470 O.2   120  HIS120     -0.2867
     58  CB       -13.2770  -32.8740  -22.8190 C.3   120  HIS120      0.0745
     59  CG       -12.6340  -31.5280  -22.7290 C.ar  120  HIS120      0.0817
     60  ND1      -11.5220  -31.2790  -21.9500 N.ar  120  HIS120     -0.2268
     61  CD2      -12.9060  -30.3680  -23.3740 C.ar  120  HIS120      0.1154
     62  CE1      -11.1570  -30.0160  -22.0900 C.ar  120  HIS120      0.1986
     63  NE2      -11.9810  -29.4410  -22.9490 N.ar  120  HIS120     -0.2212
     64  N         -4.3600  -23.0130  -19.0740 N.3   126  ARG126     -0.1245
     65  CA        -4.0620  -21.8150  -19.8770 C.3   126  ARG126      0.1563
     66  C         -2.8390  -21.1050  -19.3140 C.2   126  ARG126      0.2260
     67  O         -2.6870  -21.0080  -18.1030 O.2   126  ARG126     -0.2867
     68  CB        -5.2470  -20.8220  -19.8710 C.3   126  ARG126      0.0307
     69  CG        -6.6250  -21.4370  -19.7110 C.3   126  ARG126      0.0489
     70  CD        -7.0660  -22.1490  -20.9220 C.3   126  ARG126      0.2205
     71  NE        -8.1910  -23.0620  -20.6710 N.pl3 126  ARG126     -0.0865
     72  CZ        -8.4740  -24.1160  -21.4420 C.cat 126  ARG126      0.5346
     73  NH1       -7.7030  -24.3930  -22.4950 N.pl3 126  ARG126      0.1354
     74  NH2       -9.5090  -24.9080  -21.1590 N.pl3 126  ARG126      0.1354
     75  N        -16.1150  -25.4580  -18.6520 N.3   159  HIS159     -0.1241
     76  CA       -15.3810  -24.1940  -18.8650 C.3   159  HIS159      0.1621
     77  C        -15.8020  -23.5300  -20.1740 C.2   159  HIS159      0.2264
     78  O        -16.0540  -24.2110  -21.1770 O.2   159  HIS159     -0.2867
     79  CB       -13.8570  -24.4050  -18.8690 C.3   159  HIS159      0.0745
     80  CG       -13.3880  -25.4290  -19.8500 C.ar  159  HIS159      0.0817
     81  ND1      -13.5920  -26.7830  -19.6610 N.ar  159  HIS159     -0.2268
     82  CD2      -12.7510  -25.3080  -21.0430 C.ar  159  HIS159      0.1154
     83  CE1      -13.0810  -27.4530  -20.6850 C.ar  159  HIS159      0.1986
     84  NE2      -12.5650  -26.5850  -21.5370 N.ar  159  HIS159     -0.2212
     85  N        -15.0870  -19.1850  -22.0090 N.3   161  HIS161     -0.1241
     86  CA       -14.2460  -17.9730  -21.8820 C.3   161  HIS161      0.1621
     87  C        -15.0010  -16.7600  -22.4960 C.2   161  HIS161      0.2264
     88  O        -15.7840  -16.9330  -23.4340 O.2   161  HIS161     -0.2867
     89  CB       -12.8930  -18.1230  -22.6230 C.3   161  HIS161      0.0745
     90  CG       -12.2960  -19.5120  -22.6440 C.ar  161  HIS161      0.0817
     91  ND1      -11.9310  -20.2070  -21.4990 N.ar  161  HIS161     -0.2268
     92  CD2      -11.8910  -20.2840  -23.6860 C.ar  161  HIS161      0.1154
     93  CE1      -11.3930  -21.3690  -21.8360 C.ar  161  HIS161      0.1986
     94  NE2      -11.3390  -21.4330  -23.1560 N.ar  161  HIS161     -0.2212
     95  N         -2.7590  -22.7320  -24.6400 N.3   173  ASP173     -0.1239
     96  CA        -3.4380  -23.8480  -24.0290 C.3   173  ASP173      0.1674
     97  C         -2.4950  -25.0240  -24.0410 C.2   173  ASP173      0.2266
     98  O         -1.8150  -25.2510  -25.0400 O.2   173  ASP173     -0.2867
     99  CB        -4.6210  -24.2910  -24.8700 C.3   173  ASP173      0.1410
    100  CG        -5.6160  -23.1920  -25.1090 C.2   173  ASP173      0.3668
    101  OD1       -6.1000  -22.6000  -24.1150 O.co2 173  ASP173     -0.2456
    102  OD2       -5.9380  -22.9580  -26.3060 O.co2 173  ASP173     -0.2456
    103  N         -2.8890  -29.2990  -23.2580 N.3   175  LEU175     -0.1245
    104  CA        -3.8300  -30.3870  -22.9350 C.3   175  LEU175      0.1561
    105  C         -3.1470  -31.7270  -23.1760 C.2   175  LEU175      0.2260
    106  O         -2.1360  -31.7920  -23.8780 O.2   175  LEU175     -0.2867
    107  CB        -5.1240  -30.3070  -23.7650 C.3   175  LEU175      0.0270
    108  CG        -6.1740  -29.1880  -23.5400 C.3   175  LEU175      0.0019
    109  CD1       -5.8960  -27.9130  -24.4240 C.3   175  LEU175      0.0001
    110  CD2       -7.5950  -29.7050  -23.8040 C.3   175  LEU175      0.0001
    111  N         -4.4870  -33.9680  -24.9030 N.3   177  ILE177     -0.1245
    112  CA        -5.2320  -34.4270  -26.1090 C.3   177  ILE177      0.1561
    113  C         -4.5530  -35.6080  -26.8710 C.2   177  ILE177      0.2260
    114  O         -5.2100  -36.6150  -27.1310 O.2   177  ILE177     -0.2867
    115  CB        -5.5450  -33.2100  -27.0870 C.3   177  ILE177      0.0252
    116  CG1       -6.8020  -32.4670  -26.6310 C.3   177  ILE177      0.0019
    117  CG2       -5.6840  -33.6650  -28.5780 C.3   177  ILE177      0.0019
    118  CD1       -6.9850  -31.1090  -27.3200 C.3   177  ILE177      0.0001
    119  N        -16.5560  -36.2110  -23.9690 N.3   188  PHE188     -0.1241
    120  CA       -16.8100  -34.7930  -24.2460 C.3   188  PHE188      0.1605
    121  C        -18.2970  -34.4980  -24.0680 C.2   188  PHE188      0.2264
    122  O        -19.1460  -35.3000  -24.4750 O.2   188  PHE188     -0.2867
    123  CB       -16.3890  -34.4360  -25.6840 C.3   188  PHE188      0.0534
    124  CG       -16.5220  -32.9570  -26.0270 C.ar  188  PHE188     -0.0203
    125  CD1      -17.7740  -32.4070  -26.3610 C.ar  188  PHE188     -0.0042
    126  CD2      -15.4000  -32.1200  -26.0240 C.ar  188  PHE188     -0.0042
    127  CE1      -17.9110  -31.0590  -26.6930 C.ar  188  PHE188     -0.0003
    128  CE2      -15.5220  -30.7530  -26.3570 C.ar  188  PHE188     -0.0003
    129  CZ       -16.7890  -30.2210  -26.6750 C.ar  188  PHE188     -0.0000
@<TRIPOS>BOND
     1    15    14    2
     2    14    13    1
     3     4     3    2
     4    12    13    1
     5    29    30   ar
     6    29    27   ar
     7    30    28   ar
     8    13    16    1
     9     3     2    1
    10    27    24   ar
    11    28    26   ar
    12     1     2    1
    13     2     5    1
    14    24    26   ar
    15    24    22   ar
    16    26    25   ar
    17    32    33    1
    18    32    31    1
    19     5     6    1
    20    37    36    1
    21    37    38    2
    22    36    35    1
    23    36    39    1
    24   117   115    1
    25    33    34    2
    26    22    21    1
    27    22    23   ar
    28    25    23   ar
    29    40    39    1
    30    40    41    1
    31     6     7    1
    32    21    18    1
    33    18    19    1
    34    18    17    1
    35   118   116    1
    36   114   113    2
    37   115   116    1
    38   115   112    1
    39    41    42    2
    40    41    43   am
    41   113   112    1
    42    19    20    2
    43   127   129   ar
    44   127   125   ar
    45   129   128   ar
    46     7     8    1
    47   125   124   ar
    48   128   126   ar
    49   102   100   ar
    50    10     9    1
    51   112   111    1
    52   124   126   ar
    53   124   123    1
    54   123   120    1
    55    51    53   ar
    56    51    49   ar
    57     8     9    2
    58    53    52   ar
    59     9    11    1
    60   100    99    1
    61   100   101   ar
    62    98    97    2
    63    99    96    1
    64    95    96    1
    65   122   121    2
    66   109   108    1
    67    49    48    1
    68    49    50   ar
    69   120   121    1
    70   120   119    1
    71    52    50   ar
    72    97    96    1
    73    48    45    1
    74   106   105    2
    75   110   108    1
    76   107   108    1
    77   107   104    1
    78    92    94   ar
    79    92    90   ar
    80    88    87    2
    81    61    63   ar
    82    61    59   ar
    83   103   104    1
    84   105   104    1
    85    94    93   ar
    86    63    62   ar
    87    58    59    1
    88    58    55    1
    89    59    60   ar
    90    90    89    1
    91    90    91   ar
    92    89    86    1
    93    45    44    1
    94    45    46    1
    95    87    86    1
    96    73    72    1
    97    62    60   ar
    98    85    86    1
    99    93    91   ar
   100    55    54    1
   101    55    56    1
   102    84    82   ar
   103    84    83   ar
   104    46    47    2
   105    72    74    1
   106    72    71    2
   107    78    77    2
   108    82    80   ar
   109    70    71    1
   110    70    69    1
   111    83    81   ar
   112    56    57    2
   113    77    76    1
   114    65    68    1
   115    65    66    1
   116    65    64    1
   117    68    69    1
   118    80    81   ar
   119    80    79    1
   120    66    67    2
   121    79    76    1
   122    76    75    1
