@<TRIPOS>MOLECULE
tmp/3nl6A01.pdb
 174 164 0 0 0
SMALL
GASTEIGER

@<TRIPOS>ATOM
      1  N         50.6400   27.0660  -31.0310 N.3   332  ASP332     -0.1239
      2  CA        49.2710   27.0450  -30.5260 C.3   332  ASP332      0.1674
      3  C         49.2790   26.7840  -29.0330 C.2   332  ASP332      0.2266
      4  O         49.3700   25.6360  -28.6190 O.2   332  ASP332     -0.2867
      5  CB        48.4800   25.9240  -31.2010 C.3   332  ASP332      0.1410
      6  CG        47.0010   25.8860  -30.7710 C.2   332  ASP332      0.3668
      7  OD1       46.2150   25.1590  -31.4310 O.co2 332  ASP332     -0.2456
      8  OD2       46.6160   26.5760  -29.7900 O.co2 332  ASP332     -0.2456
      9  N         47.6420   25.9370  -26.1600 N.3   334  VAL334     -0.1245
     10  CA        46.3880   25.3740  -25.6740 C.3   334  VAL334      0.1561
     11  C         45.9030   26.1020  -24.4250 C.2   334  VAL334      0.2260
     12  O         46.7040   26.5450  -23.6030 O.2   334  VAL334     -0.2867
     13  CB        46.5290   23.8730  -25.3590 C.3   334  VAL334      0.0252
     14  CG1       45.1680   23.2650  -25.0550 C.3   334  VAL334      0.0019
     15  CG2       47.1960   23.1480  -26.5180 C.3   334  VAL334      0.0019
     16  N         48.5510   31.1150  -32.7690 N.3   359  LYS359     -0.1245
     17  CA        47.1370   30.8690  -33.0360 C.3   359  LYS359      0.1561
     18  C         46.4240   30.4460  -31.7550 C.2   359  LYS359      0.2260
     19  O         46.9190   29.5830  -31.0380 O.2   359  LYS359     -0.2867
     20  CB        47.0440   29.7370  -34.0480 C.3   359  LYS359      0.0271
     21  CG        45.6370   29.3280  -34.4070 C.3   359  LYS359      0.0035
     22  CD        45.5390   27.8270  -34.6320 C.3   359  LYS359      0.0206
     23  CE        45.0950   27.1440  -33.3470 C.3   359  LYS359      0.1093
     24  NZ        43.8570   27.7800  -32.7870 N.3   359  LYS359     -0.1314
     25  N         42.2780   30.4550  -29.3830 N.3   361  ASN361     -0.1240
     26  CA        40.8810   30.8330  -29.2880 C.3   361  ASN361      0.1653
     27  C         40.7730   32.1320  -28.5360 C.2   361  ASN361      0.2266
     28  O         41.7780   32.7870  -28.3040 O.2   361  ASN361     -0.2867
     29  CB        40.0400   29.7380  -28.6270 C.3   361  ASN361      0.1155
     30  CG        40.3650   29.5490  -27.1590 C.2   361  ASN361      0.2627
     31  OD1       40.8620   30.4620  -26.5000 O.2   361  ASN361     -0.2716
     32  ND2       40.0810   28.3570  -26.6330 N.am  361  ASN361     -0.0877
     33  N         42.5610   32.1590  -24.9220 N.3   364  GLU364     -0.1245
     34  CA        44.0180   32.1430  -25.0060 C.3   364  GLU364      0.1567
     35  C         44.5580   33.4920  -25.4740 C.2   364  GLU364      0.2260
     36  O         45.4590   34.0630  -24.8560 O.2   364  GLU364     -0.2867
     37  CB        44.4850   31.0040  -25.9210 C.3   364  GLU364      0.0388
     38  CG        44.0220   29.6220  -25.4450 C.3   364  GLU364      0.1160
     39  CD        43.8040   28.6030  -26.5790 C.2   364  GLU364      0.3649
     40  OE1       43.8300   28.9920  -27.7690 O.co2 364  GLU364     -0.2457
     41  OE2       43.5910   27.4060  -26.2730 O.co2 364  GLU364     -0.2457
     42  N         40.8340   32.6420  -33.3030 N.3   394  THR394     -0.1203
     43  CA        39.7230   31.8920  -33.8930 C.3   394  THR394      0.1994
     44  C         38.3980   32.0530  -33.1550 C.2   394  THR394      0.2618
     45  O         38.3460   32.1090  -31.9280 O.2   394  THR394     -0.2717
     46  CB        40.0290   30.4050  -33.9520 C.3   394  THR394      0.1784
     47  OG1       40.0190   29.8750  -32.6200 O.3   394  THR394     -0.2211
     48  CG2       41.3880   30.1660  -34.5890 C.3   394  THR394      0.0376
     49  N         37.3240   32.0980  -33.9300 N.am  395  GLY395     -0.1942
     50  CA        35.9730   32.2200  -33.4130 C.3   395  GLY395      0.2014
     51  C         35.0210   32.1920  -34.5930 C.2   395  GLY395      0.2638
     52  O         35.3660   31.6700  -35.6540 O.2   395  GLY395     -0.2714
     53  N         33.8310   32.7540  -34.4230 N.am  396  GLU396     -0.1977
     54  CA        32.9120   32.8860  -35.5460 C.3   396  GLU396      0.1602
     55  C         33.6000   33.7090  -36.6350 C.2   396  GLU396      0.2287
     56  O         33.5770   33.3570  -37.8210 O.2   396  GLU396     -0.2864
     57  CB        31.6100   33.5360  -35.0910 C.3   396  GLU396      0.0415
     58  CG        30.5320   33.5640  -36.1450 C.3   396  GLU396      0.1163
     59  CD        29.1420   33.5860  -35.5360 C.2   396  GLU396      0.3649
     60  OE1       28.9050   32.8150  -34.5670 O.co2 396  GLU396     -0.2457
     61  OE2       28.2940   34.3700  -36.0310 O.co2 396  GLU396     -0.2457
     62  N         37.4430   34.7610  -37.5660 N.3   398  ASP398     -0.1239
     63  CA        38.8430   34.5240  -37.2630 C.3   398  ASP398      0.1674
     64  C         39.5270   35.8500  -37.5210 C.2   398  ASP398      0.2266
     65  O         39.2730   36.4730  -38.5450 O.2   398  ASP398     -0.2867
     66  CB        39.4130   33.4240  -38.1560 C.3   398  ASP398      0.1410
     67  CG        38.7810   32.0570  -37.8730 C.2   398  ASP398      0.3668
     68  OD1       38.2880   31.8570  -36.7390 O.co2 398  ASP398     -0.2456
     69  OD2       38.7630   31.1850  -38.7810 O.co2 398  ASP398     -0.2456
     70  N         29.6590   33.1070  -41.7490 N.3   431  GLY431     -0.1210
     71  CA        28.4410   32.8880  -40.9890 C.3   431  GLY431      0.1940
     72  C         28.7210   32.0640  -39.7540 C.2   431  GLY431      0.2454
     73  O         29.8550   31.6400  -39.5500 O.2   431  GLY431     -0.2732
     74  N         27.6960   31.8520  -38.9110 N.am  432  PRO432     -0.2717
     75  CA        27.7840   30.9410  -37.7620 C.3   432  PRO432      0.1535
     76  C         27.8180   29.4850  -38.2140 C.2   432  PRO432      0.2598
     77  O         26.9980   29.0460  -39.0230 O.2   432  PRO432     -0.2715
     78  CB        26.4840   31.2170  -36.9970 C.3   432  PRO432      0.0310
     79  CG        25.5630   31.7280  -38.0420 C.3   432  PRO432      0.0237
     80  CD        26.4380   32.6120  -38.8820 C.3   432  PRO432      0.0939
     81  N         28.7930   28.7560  -37.6920 N.am  433  ILE433     -0.1964
     82  CA        28.9620   27.3480  -37.9790 C.3   433  ILE433      0.1727
     83  C         29.3710   26.7040  -36.6680 C.2   433  ILE433      0.2616
     84  O         30.4900   26.2140  -36.5350 O.2   433  ILE433     -0.2715
     85  CB        30.0590   27.1230  -39.0350 C.3   433  ILE433      0.0290
     86  CG1       29.8890   28.1070  -40.1930 C.3   433  ILE433      0.0022
     87  CG2       30.0150   25.7060  -39.5670 C.3   433  ILE433      0.0023
     88  CD1       31.0750   28.1500  -41.1370 C.3   433  ILE433      0.0001
     89  N         28.4590   26.7250  -35.6970 N.am  434  GLU434     -0.1977
     90  CA        28.7480   26.2220  -34.3560 C.3   434  GLU434      0.1602
     91  C         29.3850   24.8410  -34.3710 C.2   434  GLU434      0.2287
     92  O         30.2190   24.5340  -33.5220 O.2   434  GLU434     -0.2864
     93  CB        27.4900   26.2020  -33.4860 C.3   434  GLU434      0.0415
     94  CG        27.2940   27.4560  -32.6470 C.3   434  GLU434      0.1163
     95  CD        26.0340   27.4040  -31.7890 C.2   434  GLU434      0.3649
     96  OE1       25.5870   26.2880  -31.4410 O.co2 434  GLU434     -0.2457
     97  OE2       25.4930   28.4840  -31.4580 O.co2 434  GLU434     -0.2457
     98  N         31.7070   23.6070  -35.9980 N.3   436  MET436     -0.1230
     99  CA        33.1710   23.5490  -36.0840 C.3   436  MET436      0.1702
    100  C         33.8270   23.4240  -34.6980 C.2   436  MET436      0.2592
    101  O         34.9790   22.9930  -34.5700 O.2   436  MET436     -0.2718
    102  CB        33.7510   24.7410  -36.8560 C.3   436  MET436      0.0401
    103  CG        33.8670   24.5190  -38.3570 C.3   436  MET436      0.0596
    104  SD        34.9910   25.6510  -39.2210 S.3   436  MET436     -0.1393
    105  CE        36.3400   24.5870  -39.7000 C.3   436  MET436      0.0692
    106  N         33.0830   23.7910  -33.6600 N.am  437  GLY437     -0.1957
    107  CA        33.5900   23.7100  -32.3030 C.3   437  GLY437      0.1869
    108  C         33.0580   22.5040  -31.5560 C.2   437  GLY437      0.2309
    109  O         33.2850   22.3640  -30.3560 O.2   437  GLY437     -0.2863
    110  N         33.8340   19.4250  -32.5810 N.3   439  ILE439     -0.1231
    111  CA        34.7810   18.3740  -32.9650 C.3   439  ILE439      0.1692
    112  C         36.1870   18.7460  -32.4600 C.2   439  ILE439      0.2593
    113  O         36.5820   19.9170  -32.4980 O.2   439  ILE439     -0.2718
    114  CB        34.7590   18.1140  -34.4920 C.3   439  ILE439      0.0266
    115  CG1       36.1730   18.0800  -35.0700 C.3   439  ILE439      0.0019
    116  CG2       33.9810   19.2020  -35.1980 C.3   439  ILE439      0.0020
    117  CD1       36.2220   18.3160  -36.5700 C.3   439  ILE439      0.0001
    118  N         36.9300   17.7520  -31.9740 N.am  440  THR440     -0.1939
    119  CA        38.1850   18.0050  -31.2560 C.3   440  THR440      0.2028
    120  C         39.3300   18.4950  -32.1460 C.2   440  THR440      0.2642
    121  O         39.4490   18.0960  -33.3090 O.2   440  THR440     -0.2714
    122  CB        38.6580   16.7640  -30.4430 C.3   440  THR440      0.1808
    123  OG1       39.3200   17.1920  -29.2490 O.3   440  THR440     -0.2208
    124  CG2       39.6090   15.9030  -31.2640 C.3   440  THR440      0.0379
    125  N         40.1680   19.3570  -31.5750 N.am  441  ALA441     -0.1963
    126  CA        41.3060   19.9400  -32.2810 C.3   441  ALA441      0.1728
    127  C         40.9110   20.6720  -33.5710 C.2   441  ALA441      0.2617
    128  O         41.6880   20.7220  -34.5260 O.2   441  ALA441     -0.2715
    129  CB        42.3710   18.8760  -32.5610 C.3   441  ALA441      0.0334
    130  N         39.7030   21.2270  -33.6060 N.am  442  SER442     -0.1936
    131  CA        39.3260   22.1110  -34.6990 C.3   442  SER442      0.2055
    132  C         40.4310   23.1540  -34.8860 C.2   442  SER442      0.2644
    133  O         40.9170   23.3840  -35.9940 O.2   442  SER442     -0.2714
    134  CB        37.9990   22.8000  -34.3820 C.3   442  SER442      0.2130
    135  OG        37.7610   23.8860  -35.2660 O.3   442  SER442     -0.2179
    136  N         40.8340   23.7660  -33.7760 N.am  443  GLY443     -0.1939
    137  CA        41.8680   24.7800  -33.7840 C.3   443  GLY443      0.2014
    138  C         43.2480   24.2060  -34.0430 C.2   443  GLY443      0.2639
    139  O         44.0680   24.8360  -34.7070 O.2   443  GLY443     -0.2714
    140  N         43.5130   23.0120  -33.5210 N.am  444  CYS444     -0.1967
    141  CA        44.7930   22.3600  -33.7880 C.3   444  CYS444      0.1712
    142  C         44.9450   22.1160  -35.2980 C.2   444  CYS444      0.2296
    143  O         45.9970   22.3970  -35.8790 O.2   444  CYS444     -0.2864
    144  CB        44.9370   21.0530  -32.9870 C.3   444  CYS444      0.0983
    145  SG        45.0510   21.2150  -31.1570 S.3   444  CYS444     -0.0798
    146  N         43.2860   23.7130  -37.6910 N.3   446  LEU446     -0.1245
    147  CA        43.5320   25.0200  -38.2690 C.3   446  LEU446      0.1561
    148  C         45.0410   25.2710  -38.3420 C.2   446  LEU446      0.2260
    149  O         45.5560   25.7070  -39.3670 O.2   446  LEU446     -0.2867
    150  CB        42.8580   26.1080  -37.4460 C.3   446  LEU446      0.0270
    151  CG        43.1540   27.5170  -37.9600 C.3   446  LEU446      0.0019
    152  CD1       43.0420   27.5710  -39.4720 C.3   446  LEU446      0.0001
    153  CD2       42.2090   28.5260  -37.3140 C.3   446  LEU446      0.0001
    154  N         40.5740   26.8760  -44.5060 N.3   474  TYR474     -0.1227
    155  CA        40.0120   26.0490  -43.4450 C.3   474  TYR474      0.1736
    156  C         38.5520   26.4240  -43.1930 C.2   474  TYR474      0.2595
    157  O         37.7050   25.5620  -42.9540 O.2   474  TYR474     -0.2718
    158  CB        40.8480   26.1780  -42.1600 C.3   474  TYR474      0.0548
    159  CG        40.5940   25.0800  -41.1510 C.ar  474  TYR474     -0.0200
    160  CD1       41.1510   23.8130  -41.3140 C.ar  474  TYR474     -0.0009
    161  CD2       39.8010   25.3070  -40.0390 C.ar  474  TYR474     -0.0009
    162  CE1       40.9160   22.8030  -40.4000 C.ar  474  TYR474      0.0417
    163  CE2       39.5600   24.3080  -39.1160 C.ar  474  TYR474      0.0417
    164  CZ        40.1170   23.0570  -39.2990 C.ar  474  TYR474      0.1957
    165  OH        39.8790   22.0700  -38.3660 O.3   474  TYR474     -0.2866
    166  N         38.2610   27.7170  -43.2510 N.am  475  LYS475     -0.1980
    167  CA        36.9030   28.1950  -43.0400 C.3   475  LYS475      0.1596
    168  C         36.0220   27.8160  -44.2180 C.2   475  LYS475      0.2287
    169  O         34.8590   27.4530  -44.0440 O.2   475  LYS475     -0.2864
    170  CB        36.8960   29.7030  -42.8710 C.3   475  LYS475      0.0298
    171  CG        35.6560   30.2280  -42.2110 C.3   475  LYS475      0.0038
    172  CD        35.6730   29.9470  -40.7490 C.3   475  LYS475      0.0206
    173  CE        35.2560   31.1870  -39.9950 C.3   475  LYS475      0.1093
    174  NZ        35.3860   30.9740  -38.5360 N.3   475  LYS475     -0.1314
@<TRIPOS>BOND
     1   154   155    1
     2   168   169    2
     3   168   167    1
     4   155   156    1
     5   155   158    1
     6   166   156   am
     7   166   167    1
     8   156   157    2
     9   167   170    1
    10   170   171    1
    11   171   172    1
    12   158   159    1
    13    70    71    1
    14   160   159   ar
    15   160   162   ar
    16   159   161   ar
    17    88    86    1
    18    71    72    1
    19   172   173    1
    20   162   164   ar
    21    86    85    1
    22   161   163   ar
    23   173   174    1
    24    72    73    2
    25    72    74   am
    26   105   104    1
    27    87    85    1
    28   152   151    1
    29   149   148    2
    30   164   163   ar
    31   164   165    1
    32   104   103    1
    33    85    82    1
    34    77    76    2
    35    74    80    1
    36    74    75    1
    37    80    79    1
    38    69    67   ar
    39    65    64    2
    40   103   102    1
    41   148   147    1
    42   147   146    1
    43   147   150    1
    44    76    75    1
    45    76    81   am
    46    66    67    1
    47    66    63    1
    48    79    78    1
    49    82    81    1
    50    82    83    1
    51   151   150    1
    52   151   153    1
    53    67    68   ar
    54    56    55    2
    55    75    78    1
    56    62    63    1
    57    64    63    1
    58   102    99    1
    59    83    84    2
    60    83    89   am
    61    55    54    1
    62   117   115    1
    63    58    59    1
    64    58    57    1
    65    99    98    1
    66    99   100    1
    67    61    59   ar
    68   133   132    2
    69   143   142    2
    70    89    90    1
    71    52    51    2
    72    54    57    1
    73    54    53    1
    74    59    60   ar
    75   142   141    1
    76   135   134    1
    77   116   114    1
    78   115   114    1
    79   132   131    1
    80   132   136   am
    81   139   138    2
    82   131   134    1
    83   131   130    1
    84   100   101    2
    85   100   106   am
    86    22    21    1
    87    22    23    1
    88    51    53   am
    89    51    50    1
    90    48    46    1
    91   128   127    2
    92   114   111    1
    93    21    20    1
    94    91    90    1
    95    91    92    2
    96    90    93    1
    97    20    17    1
    98   138   137    1
    99   138   140   am
   100    46    43    1
   101    46    47    1
   102    49    50    1
   103    49    44   am
   104    43    42    1
   105    43    44    1
   106   141   140    1
   107   141   144    1
   108   137   136    1
   109   106   107    1
   110   130   127   am
   111   127   126    1
   112    93    94    1
   113    23    24    1
   114   121   120    2
   115    44    45    2
   116    17    16    1
   117    17    18    1
   118   144   145    1
   119   111   110    1
   120   111   112    1
   121    94    95    1
   122   129   126    1
   123   113   112    2
   124   112   118   am
   125   107   108    1
   126   126   125    1
   127   120   125   am
   128   120   119    1
   129   118   119    1
   130    95    97   ar
   131    95    96   ar
   132    18    19    2
   133   108   109    2
   134     7     6   ar
   135   124   122    1
   136   119   122    1
   137     5     6    1
   138     5     2    1
   139     1     2    1
   140     6     8   ar
   141     2     3    1
   142   122   123    1
   143    25    26    1
   144    26    29    1
   145    26    27    1
   146     3     4    2
   147    29    30    1
   148    27    28    2
   149    40    39   ar
   150    30    32   am
   151    30    31    2
   152    39    41   ar
   153    39    38    1
   154    15    13    1
   155     9    10    1
   156    37    38    1
   157    37    34    1
   158    10    13    1
   159    10    11    1
   160    35    34    1
   161    35    36    2
   162    13    14    1
   163    34    33    1
   164    11    12    2
