@<TRIPOS>MOLECULE
tmp/3nl6A00.pdb
 179 168 0 0 0
SMALL
GASTEIGER

@<TRIPOS>ATOM
      1  N         77.4060   47.2620  -23.8240 N.3    12  TYR12      -0.1241
      2  CA        77.7670   47.5710  -22.4580 C.3    12  TYR12       0.1605
      3  C         78.4030   46.3330  -21.8650 C.2    12  TYR12       0.2264
      4  O         77.7470   45.3070  -21.7180 O.2    12  TYR12      -0.2867
      5  CB        76.4890   47.9380  -21.7050 C.3    12  TYR12       0.0534
      6  CG        76.6600   48.4260  -20.2910 C.ar   12  TYR12      -0.0201
      7  CD1       77.8750   48.3570  -19.6510 C.ar   12  TYR12      -0.0009
      8  CD2       75.5780   48.9290  -19.5840 C.ar   12  TYR12      -0.0009
      9  CE1       78.0120   48.7880  -18.3570 C.ar   12  TYR12       0.0417
     10  CE2       75.7120   49.3590  -18.2800 C.ar   12  TYR12       0.0417
     11  CZ        76.9300   49.2810  -17.6700 C.ar   12  TYR12       0.1957
     12  OH        77.0750   49.7050  -16.3630 O.3    12  TYR12      -0.2866
     13  N         80.2740   44.1200  -18.9310 N.3    14  VAL14      -0.1245
     14  CA        80.3660   43.9550  -17.4770 C.3    14  VAL14       0.1561
     15  C         81.3790   42.8570  -17.1410 C.2    14  VAL14       0.2260
     16  O         81.2720   41.7420  -17.6590 O.2    14  VAL14      -0.2867
     17  CB        78.9980   43.5980  -16.8830 C.3    14  VAL14       0.0252
     18  CG1       79.1040   43.3610  -15.3990 C.3    14  VAL14       0.0019
     19  CG2       78.0170   44.6990  -17.1650 C.3    14  VAL14       0.0019
     20  N         81.4530   48.4710  -17.1390 N.3    41  GLN41      -0.1245
     21  CA        81.2060   48.4440  -15.7130 C.3    41  GLN41       0.1566
     22  C         82.1460   47.4440  -15.0710 C.2    41  GLN41       0.2260
     23  O         82.3670   46.3630  -15.6110 O.2    41  GLN41      -0.2867
     24  CB        79.7680   48.0510  -15.4060 C.3    41  GLN41       0.0367
     25  CG        79.6310   47.4170  -14.0370 C.3    41  GLN41       0.0905
     26  CD        78.2080   47.0400  -13.7080 C.2    41  GLN41       0.2608
     27  OE1       77.9560   46.1950  -12.8390 O.2    41  GLN41      -0.2717
     28  NE2       77.2600   47.6650  -14.4040 N.am   41  GLN41      -0.0878
     29  N         82.9210   44.9540  -11.9970 N.3    43  ARG43      -0.1245
     30  CA        82.1810   44.1390  -11.0520 C.3    43  ARG43       0.1563
     31  C         83.1550   43.2020  -10.3360 C.2    43  ARG43       0.2260
     32  O         83.7390   42.3130  -10.9630 O.2    43  ARG43      -0.2867
     33  CB        81.1420   43.3280  -11.8200 C.3    43  ARG43       0.0307
     34  CG        80.0030   42.7900  -10.9990 C.3    43  ARG43       0.0489
     35  CD        78.9300   42.1650  -11.9050 C.3    43  ARG43       0.2205
     36  NE        78.0890   41.2550  -11.1380 N.pl3  43  ARG43      -0.0865
     37  CZ        78.3780   39.9730  -10.9500 C.cat  43  ARG43       0.5346
     38  NH1       79.4690   39.4570  -11.5050 N.pl3  43  ARG43       0.1354
     39  NH2       77.5790   39.2110  -10.2110 N.pl3  43  ARG43       0.1354
     40  N         80.5090   48.9190   -9.5270 N.3    73  ASN73      -0.1240
     41  CA        79.4110   48.0780   -9.0640 C.3    73  ASN73       0.1653
     42  C         79.2110   48.1740   -7.5550 C.2    73  ASN73       0.2266
     43  O         79.8710   48.9640   -6.8810 O.2    73  ASN73      -0.2867
     44  CB        79.6430   46.6220   -9.4730 C.3    73  ASN73       0.1155
     45  CG        78.4020   45.7660   -9.3080 C.2    73  ASN73       0.2627
     46  OD1       77.3880   45.9890   -9.9700 O.2    73  ASN73      -0.2716
     47  ND2       78.4760   44.7800   -8.4220 N.am   73  ASN73      -0.0877
     48  N         76.6650   51.2300  -10.4730 N.3    88  HIS88      -0.1241
     49  CA        75.4740   50.4150  -10.6700 C.3    88  HIS88       0.1621
     50  C         75.1130   49.6800   -9.4000 C.2    88  HIS88       0.2264
     51  O         75.9850   49.1120   -8.7570 O.2    88  HIS88      -0.2867
     52  CB        75.6980   49.3990  -11.7770 C.3    88  HIS88       0.0745
     53  CG        74.4360   48.7660  -12.2670 C.ar   88  HIS88       0.0817
     54  ND1       73.8150   47.7310  -11.6010 N.ar   88  HIS88      -0.2268
     55  CD2       73.6650   49.0330  -13.3490 C.ar   88  HIS88       0.1154
     56  CE1       72.7250   47.3780  -12.2570 C.ar   88  HIS88       0.1986
     57  NE2       72.6110   48.1540  -13.3200 N.ar   88  HIS88      -0.2212
     58  N         69.2190   47.9630  -11.0130 N.3   112  SER112     -0.1217
     59  CA        68.7740   46.6990  -11.5630 C.3   112  SER112      0.1889
     60  C         67.2660   46.5840  -11.4370 C.2   112  SER112      0.2288
     61  O         66.7230   46.7050  -10.3470 O.2   112  SER112     -0.2866
     62  CB        69.4650   45.5470  -10.8540 C.3   112  SER112      0.2089
     63  OG        70.7000   45.2880  -11.4760 O.3   112  SER112     -0.2183
     64  N         69.8530   55.1720  -15.7260 N.3   130  TYR130     -0.1241
     65  CA        69.5610   54.0360  -16.5860 C.3   130  TYR130      0.1605
     66  C         69.1730   52.8450  -15.7010 C.2   130  TYR130      0.2264
     67  O         69.2970   52.9060  -14.4740 O.2   130  TYR130     -0.2867
     68  CB        70.7480   53.7040  -17.5060 C.3   130  TYR130      0.0534
     69  CG        71.8750   52.9320  -16.8500 C.ar  130  TYR130     -0.0201
     70  CD1       71.9100   51.5460  -16.8800 C.ar  130  TYR130     -0.0009
     71  CD2       72.9180   53.5880  -16.2110 C.ar  130  TYR130     -0.0009
     72  CE1       72.9540   50.8330  -16.2750 C.ar  130  TYR130      0.0417
     73  CE2       73.9620   52.8860  -15.6210 C.ar  130  TYR130      0.0417
     74  CZ        73.9750   51.5130  -15.6480 C.ar  130  TYR130      0.1957
     75  OH        75.0140   50.8210  -15.0480 O.3   130  TYR130     -0.2866
     76  N         69.2930   48.3090  -15.9450 N.3   132  GLY132     -0.1225
     77  CA        69.5080   47.0620  -16.6540 C.3   132  GLY132      0.1811
     78  C         68.2960   46.2150  -16.3660 C.2   132  GLY132      0.2280
     79  O         67.9170   46.0570  -15.2100 O.2   132  GLY132     -0.2866
     80  N         65.9980   43.2550  -15.7450 N.3   134  GLY134     -0.1210
     81  CA        65.8860   41.9160  -15.1790 C.3   134  GLY134      0.1956
     82  C         66.9600   41.0170  -15.7040 C.2   134  GLY134      0.2612
     83  O         67.8620   41.4860  -16.3860 O.2   134  GLY134     -0.2717
     84  N         66.8960   39.7300  -15.4040 N.am  135  THR135     -0.1952
     85  CA        67.7570   38.8190  -16.1330 C.3   135  THR135      0.1897
     86  C         66.9110   38.1110  -17.1680 C.2   135  THR135      0.2313
     87  O         66.1510   37.2100  -16.8350 O.2   135  THR135     -0.2863
     88  CB        68.4420   37.8240  -15.2010 C.3   135  THR135      0.1794
     89  OG1       68.8890   38.5240  -14.0350 O.3   135  THR135     -0.2208
     90  CG2       69.6410   37.1760  -15.8880 C.3   135  THR135      0.0378
     91  N         71.1520   33.0120  -16.9000 N.3   139  THR139     -0.1218
     92  CA        72.6020   33.2080  -16.8870 C.3   139  THR139      0.1862
     93  C         73.2060   32.2540  -15.8490 C.2   139  THR139      0.2287
     94  O         72.4860   31.5190  -15.1680 O.2   139  THR139     -0.2866
     95  CB        72.9980   34.7010  -16.5640 C.3   139  THR139      0.1770
     96  OG1       74.1790   35.0910  -17.3000 O.3   139  THR139     -0.2211
     97  CG2       73.2110   34.9130  -15.0510 C.3   139  THR139      0.0375
     98  N         76.1390   33.6550  -14.2990 N.3   141  THR141     -0.1218
     99  CA        77.0690   34.6310  -13.7520 C.3   141  THR141      0.1862
    100  C         76.5360   35.2550  -12.4600 C.2   141  THR141      0.2287
    101  O         77.2680   35.3860  -11.4690 O.2   141  THR141     -0.2866
    102  CB        77.3840   35.7370  -14.7920 C.3   141  THR141      0.1770
    103  OG1       77.8150   35.1350  -16.0260 O.3   141  THR141     -0.2211
    104  CG2       78.4610   36.7090  -14.2650 C.3   141  THR141      0.0375
    105  N         69.1570   49.0770  -20.6710 N.3   169  VAL169     -0.1245
    106  CA        69.9150   48.0370  -21.3770 C.3   169  VAL169      0.1561
    107  C         69.3740   46.6590  -21.0000 C.2   169  VAL169      0.2260
    108  O         68.8730   46.4700  -19.9010 O.2   169  VAL169     -0.2867
    109  CB        71.4200   48.1030  -21.0690 C.3   169  VAL169      0.0252
    110  CG1       72.0320   49.3330  -21.7000 C.3   169  VAL169      0.0019
    111  CG2       71.6670   48.0850  -19.5550 C.3   169  VAL169      0.0019
    112  N         69.9610   42.6210  -20.1340 N.3   171  ILE171     -0.1231
    113  CA        71.0490   41.8310  -19.5390 C.3   171  ILE171      0.1692
    114  C         70.6750   40.4130  -19.0610 C.2   171  ILE171      0.2593
    115  O         69.5840   40.1850  -18.5290 O.2   171  ILE171     -0.2718
    116  CB        71.7150   42.5650  -18.3570 C.3   171  ILE171      0.0266
    117  CG1       73.0850   41.9500  -18.0620 C.3   171  ILE171      0.0019
    118  CG2       70.8300   42.5050  -17.1200 C.3   171  ILE171      0.0020
    119  CD1       73.8610   42.6200  -16.9590 C.3   171  ILE171      0.0001
    120  N         71.5980   39.4690  -19.2460 N.am  172  GLY172     -0.1942
    121  CA        71.4430   38.1360  -18.6980 C.3   172  GLY172      0.2014
    122  C         71.1750   37.0670  -19.7400 C.2   172  GLY172      0.2639
    123  O         70.0660   36.9560  -20.2600 O.2   172  GLY172     -0.2714
    124  N         72.1920   36.2720  -20.0500 N.am  173  GLY173     -0.1939
    125  CA        72.0160   35.1600  -20.9580 C.3   173  GLY173      0.2014
    126  C         72.1760   35.5720  -22.3990 C.2   173  GLY173      0.2639
    127  O         71.9320   34.7840  -23.3080 O.2   173  GLY173     -0.2714
    128  N         72.6140   36.8060  -22.6020 N.am  174  LEU174     -0.1963
    129  CA        72.6410   37.4060  -23.9230 C.3   174  LEU174      0.1728
    130  C         73.7940   36.9210  -24.7860 C.2   174  LEU174      0.2616
    131  O         74.9380   37.2530  -24.5300 O.2   174  LEU174     -0.2715
    132  CB        72.6810   38.9280  -23.7880 C.3   174  LEU174      0.0311
    133  CG        71.3410   39.6560  -23.9130 C.3   174  LEU174      0.0022
    134  CD1       70.2050   38.6890  -23.7220 C.3   174  LEU174      0.0001
    135  CD2       71.2440   40.8120  -22.9420 C.3   174  LEU174      0.0001
    136  N         73.4870   36.1500  -25.8220 N.am  175  HIS175     -0.1973
    137  CA        74.4920   35.7150  -26.7920 C.3   175  HIS175      0.1656
    138  C         73.9940   35.8540  -28.2330 C.2   175  HIS175      0.2291
    139  O         72.8190   36.1560  -28.4690 O.2   175  HIS175     -0.2864
    140  CB        74.8980   34.2760  -26.5080 C.3   175  HIS175      0.0771
    141  CG        75.4480   34.0810  -25.1330 C.ar  175  HIS175      0.0820
    142  ND1       76.7240   34.4660  -24.7840 N.ar  175  HIS175     -0.2267
    143  CD2       74.8850   33.5720  -24.0120 C.ar  175  HIS175      0.1154
    144  CE1       76.9230   34.2020  -23.5050 C.ar  175  HIS175      0.1986
    145  NE2       75.8250   33.6550  -23.0150 N.ar  175  HIS175     -0.2212
    146  N         73.8620   44.2010  -22.9930 N.3   199  CYS199     -0.1221
    147  CA        74.8600   44.1000  -21.9600 C.3   199  CYS199      0.1808
    148  C         75.3650   42.6600  -21.7910 C.2   199  CYS199      0.2601
    149  O         74.5780   41.7290  -21.6170 O.2   199  CYS199     -0.2717
    150  CB        74.2460   44.6330  -20.6770 C.3   199  CYS199      0.0970
    151  SG        75.3680   44.7170  -19.3650 S.3   199  CYS199     -0.0800
    152  N         76.6810   42.4770  -21.8480 N.am  200  VAL200     -0.1965
    153  CA        77.2600   41.1370  -21.7310 C.3   200  VAL200      0.1727
    154  C         78.3620   41.0190  -20.6950 C.2   200  VAL200      0.2616
    155  O         79.0850   41.9760  -20.4030 O.2   200  VAL200     -0.2715
    156  CB        77.8620   40.6470  -23.0550 C.3   200  VAL200      0.0290
    157  CG1       76.7820   40.5110  -24.1080 C.3   200  VAL200      0.0023
    158  CG2       78.9780   41.5860  -23.5040 C.3   200  VAL200      0.0023
    159  N         78.4900   39.8200  -20.1490 N.am  201  VAL201     -0.1963
    160  CA        79.6540   39.4710  -19.3610 C.3   201  VAL201      0.1727
    161  C         80.3500   38.3020  -20.0520 C.2   201  VAL201      0.2617
    162  O         81.3130   38.4810  -20.8010 O.2   201  VAL201     -0.2715
    163  CB        79.2740   39.0920  -17.9120 C.3   201  VAL201      0.0290
    164  CG1       80.5280   38.9140  -17.0560 C.3   201  VAL201      0.0023
    165  CG2       78.3740   40.1510  -17.3060 C.3   201  VAL201      0.0023
    166  N         79.8240   37.1060  -19.8280 N.am  202  SER202     -0.1936
    167  CA        80.4780   35.8830  -20.2640 C.3   202  SER202      0.2055
    168  C         80.7370   35.8010  -21.7700 C.2   202  SER202      0.2643
    169  O         81.6340   35.0840  -22.2060 O.2   202  SER202     -0.2714
    170  CB        79.6620   34.6770  -19.8200 C.3   202  SER202      0.2130
    171  OG        78.6750   34.3770  -20.7790 O.3   202  SER202     -0.2179
    172  N         79.9730   36.5270  -22.5750 N.am  203  ASP203     -0.1971
    173  CA        80.1500   36.3860  -24.0090 C.3   203  ASP203      0.1709
    174  C         81.4850   36.9610  -24.4790 C.2   203  ASP203      0.2293
    175  O         82.0450   36.5140  -25.4860 O.2   203  ASP203     -0.2864
    176  CB        78.9850   36.9900  -24.7960 C.3   203  ASP203      0.1436
    177  CG        78.9960   36.5550  -26.2610 C.2   203  ASP203      0.3671
    178  OD1       78.6750   35.3700  -26.5420 O.co2 203  ASP203     -0.2456
    179  OD2       79.3440   37.3910  -27.1290 O.co2 203  ASP203     -0.2456
@<TRIPOS>BOND
     1   139   138    2
     2   138   137    1
     3   179   177   ar
     4   137   140    1
     5   137   136    1
     6   178   177   ar
     7   140   141    1
     8   177   176    1
     9   136   130   am
    10   175   174    2
    11   141   142   ar
    12   141   143   ar
    13   176   173    1
    14   130   131    2
    15   130   129    1
    16   142   144   ar
    17   174   173    1
    18   157   156    1
    19   143   145   ar
    20   173   172    1
    21   129   132    1
    22   129   128    1
    23   133   132    1
    24   133   134    1
    25   133   135    1
    26     1     2    1
    27   144   145   ar
    28   158   156    1
    29   127   126    2
    30   156   153    1
    31   146   147    1
    32   128   126   am
    33   172   168   am
    34     2     3    1
    35     2     5    1
    36   126   125    1
    37   169   168    2
    38   147   148    1
    39   147   150    1
    40     3     4    2
    41   152   148   am
    42   152   153    1
    43   148   149    2
    44   168   167    1
    45   153   154    1
    46     5     6    1
    47   110   109    1
    48   106   109    1
    49   106   107    1
    50   106   105    1
    51   109   111    1
    52   107   108    2
    53   125   124    1
    54   162   161    2
    55   171   170    1
    56   154   155    2
    57   154   159   am
    58   150   151    1
    59     6     7   ar
    60     6     8   ar
    61   167   166    1
    62   167   170    1
    63   123   122    2
    64   159   160    1
    65   112   113    1
    66   161   166   am
    67   161   160    1
    68   124   122   am
    69   122   121    1
    70     7     9   ar
    71     8    10   ar
    72   113   114    1
    73   113   116    1
    74   160   163    1
    75   120   114   am
    76   120   121    1
    77   114   115    2
    78    13    14    1
    79   116   117    1
    80   116   118    1
    81     9    11   ar
    82    10    11   ar
    83   117   119    1
    84   163   165    1
    85   163   164    1
    86    11    12    1
    87    16    15    2
    88    68    69    1
    89    68    65    1
    90    14    15    1
    91    14    17    1
    92    96    95    1
    93    86    87    2
    94    86    85    1
    95    19    17    1
    96    20    21    1
    97    91    92    1
    98    92    95    1
    99    92    93    1
   100    17    18    1
   101    70    69   ar
   102    70    72   ar
   103    69    71   ar
   104    77    78    1
   105    77    76    1
   106    65    64    1
   107    65    66    1
   108    95    97    1
   109    83    82    2
   110    78    79    2
   111    72    74   ar
   112    71    73   ar
   113    85    84    1
   114    85    88    1
   115   103   102    1
   116    90    88    1
   117    93    94    2
   118    80    81    1
   119    21    24    1
   120    21    22    1
   121    82    84   am
   122    82    81    1
   123    66    67    2
   124    74    73   ar
   125    74    75    1
   126    23    22    2
   127    24    25    1
   128    88    89    1
   129   102   104    1
   130   102    99    1
   131    28    26   am
   132    98    99    1
   133    25    26    1
   134    99   100    1
   135    26    27    2
   136    55    57   ar
   137    55    53   ar
   138    57    56   ar
   139   100   101    2
   140    53    52    1
   141    53    54   ar
   142    56    54   ar
   143    29    30    1
   144    35    36    1
   145    35    34    1
   146    33    30    1
   147    33    34    1
   148    52    49    1
   149    59    60    1
   150    59    58    1
   151    59    62    1
   152    38    37    1
   153    63    62    1
   154    60    61    2
   155    36    37    2
   156    30    31    1
   157    32    31    2
   158    37    39    1
   159    49    48    1
   160    49    50    1
   161    46    45    2
   162    40    41    1
   163    44    45    1
   164    44    41    1
   165    50    51    2
   166    45    47   am
   167    41    42    1
   168    42    43    2
