@<TRIPOS>MOLECULE
tmp/3nlbA00.pdb
 158 149 0 0 0
SMALL
GASTEIGER

@<TRIPOS>ATOM
      1  N          2.1750   -9.0700   28.5480 N.3     8  GLN8       -0.1245
      2  CA         1.4130   -9.8480   27.5790 C.3     8  GLN8        0.1566
      3  C          2.0820   -9.8760   26.2180 C.2     8  GLN8        0.2260
      4  O          2.8000   -8.9320   25.8420 O.2     8  GLN8       -0.2867
      5  CB        -0.0070   -9.3170   27.4460 C.3     8  GLN8        0.0367
      6  CG        -0.1250   -7.9150   26.9040 C.3     8  GLN8        0.0905
      7  CD        -1.4290   -7.7140   26.1600 C.2     8  GLN8        0.2608
      8  OE1       -1.9750   -8.6610   25.5870 O.2     8  GLN8       -0.2717
      9  NE2       -1.9320   -6.4770   26.1530 N.am    8  GLN8       -0.0878
     10  N          2.2940   -9.5590   22.2800 N.3    10  LEU10      -0.1231
     11  CA         1.6360   -8.6910   21.3150 C.3    10  LEU10       0.1693
     12  C          1.5400   -9.3140   19.9010 C.2    10  LEU10       0.2593
     13  O          0.6860   -8.9210   19.1010 O.2    10  LEU10      -0.2718
     14  CB         2.3610   -7.3460   21.2860 C.3    10  LEU10       0.0284
     15  CG         1.9400   -6.0780   22.0570 C.3    10  LEU10       0.0019
     16  CD1        0.7900   -6.1650   23.0790 C.3    10  LEU10       0.0001
     17  CD2        3.1990   -5.3230   22.5930 C.3    10  LEU10       0.0001
     18  N          2.4190  -10.2700   19.6100 N.am   11  GLY11      -0.1942
     19  CA         2.4810  -10.9080   18.3130 C.3    11  GLY11       0.2014
     20  C          3.9140  -11.2300   17.9260 C.2    11  GLY11       0.2639
     21  O          4.8330  -11.1460   18.7690 O.2    11  GLY11      -0.2714
     22  N          4.1300  -11.5780   16.6530 N.am   12  GLU12      -0.1963
     23  CA         5.4880  -11.7910   16.1450 C.3    12  GLU12       0.1733
     24  C          6.0170  -10.6850   15.1810 C.2    12  GLU12       0.2616
     25  O          5.2700  -10.2150   14.3170 O.2    12  GLU12      -0.2715
     26  CB         5.5630  -13.1590   15.4810 C.3    12  GLU12       0.0429
     27  CG         5.1600  -14.3020   16.4400 C.3    12  GLU12       0.1163
     28  CD         5.4390  -15.6950   15.8840 C.2    12  GLU12       0.3649
     29  OE1        4.9440  -16.6780   16.5010 O.co2  12  GLU12      -0.2457
     30  OE2        6.1470  -15.8060   14.8450 O.co2  12  GLU12      -0.2457
     31  N          7.2970  -10.2940   15.3310 N.am   13  GLY13      -0.1955
     32  CA         7.9850   -9.4440   14.3270 C.3    13  GLY13       0.1869
     33  C          8.5260  -10.3460   13.2110 C.2    13  GLY13       0.2309
     34  O          8.3180  -11.5600   13.2690 O.2    13  GLY13      -0.2863
     35  N          7.0250  -10.0600   20.1310 N.3    18  VAL18      -0.1245
     36  CA         6.9790   -8.8100   20.8250 C.3    18  VAL18       0.1561
     37  C          6.0450   -8.9250   22.0320 C.2    18  VAL18       0.2260
     38  O          4.9460   -9.4820   21.9210 O.2    18  VAL18      -0.2867
     39  CB         6.5650   -7.6180   19.8740 C.3    18  VAL18       0.0252
     40  CG1        6.4540   -6.3080   20.6510 C.3    18  VAL18       0.0019
     41  CG2        7.5350   -7.4780   18.7280 C.3    18  VAL18       0.0019
     42  N          7.6930   -1.9070   24.2990 N.3    31  ALA31      -0.1245
     43  CA         7.5680   -3.2210   23.6780 C.3    31  ALA31       0.1562
     44  C          8.9320   -3.8660   23.6640 C.2    31  ALA31       0.2260
     45  O          9.9490   -3.2250   23.3480 O.2    31  ALA31      -0.2867
     46  CB         6.9790   -3.1390   22.2630 C.3    31  ALA31       0.0290
     47  N          9.0710    3.8100   14.7910 N.3    58  VAL58      -0.1245
     48  CA         8.9730    3.2240   16.1250 C.3    58  VAL58       0.1561
     49  C         10.3520    3.4510   16.8170 C.2    58  VAL58       0.2260
     50  O         11.4030    3.0730   16.2770 O.2    58  VAL58      -0.2867
     51  CB         8.6360    1.7060   16.1250 C.3    58  VAL58       0.0252
     52  CG1        8.8250    1.0910   17.5670 C.3    58  VAL58       0.0019
     53  CG2        7.1730    1.4880   15.5880 C.3    58  VAL58       0.0019
     54  N         11.6650   -1.3390   22.4270 N.3    74  LEU74      -0.1231
     55  CA        11.0540   -0.4950   21.3960 C.3    74  LEU74       0.1693
     56  C          9.8470    0.2650   21.9170 C.2    74  LEU74       0.2592
     57  O          9.2090   -0.1370   22.9050 O.2    74  LEU74      -0.2718
     58  CB        10.6500   -1.3170   20.1610 C.3    74  LEU74       0.0284
     59  CG        11.6950   -2.2260   19.5170 C.3    74  LEU74       0.0019
     60  CD1       11.0230   -3.4020   18.7800 C.3    74  LEU74       0.0001
     61  CD2       12.6380   -1.4550   18.6110 C.3    74  LEU74       0.0001
     62  N          9.5490    1.3810   21.2620 N.am   75  GLU75      -0.1966
     63  CA         8.3790    2.1640   21.5870 C.3    75  GLU75       0.1733
     64  C          7.1240    1.2650   21.5940 C.2    75  GLU75       0.2616
     65  O          6.9000    0.4910   20.6490 O.2    75  GLU75      -0.2715
     66  CB         8.2160    3.2780   20.5410 C.3    75  GLU75       0.0429
     67  CG         7.0980    4.2390   20.8740 C.3    75  GLU75       0.1163
     68  CD         6.9610    5.3470   19.8810 C.2    75  GLU75       0.3649
     69  OE1        5.9290    6.0460   19.9640 O.co2  75  GLU75      -0.2457
     70  OE2        7.8480    5.4900   18.9920 O.co2  75  GLU75      -0.2457
     71  N          6.3310    1.3330   22.6610 N.am   76  TYR76      -0.1960
     72  CA         5.0620    0.6330   22.6770 C.3    76  TYR76       0.1771
     73  C          4.0390    1.5390   22.0110 C.2    76  TYR76       0.2620
     74  O          3.9550    2.7160   22.3330 O.2    76  TYR76      -0.2715
     75  CB         4.6100    0.3440   24.1210 C.3    76  TYR76       0.0574
     76  CG         3.2150   -0.2090   24.1800 C.ar   76  TYR76      -0.0198
     77  CD1        2.9090   -1.4180   23.5340 C.ar   76  TYR76      -0.0009
     78  CD2        2.2040    0.4600   24.8490 C.ar   76  TYR76      -0.0009
     79  CE1        1.6590   -1.9520   23.5910 C.ar   76  TYR76       0.0417
     80  CE2        0.9210   -0.0910   24.9080 C.ar   76  TYR76       0.0417
     81  CZ         0.6560   -1.2840   24.2510 C.ar   76  TYR76       0.1957
     82  OH        -0.6290   -1.8570   24.2450 O.3    76  TYR76      -0.2866
     83  N          3.2410    1.0030   21.1080 N.am   77  CYS77      -0.1954
     84  CA         2.2490    1.8110   20.4170 C.3    77  CYS77       0.1843
     85  C          0.9520    1.1990   20.8120 C.2    77  CYS77       0.2626
     86  O          0.6540    0.0570   20.4400 O.2    77  CYS77      -0.2714
     87  CB         2.4700    1.7490   18.9050 C.3    77  CYS77       0.0997
     88  SG         4.0290    2.4880   18.4170 S.3    77  CYS77      -0.0797
     89  N          0.2020    1.9360   21.6210 N.am   78  SER78      -0.1936
     90  CA        -0.9000    1.3370   22.3700 C.3    78  SER78       0.2055
     91  C         -2.1540    1.2930   21.5280 C.2    78  SER78       0.2644
     92  O         -3.1270    0.6470   21.8900 O.2    78  SER78      -0.2714
     93  CB        -1.1620    2.1460   23.6410 C.3    78  SER78       0.2130
     94  OG        -1.6430    3.4250   23.2630 O.3    78  SER78      -0.2179
     95  N         -2.1010    1.9700   20.3820 N.am   79  GLY79      -0.1939
     96  CA        -3.1640    1.9350   19.3740 C.3    79  GLY79       0.2014
     97  C         -3.1780    0.6740   18.5220 C.2    79  GLY79       0.2639
     98  O         -4.0970    0.4680   17.7840 O.2    79  GLY79      -0.2714
     99  N         -2.1480   -0.1490   18.5990 N.am   80  GLY80      -0.1939
    100  CA        -2.0570   -1.3890   17.8000 C.3    80  GLY80       0.2014
    101  C         -1.7430   -1.1700   16.3080 C.2    80  GLY80       0.2638
    102  O         -1.1860   -0.1290   15.9150 O.2    80  GLY80      -0.2714
    103  N         -2.0890   -2.1550   15.4900 N.am   81  GLU81      -0.1977
    104  CA        -1.6840   -2.2040   14.0870 C.3    81  GLU81       0.1602
    105  C         -2.7000   -1.4730   13.2490 C.2    81  GLU81       0.2287
    106  O         -3.9300   -1.5140   13.5550 O.2    81  GLU81      -0.2864
    107  CB        -1.6460   -3.6630   13.6310 C.3    81  GLU81       0.0415
    108  CG        -0.5030   -4.4730   14.3160 C.3    81  GLU81       0.1163
    109  CD        -0.5120   -5.9410   13.8610 C.2    81  GLU81       0.3649
    110  OE1        0.2910   -6.7350   14.4110 O.co2  81  GLU81      -0.2457
    111  OE2       -1.2640   -6.2890   12.9300 O.co2  81  GLU81      -0.2457
    112  N         -5.7590   -3.4020   11.9540 N.3    84  ASP84      -0.1239
    113  CA        -7.0210   -3.5590   12.7050 C.3    84  ASP84       0.1674
    114  C         -7.9970   -2.3970   12.5870 C.2    84  ASP84       0.2266
    115  O         -9.1200   -2.5200   13.0830 O.2    84  ASP84      -0.2867
    116  CB        -6.7540   -3.9950   14.1700 C.3    84  ASP84       0.1410
    117  CG        -6.0950   -5.3950   14.2150 C.2    84  ASP84       0.3668
    118  OD1       -4.9900   -5.5740   14.7880 O.co2  84  ASP84      -0.2456
    119  OD2       -6.6400   -6.2930   13.5090 O.co2  84  ASP84      -0.2456
    120  N          0.2360   -4.5020    8.9500 N.3   124  GLU124     -0.1231
    121  CA         0.6470   -5.2230   10.1620 C.3   124  GLU124      0.1699
    122  C          1.9110   -4.5810   10.7680 C.2   124  GLU124      0.2592
    123  O          2.1810   -4.7490   11.9700 O.2   124  GLU124     -0.2718
    124  CB         1.0290   -6.7070    9.7970 C.3   124  GLU124      0.0402
    125  CG        -0.1490   -7.5820    9.2720 C.3   124  GLU124      0.1161
    126  CD        -0.4110   -7.4710    7.7380 C.2   124  GLU124      0.3649
    127  OE1       -0.1310   -6.4240    7.1370 O.co2 124  GLU124     -0.2457
    128  OE2       -0.9630   -8.4270    7.1190 O.co2 124  GLU124     -0.2457
    129  N          2.6890   -3.8940    9.9340 N.am  125  ASN125     -0.1974
    130  CA         3.9600   -3.2630   10.3910 C.3   125  ASN125      0.1688
    131  C          3.8190   -1.7640   10.6310 C.2   125  ASN125      0.2292
    132  O          4.8110   -1.0640   10.9280 O.2   125  ASN125     -0.2864
    133  CB         5.0550   -3.5460    9.3450 C.3   125  ASN125      0.1181
    134  CG         5.5200   -5.0090    9.3880 C.2   125  ASN125      0.2629
    135  OD1        5.4180   -5.6510   10.4300 O.2   125  ASN125     -0.2716
    136  ND2        6.0830   -5.4940    8.3010 N.am  125  ASN125     -0.0877
    137  N          2.1680    0.9790   13.0020 N.3   127  LEU127     -0.1245
    138  CA         1.5660    0.9830   14.3720 C.3   127  LEU127      0.1561
    139  C          0.9980    2.3370   14.7280 C.2   127  LEU127      0.2260
    140  O          1.3870    3.3500   14.1570 O.2   127  LEU127     -0.2867
    141  CB         2.5700    0.4690   15.4300 C.3   127  LEU127      0.0270
    142  CG         3.2500   -0.8410   15.0520 C.3   127  LEU127      0.0019
    143  CD1        4.3190   -1.1630   16.1250 C.3   127  LEU127      0.0001
    144  CD2        2.2250   -2.0200   14.9610 C.3   127  LEU127      0.0001
    145  N          7.2090    0.2800   11.7900 N.3   137  SER137     -0.1202
    146  CA         7.8630   -0.6380   12.6850 C.3   137  SER137      0.2020
    147  C          8.5200   -1.7960   11.9610 C.2   137  SER137      0.2618
    148  O          8.1670   -2.1220   10.8230 O.2   137  SER137     -0.2717
    149  CB         6.8190   -1.2000   13.6730 C.3   137  SER137      0.2103
    150  OG         7.5340   -1.8780   14.6960 O.3   137  SER137     -0.2182
    151  N          9.5110   -2.4050   12.6280 N.am  138  ASP138     -0.1973
    152  CA        10.1580   -3.6430   12.1630 C.3   138  ASP138      0.1709
    153  C         11.1670   -3.4890   11.0300 C.2   138  ASP138      0.2293
    154  O         10.8260   -3.4290    9.8200 O.2   138  ASP138     -0.2864
    155  CB         9.1430   -4.7910   11.9600 C.3   138  ASP138      0.1436
    156  CG         9.8120   -6.1970   11.9210 C.2   138  ASP138      0.3671
    157  OD1        9.0920   -7.1950   12.1130 O.co2 138  ASP138     -0.2456
    158  OD2       11.0030   -6.3150   11.6310 O.co2 138  ASP138     -0.2456
@<TRIPOS>BOND
     1   128   126   ar
     2   127   126   ar
     3   126   125    1
     4   136   134   am
     5   120   121    1
     6   125   124    1
     7   133   134    1
     8   133   130    1
     9   134   135    2
    10   124   121    1
    11   154   153    2
    12   129   130    1
    13   129   122   am
    14   121   122    1
    15   130   131    1
    16   131   132    2
    17   122   123    2
    18   148   147    2
    19   153   152    1
    20   158   156   ar
    21   145   146    1
    22   156   155    1
    23   156   157   ar
    24   112   113    1
    25   155   152    1
    26   147   151   am
    27   147   146    1
    28   152   151    1
    29   114   113    1
    30   114   115    2
    31   146   149    1
    32   113   116    1
    33   111   109   ar
    34   137   138    1
    35    33    34    2
    36    33    32    1
    37   105   106    2
    38   105   104    1
    39   119   117   ar
    40   107   104    1
    41   107   108    1
    42   149   150    1
    43   109   108    1
    44   109   110   ar
    45   104   103    1
    46   140   139    2
    47   116   117    1
    48   117   118   ar
    49    25    24    2
    50    32    31    1
    51   138   139    1
    52   138   141    1
    53    47    48    1
    54    30    28   ar
    55   144   142    1
    56   142   141    1
    57   142   143    1
    58    24    31   am
    59    24    23    1
    60    26    23    1
    61    26    27    1
    62   103   101   am
    63    53    51    1
    64    28    27    1
    65    28    29   ar
    66   102   101    2
    67    48    51    1
    68    48    49    1
    69    51    52    1
    70    23    22    1
    71    50    49    2
    72   101   100    1
    73    22    20   am
    74    98    97    2
    75   100    99    1
    76    20    19    1
    77    20    21    2
    78    19    18    1
    79    88    87    1
    80    97    99   am
    81    97    96    1
    82    61    59    1
    83    41    39    1
    84    60    59    1
    85    87    84    1
    86    70    68   ar
    87    13    12    2
    88    96    95    1
    89    59    58    1
    90    18    12   am
    91    39    40    1
    92    39    36    1
    93    68    69   ar
    94    68    67    1
    95    12    11    1
    96    35    36    1
    97    58    55    1
    98    95    91   am
    99    84    85    1
   100    84    83    1
   101    86    85    2
   102    66    67    1
   103    66    63    1
   104    65    64    2
   105    85    89   am
   106    36    37    1
   107    83    73   am
   108    62    63    1
   109    62    56   am
   110    14    11    1
   111    14    15    1
   112    11    10    1
   113    55    56    1
   114    55    54    1
   115    91    92    2
   116    91    90    1
   117    63    64    1
   118    64    71   am
   119    89    90    1
   120    56    57    2
   121    38    37    2
   122    73    74    2
   123    73    72    1
   124    15    17    1
   125    15    16    1
   126    46    43    1
   127    90    93    1
   128    71    72    1
   129    72    75    1
   130    94    93    1
   131    45    44    2
   132    77    79   ar
   133    77    76   ar
   134    79    81   ar
   135    44    43    1
   136    43    42    1
   137    75    76    1
   138    76    78   ar
   139    82    81    1
   140    81    80   ar
   141    78    80   ar
   142     8     7    2
   143     4     3    2
   144     9     7   am
   145     7     6    1
   146     3     2    1
   147     6     5    1
   148     5     2    1
   149     2     1    1
