@<TRIPOS>MOLECULE
tmp/3nlgA02.pdb
 167 164 0 0 0
SMALL
GASTEIGER

@<TRIPOS>ATOM
      1  N         17.4290   11.3530   45.8450 N.3    40  VAL40      -0.1231
      2  CA        17.1150   11.5480   44.4330 C.3    40  VAL40       0.1692
      3  C         18.2270   10.9730   43.5230 C.2    40  VAL40       0.2591
      4  O         17.9540   10.1420   42.6480 O.2    40  VAL40      -0.2718
      5  CB        16.7990   13.0440   44.1390 C.3    40  VAL40       0.0266
      6  CG1       16.6650   13.2970   42.6370 C.3    40  VAL40       0.0020
      7  CG2       15.5380   13.4830   44.8870 C.3    40  VAL40       0.0020
      8  N         19.4670   11.4190   43.7600 N.am   41  LEU41      -0.1980
      9  CA        20.6540   10.9390   43.0720 C.3    41  LEU41       0.1596
     10  C         21.5620   10.2990   44.1100 C.2    41  LEU41       0.2287
     11  O         21.9700   10.9710   45.0910 O.2    41  LEU41      -0.2864
     12  CB        21.4010   12.1080   42.4270 C.3    41  LEU41       0.0297
     13  CG        20.5750   13.1290   41.6290 C.3    41  LEU41       0.0022
     14  CD1       21.4070   14.3520   41.2720 C.3    41  LEU41       0.0001
     15  CD2       19.9640   12.5050   40.3720 C.3    41  LEU41       0.0001
     16  N          8.8410    5.2830   37.1150 N.3   108  CYS108     -0.1235
     17  CA         7.7670    5.5570   36.1690 C.3   108  CYS108      0.1677
     18  C          6.4590    4.8230   36.4890 C.2   108  CYS108      0.2270
     19  O          6.3990    3.5870   36.4690 O.2   108  CYS108     -0.2867
     20  CB         8.2060    5.2070   34.7370 C.3   108  CYS108      0.0956
     21  SG         6.9450    5.5160   33.4980 S.3   108  CYS108     -0.0801
     22  N         17.5450   19.3740   29.3620 N.3   170  SER170     -0.1202
     23  CA        17.0420   18.1940   30.1010 C.3   170  SER170      0.2020
     24  C         15.7600   17.6050   29.5160 C.2   170  SER170      0.2618
     25  O         15.4870   16.4130   29.6920 O.2   170  SER170     -0.2717
     26  CB        16.8630   18.4880   31.5880 C.3   170  SER170      0.2103
     27  OG        15.7770   19.3670   31.7920 O.3   170  SER170     -0.2182
     28  N         14.9880   18.4370   28.8180 N.am  171  GLN171     -0.1979
     29  CA        13.8450   17.9680   28.0380 C.3   171  GLN171      0.1601
     30  C         13.8730   18.6680   26.6870 C.2   171  GLN171      0.2287
     31  O         14.4920   19.7530   26.5360 O.2   171  GLN171     -0.2864
     32  CB        12.5280   18.3060   28.7310 C.3   171  GLN171      0.0394
     33  CG        12.2460   17.6260   30.0680 C.3   171  GLN171      0.0908
     34  CD        10.8510   17.9980   30.6090 C.2   171  GLN171      0.2608
     35  OE1       10.5670   19.1550   30.9080 O.2   171  GLN171     -0.2717
     36  NE2        9.9870   17.0190   30.7140 N.am  171  GLN171     -0.0878
     37  N         11.1480   22.9190   27.2190 N.3   174  ARG174     -0.1245
     38  CA        11.3360   23.4590   28.5720 C.3   174  ARG174      0.1563
     39  C         11.1930   24.9650   28.4360 C.2   174  ARG174      0.2260
     40  O         11.4470   25.4910   27.3700 O.2   174  ARG174     -0.2867
     41  CB        12.7600   23.1910   29.0710 C.3   174  ARG174      0.0307
     42  CG        13.1050   21.7800   29.4460 C.3   174  ARG174      0.0489
     43  CD        13.5080   21.7270   30.8890 C.3   174  ARG174      0.2205
     44  NE        12.4310   21.2360   31.7200 N.pl3 174  ARG174     -0.0865
     45  CZ        12.4220   21.3040   33.0440 C.cat 174  ARG174      0.5346
     46  NH1       13.4180   21.8590   33.7060 N.pl3 174  ARG174      0.1354
     47  NH2       11.3960   20.8190   33.7120 N.pl3 174  ARG174      0.1354
     48  N          5.9040   15.7570   27.2250 N.3   258  PRO258     -0.2116
     49  CA         6.9440   15.5880   28.2280 C.3   258  PRO258      0.1372
     50  C          8.0480   14.6880   27.6780 C.2   258  PRO258      0.2244
     51  O          7.8130   13.4950   27.4300 O.2   258  PRO258     -0.2868
     52  CB         6.1940   14.9050   29.3850 C.3   258  PRO258      0.0268
     53  CG         5.0790   14.1410   28.7040 C.3   258  PRO258      0.0207
     54  CD         4.7580   14.8480   27.4350 C.3   258  PRO258      0.0892
     55  N         12.1150   13.5190   28.0770 N.3   260  VAL260     -0.1245
     56  CA        13.4080   13.5510   28.7630 C.3   260  VAL260      0.1561
     57  C         14.5460   13.4300   27.7630 C.2   260  VAL260      0.2260
     58  O         14.5510   12.5040   26.9520 O.2   260  VAL260     -0.2867
     59  CB        13.5160   12.4170   29.8350 C.3   260  VAL260      0.0252
     60  CG1       14.8660   12.3990   30.4880 C.3   260  VAL260      0.0019
     61  CG2       12.4380   12.5740   30.8900 C.3   260  VAL260      0.0019
     62  N         18.2320   14.1080   28.5590 N.3   262  ASN262     -0.1225
     63  CA        19.6170   14.0440   29.0350 C.3   262  ASN262      0.1785
     64  C         19.9590   12.7650   29.7870 C.2   262  ASN262      0.2597
     65  O         20.9910   12.7080   30.4570 O.2   262  ASN262     -0.2718
     66  CB        19.9930   15.2800   29.8730 C.3   262  ASN262      0.1169
     67  CG        19.1750   15.4150   31.1680 C.2   262  ASN262      0.2627
     68  OD1       19.4750   16.3010   31.9720 O.2   262  ASN262     -0.2716
     69  ND2       18.1250   14.5760   31.3660 N.am  262  ASN262     -0.0877
     70  N         19.0800   11.7640   29.7000 N.am  263  MET263     -0.1979
     71  CA        19.3290   10.4640   30.3210 C.3   263  MET263      0.1605
     72  C         20.1540    9.5140   29.4320 C.2   263  MET263      0.2287
     73  O         20.0940    9.5720   28.1870 O.2   263  MET263     -0.2864
     74  CB        18.0090    9.8370   30.7600 C.3   263  MET263      0.0413
     75  CG        17.4220   10.5720   31.9580 C.3   263  MET263      0.0598
     76  SD        16.2990    9.6340   33.0210 S.3   263  MET263     -0.1393
     77  CE        17.4300    8.5970   33.9280 C.3   263  MET263      0.0692
     78  N         13.4190   10.5380   25.0060 N.3   277  PHE277     -0.1227
     79  CA        12.1750    9.7450   25.0050 C.3   277  PHE277      0.1736
     80  C         11.0100   10.5690   25.5210 C.2   277  PHE277      0.2596
     81  O         11.1930   11.4730   26.3370 O.2   277  PHE277     -0.2718
     82  CB        12.3160    8.4520   25.8280 C.3   277  PHE277      0.0547
     83  CG        12.7240    8.6690   27.2780 C.ar  277  PHE277     -0.0202
     84  CD1       11.7860    8.9450   28.2460 C.ar  277  PHE277     -0.0042
     85  CD2       14.0430    8.5680   27.6610 C.ar  277  PHE277     -0.0042
     86  CE1       12.1390    9.1190   29.5730 C.ar  277  PHE277     -0.0003
     87  CE2       14.4190    8.7520   28.9810 C.ar  277  PHE277     -0.0003
     88  CZ        13.4500    9.0210   29.9440 C.ar  277  PHE277     -0.0000
     89  N          9.8080   10.2330   25.0710 N.am  278  SER278     -0.1938
     90  CA         8.6300   10.9980   25.4710 C.3   278  SER278      0.2055
     91  C          7.3790   10.1400   25.6280 C.2   278  SER278      0.2644
     92  O          7.2480    9.0670   25.0180 O.2   278  SER278     -0.2714
     93  CB         8.3610   12.1320   24.4760 C.3   278  SER278      0.2130
     94  OG         8.1030   11.6150   23.1950 O.3   278  SER278     -0.2179
     95  N          6.4770   10.6160   26.4690 N.am  279  GLY279     -0.1939
     96  CA         5.2260    9.9590   26.6750 C.3   279  GLY279      0.2014
     97  C          4.1290   10.9930   26.6310 C.2   279  GLY279      0.2639
     98  O          4.0600   11.7920   25.6990 O.2   279  GLY279     -0.2714
     99  N          3.2410   10.9330   27.6160 N.am  280  TRP280     -0.1959
    100  CA         2.2720   11.9990   27.8670 C.3   280  TRP280      0.1771
    101  C          2.1990   12.2460   29.3860 C.2   280  TRP280      0.2620
    102  O          2.6460   11.4060   30.1760 O.2   280  TRP280     -0.2715
    103  CB         0.9260   11.6580   27.2590 C.3   280  TRP280      0.0590
    104  CG         0.3230   10.3860   27.7400 C.ar  280  TRP280      0.0006
    105  CD1       -0.2690   10.1530   28.9710 C.ar  280  TRP280      0.0946
    106  CD2        0.2020    9.1630   26.9970 C.ar  280  TRP280      0.0152
    107  NE1       -0.7420    8.8600   29.0260 N.ar  280  TRP280     -0.2442
    108  CE2       -0.4640    8.2290   27.8330 C.ar  280  TRP280      0.0810
    109  CE3        0.5910    8.7650   25.7060 C.ar  280  TRP280      0.0012
    110  CZ2       -0.7420    6.9080   27.4190 C.ar  280  TRP280      0.0191
    111  CZ3        0.3220    7.4470   25.2880 C.ar  280  TRP280      0.0001
    112  CH2       -0.3340    6.5360   26.1460 C.ar  280  TRP280      0.0015
    113  N          1.6500   13.3890   29.7900 N.am  281  TYR281     -0.1960
    114  CA         1.6720   13.7960   31.1930 C.3   281  TYR281      0.1771
    115  C          0.6950   13.0800   32.1420 C.2   281  TYR281      0.2619
    116  O         -0.4200   12.7050   31.7640 O.2   281  TYR281     -0.2715
    117  CB         1.4380   15.3130   31.3020 C.3   281  TYR281      0.0574
    118  CG         2.6960   16.1550   31.2340 C.ar  281  TYR281     -0.0198
    119  CD1        3.6530   16.1090   32.2410 C.ar  281  TYR281     -0.0009
    120  CD2        2.9160   17.0180   30.1660 C.ar  281  TYR281     -0.0009
    121  CE1        4.8100   16.9100   32.1700 C.ar  281  TYR281      0.0417
    122  CE2        4.0610   17.8110   30.0820 C.ar  281  TYR281      0.0417
    123  CZ         4.9840   17.7640   31.0870 C.ar  281  TYR281      0.1957
    124  OH         6.0980   18.5460   30.9970 O.3   281  TYR281     -0.2866
    125  N          1.1240   12.9100   33.3940 N.am  282  MET282     -0.1977
    126  CA         0.1660   12.7440   34.4770 C.3   282  MET282      0.1605
    127  C         -0.0430   14.1490   35.0290 C.2   282  MET282      0.2287
    128  O          0.9220   14.8980   35.2340 O.2   282  MET282     -0.2864
    129  CB         0.6740   11.8060   35.5570 C.3   282  MET282      0.0413
    130  CG        -0.2450   11.7110   36.7880 C.3   282  MET282      0.0598
    131  SD         0.3210   10.4150   37.9200 S.3   282  MET282     -0.1393
    132  CE         1.5130   11.3220   38.9040 C.3   282  MET282      0.0692
    133  N          2.0220   16.2820   37.5440 N.3   285  GLU285     -0.1245
    134  CA         3.3570   16.7640   37.1650 C.3   285  GLU285      0.1567
    135  C          3.3530   18.2680   36.9140 C.2   285  GLU285      0.2260
    136  O          4.3120   18.9900   37.2850 O.2   285  GLU285     -0.2867
    137  CB         3.8610   16.0460   35.9040 C.3   285  GLU285      0.0388
    138  CG         4.1030   14.5700   36.0820 C.3   285  GLU285      0.1160
    139  CD         4.6060   13.9220   34.8090 C.2   285  GLU285      0.3649
    140  OE1        5.8400   14.0330   34.5380 O.co2 285  GLU285     -0.2457
    141  OE2        3.7670   13.3200   34.0830 O.co2 285  GLU285     -0.2457
    142  N          8.2440    7.9520   44.4810 N.3   371  TRP371     -0.1241
    143  CA         8.0290    8.5380   43.1550 C.3   371  TRP371      0.1605
    144  C          6.7520    8.0680   42.4990 C.2   371  TRP371      0.2264
    145  O          6.1850    8.7820   41.6800 O.2   371  TRP371     -0.2867
    146  CB         9.1870    8.2060   42.2160 C.3   371  TRP371      0.0550
    147  CG        10.3840    9.0690   42.4520 C.ar  371  TRP371      0.0003
    148  CD1       11.1460    9.1130   43.5730 C.ar  371  TRP371      0.0946
    149  CD2       10.9490   10.0200   41.5350 C.ar  371  TRP371      0.0152
    150  NE1       12.1580   10.0400   43.4210 N.ar  371  TRP371     -0.2442
    151  CE2       12.0580   10.6100   42.1770 C.ar  371  TRP371      0.0810
    152  CE3       10.6200   10.4290   40.2270 C.ar  371  TRP371      0.0012
    153  CZ2       12.8510   11.5900   41.5630 C.ar  371  TRP371      0.0191
    154  CZ3       11.3960   11.4150   39.6110 C.ar  371  TRP371      0.0001
    155  CH2       12.5050   11.9870   40.2880 C.ar  371  TRP371      0.0015
    156  N         20.8010    8.4210   35.1230 N.3   399  TYR399     -0.1241
    157  CA        21.2640    9.8060   35.1190 C.3   399  TYR399      0.1605
    158  C         22.7090    9.8350   34.6320 C.2   399  TYR399      0.2264
    159  O         23.4470    8.8610   34.7800 O.2   399  TYR399     -0.2867
    160  CB        21.1650   10.4510   36.5090 C.3   399  TYR399      0.0534
    161  CG        19.7560   10.5050   37.0710 C.ar  399  TYR399     -0.0201
    162  CD1       18.7410   11.2320   36.4200 C.ar  399  TYR399     -0.0009
    163  CD2       19.4370    9.8410   38.2560 C.ar  399  TYR399     -0.0009
    164  CE1       17.4600   11.2950   36.9470 C.ar  399  TYR399      0.0417
    165  CE2       18.1540    9.8910   38.7880 C.ar  399  TYR399      0.0417
    166  CZ        17.1760   10.6220   38.1360 C.ar  399  TYR399      0.1957
    167  OH        15.9050   10.6540   38.6670 O.3   399  TYR399     -0.2866
@<TRIPOS>BOND
     1    94    93    1
     2    93    90    1
     3    79    78    1
     4    79    80    1
     5    79    82    1
     6    92    91    2
     7    89    90    1
     8    89    80   am
     9   111   109   ar
    10   111   112   ar
    11    90    91    1
    12    80    81    2
    13    91    95   am
    14    98    97    2
    15   109   106   ar
    16    82    83    1
    17   112   110   ar
    18    95    96    1
    19    31    30    2
    20    97    96    1
    21    97    99   am
    22    30    29    1
    23    58    57    2
    24   106   104   ar
    25   106   108   ar
    26    37    38    1
    27    48    54    1
    28    48    49    1
    29   103   104    1
    30   103   100    1
    31    83    85   ar
    32    83    84   ar
    33    40    39    2
    34   110   108   ar
    35    51    50    2
    36    54    53    1
    37    99   100    1
    38    85    87   ar
    39    50    49    1
    40   104   105   ar
    41    57    56    1
    42   108   107   ar
    43   100   101    1
    44    29    32    1
    45    29    28    1
    46    55    56    1
    47    73    72    2
    48    49    52    1
    49    84    86   ar
    50    39    38    1
    51    62    63    1
    52    38    41    1
    53    53    52    1
    54    32    33    1
    55    56    59    1
    56    28    24   am
    57   105   107   ar
    58    87    88   ar
    59    63    64    1
    60    63    66    1
    61    41    42    1
    62    22    23    1
    63   101   113   am
    64   101   102    2
    65    72    71    1
    66    42    43    1
    67    24    25    2
    68    24    23    1
    69    86    88   ar
    70    70    64   am
    71    70    71    1
    72    64    65    2
    73   113   114    1
    74    59    60    1
    75    59    61    1
    76    66    67    1
    77    33    34    1
    78   122   120   ar
    79   122   123   ar
    80    23    26    1
    81   120   118   ar
    82    71    74    1
    83    34    36   am
    84    34    35    2
    85    74    75    1
    86    43    44    1
    87   124   123    1
    88   123   121   ar
    89    67    69   am
    90    67    68    2
    91   114   117    1
    92   114   115    1
    93   118   117    1
    94   118   119   ar
    95    26    27    1
    96    44    45    2
    97   116   115    2
    98    75    76    1
    99   115   125   am
   100   121   119   ar
   101    76    77    1
   102    45    46    1
   103    45    47    1
   104   125   126    1
   105    21    20    1
   106   141   139   ar
   107   126   127    1
   108   126   129    1
   109   140   139   ar
   110   158   159    2
   111   158   157    1
   112    20    17    1
   113   139   138    1
   114   127   128    2
   115   157   156    1
   116   157   160    1
   117   129   130    1
   118   137   138    1
   119   137   134    1
   120    17    18    1
   121    17    16    1
   122   162   164   ar
   123   162   161   ar
   124    19    18    2
   125   160   161    1
   126   130   131    1
   127   135   134    1
   128   135   136    2
   129   164   166   ar
   130   161   163   ar
   131   134   133    1
   132   131   132    1
   133   166   167    1
   134   166   165   ar
   135   163   165   ar
   136   154   152   ar
   137   154   155   ar
   138   152   149   ar
   139   155   153   ar
   140    15    13    1
   141    14    13    1
   142   149   151   ar
   143   149   147   ar
   144   153   151   ar
   145    13    12    1
   146   145   144    2
   147   151   150   ar
   148   146   147    1
   149   146   143    1
   150    12     9    1
   151   147   148   ar
   152   144   143    1
   153     6     5    1
   154     4     3    2
   155     9     8    1
   156     9    10    1
   157   143   142    1
   158   150   148   ar
   159     3     8   am
   160     3     2    1
   161    10    11    2
   162     5     2    1
   163     5     7    1
   164     2     1    1
