@<TRIPOS>MOLECULE
tmp/3nllA00.pdb
 135 135 0 0 0
SMALL
GASTEIGER

@<TRIPOS>ATOM
      1  N         26.6610   28.1100   11.9290 N.3     6  TRP6       -0.1227
      2  CA        27.5220   27.4220   10.9650 C.3     6  TRP6        0.1737
      3  C         26.7680   26.1200   10.7090 C.2     6  TRP6        0.2596
      4  O         26.2320   25.5280   11.6630 O.2     6  TRP6       -0.2718
      5  CB        28.9080   27.0810   11.5300 C.3     6  TRP6        0.0564
      6  CG        29.7600   26.3940   10.4760 C.ar    6  TRP6        0.0003
      7  CD1       30.4750   27.0040    9.4860 C.ar    6  TRP6        0.0946
      8  CD2       29.8310   24.9760   10.1990 C.ar    6  TRP6        0.0152
      9  NE1       30.9590   26.0680    8.5970 N.ar    6  TRP6       -0.2442
     10  CE2       30.5820   24.8180    9.0090 C.ar    6  TRP6        0.0810
     11  CE3       29.3250   23.8270   10.8360 C.ar    6  TRP6        0.0012
     12  CZ2       30.8390   23.5550    8.4390 C.ar    6  TRP6        0.0191
     13  CZ3       29.5830   22.5640   10.2630 C.ar    6  TRP6        0.0001
     14  CH2       30.3310   22.4460    9.0810 C.ar    6  TRP6        0.0015
     15  N         26.6820   25.6890    9.4490 N.am    7  SER7       -0.1938
     16  CA        26.0070   24.4390    9.1280 C.3     7  SER7        0.2055
     17  C         26.6950   23.7490    7.9550 C.2     7  SER7        0.2644
     18  O         26.9190   24.3600    6.9110 O.2     7  SER7       -0.2714
     19  CB        24.5360   24.6970    8.8320 C.3     7  SER7        0.2130
     20  OG        23.8270   23.4890    8.5860 O.3     7  SER7       -0.2179
     21  N         27.0430   22.4800    8.1290 N.am    8  GLY8       -0.1939
     22  CA        27.7240   21.7510    7.0770 C.3     8  GLY8        0.2014
     23  C         26.8320   21.0490    6.0710 C.2     8  GLY8        0.2639
     24  O         27.2500   20.8130    4.9340 O.2     8  GLY8       -0.2714
     25  N         25.6370   20.6470    6.4940 N.am    9  THR9       -0.1950
     26  CA        24.7100   19.9720    5.5920 C.3     9  THR9        0.1897
     27  C         23.3460   20.6780    5.5720 C.2     9  THR9        0.2313
     28  O         22.4490   20.2930    4.8080 O.2     9  THR9       -0.2863
     29  CB        24.5280   18.4350    5.9330 C.3     9  THR9        0.1794
     30  OG1       23.6720   18.2690    7.0680 O.3     9  THR9       -0.2208
     31  CG2       25.8570   17.7600    6.2200 C.3     9  THR9        0.0378
     32  N         21.4070   21.2960    8.5270 N.3    11  ASN11      -0.1225
     33  CA        20.5410   20.9790    9.6530 C.3    11  ASN11       0.1785
     34  C         20.3780   22.1350   10.6230 C.2    11  ASN11       0.2597
     35  O         19.2450   22.4740   11.0050 O.2    11  ASN11      -0.2718
     36  CB        21.0270   19.7390   10.3860 C.3    11  ASN11       0.1169
     37  CG        20.8440   18.4850    9.5850 C.2    11  ASN11       0.2627
     38  OD1       21.4440   17.4580    9.8890 O.2    11  ASN11      -0.2716
     39  ND2       19.9990   18.5400    8.5700 N.am   11  ASN11      -0.0877
     40  N         21.5060   22.7240   11.0290 N.am   12  THR12      -0.1953
     41  CA        21.5250   23.8690   11.9370 C.3    12  THR12       0.1897
     42  C         20.9580   25.0830   11.2200 C.2    12  THR12       0.2313
     43  O         20.2780   25.9190   11.8250 O.2    12  THR12      -0.2863
     44  CB        22.9510   24.1790   12.4250 C.3    12  THR12       0.1794
     45  OG1       23.5050   23.0020   13.0180 O.3    12  THR12      -0.2208
     46  CG2       22.9400   25.2880   13.4730 C.3    12  THR12       0.0378
     47  N         26.6340   22.8980   14.6540 N.3    54  SER54      -0.1202
     48  CA        26.4980   21.4550   14.7780 C.3    54  SER54       0.2020
     49  C         27.7300   20.8590   15.4670 C.2    54  SER54       0.2619
     50  O         28.7620   21.5410   15.6180 O.2    54  SER54      -0.2717
     51  CB        26.2860   20.8350   13.3920 C.3    54  SER54       0.2103
     52  OG        27.3370   21.1760   12.5060 O.3    54  SER54      -0.2182
     53  N         27.6100   19.6030   15.9000 N.am   55  ALA55      -0.1965
     54  CA        28.6900   18.9130   16.5920 C.3    55  ALA55       0.1728
     55  C         29.7170   18.3340   15.6300 C.2    55  ALA55       0.2616
     56  O         29.3720   17.5480   14.7550 O.2    55  ALA55      -0.2715
     57  CB        28.1200   17.8110   17.4650 C.3    55  ALA55       0.0334
     58  N         30.9670   18.7480   15.7630 N.am   56  MET56      -0.1963
     59  CA        32.0330   18.2120   14.9210 C.3    56  MET56       0.1736
     60  C         32.9400   17.3070   15.7680 C.2    56  MET56       0.2616
     61  O         32.7730   17.2180   16.9780 O.2    56  MET56      -0.2715
     62  CB        32.8200   19.3320   14.2400 C.3    56  MET56       0.0427
     63  CG        32.0360   20.0790   13.1560 C.3    56  MET56       0.0599
     64  SD        31.5090   19.0260   11.7760 S.3    56  MET56      -0.1393
     65  CE        29.7390   19.0790   11.9600 C.3    56  MET56       0.0692
     66  N         33.8780   16.6250   15.1340 N.am   57  ALA57      -0.1963
     67  CA        34.7510   15.6770   15.8260 C.3    57  ALA57       0.1728
     68  C         35.8130   16.2840   16.7320 C.2    57  ALA57       0.2616
     69  O         36.5640   17.1580   16.3110 O.2    57  ALA57      -0.2715
     70  CB        35.4110   14.7520   14.8050 C.3    57  ALA57       0.0334
     71  N         35.8420   15.8820   17.9980 N.am   58  ASP58      -0.1957
     72  CA        34.8920   14.9370   18.5700 C.3    58  ASP58       0.1840
     73  C         34.1950   15.7100   19.6470 C.2    58  ASP58       0.2621
     74  O         34.8030   16.0780   20.6530 O.2    58  ASP58      -0.2715
     75  CB        35.6070   13.7500   19.1910 C.3    58  ASP58       0.1450
     76  CG        35.8330   12.6360   18.2010 C.2    58  ASP58       0.3671
     77  OD1       34.8170   12.1080   17.6750 O.co2  58  ASP58      -0.2456
     78  OD2       37.0190   12.3030   17.9420 O.co2  58  ASP58      -0.2456
     79  N         32.9290   16.0040   19.3960 N.am   59  GLU59      -0.1977
     80  CA        32.1070   16.7790   20.3080 C.3    59  GLU59       0.1602
     81  C         32.7210   18.1580   20.5450 C.2    59  GLU59       0.2287
     82  O         32.8110   18.6150   21.6980 O.2    59  GLU59      -0.2864
     83  CB        31.8980   16.0400   21.6330 C.3    59  GLU59       0.0415
     84  CG        31.1100   14.7420   21.5150 C.3    59  GLU59       0.1163
     85  CD        29.6720   14.9080   21.0190 C.2    59  GLU59       0.3649
     86  OE1       29.1130   16.0220   21.0190 O.co2  59  GLU59      -0.2457
     87  OE2       29.0790   13.8850   20.6390 O.co2  59  GLU59      -0.2457
     88  N         22.5810   21.2140   15.9190 N.3    87  SER87      -0.1202
     89  CA        22.1510   19.8820   15.5330 C.3    87  SER87       0.2020
     90  C         23.3250   18.9380   15.7890 C.2    87  SER87       0.2619
     91  O         24.4840   19.3590   15.7630 O.2    87  SER87      -0.2717
     92  CB        21.7590   19.9020   14.0480 C.3    87  SER87       0.2103
     93  OG        21.4110   18.6200   13.5570 O.3    87  SER87      -0.2182
     94  N         23.0310   17.6790   16.0930 N.am   88  TYR88      -0.1961
     95  CA        24.0900   16.7030   16.3390 C.3    88  TYR88       0.1771
     96  C         23.6860   15.3530   15.7580 C.2    88  TYR88       0.2620
     97  O         22.5360   15.1630   15.3540 O.2    88  TYR88      -0.2715
     98  CB        24.4170   16.5930   17.8320 C.3    88  TYR88       0.0574
     99  CG        23.2950   16.0220   18.6500 C.ar   88  TYR88      -0.0198
    100  CD1       22.1310   16.7540   18.8680 C.ar   88  TYR88      -0.0009
    101  CD2       23.3750   14.7340   19.1760 C.ar   88  TYR88      -0.0009
    102  CE1       21.0710   16.2200   19.5850 C.ar   88  TYR88       0.0417
    103  CE2       22.3160   14.1830   19.8990 C.ar   88  TYR88       0.0417
    104  CZ        21.1630   14.9340   20.0960 C.ar   88  TYR88       0.1957
    105  OH        20.0880   14.3990   20.7770 O.3    88  TYR88      -0.2866
    106  N         24.6290   14.4200   15.7210 N.am   89  GLY89      -0.1940
    107  CA        24.3540   13.1260   15.1350 C.3    89  GLY89       0.2014
    108  C         24.2490   11.9720   16.1020 C.2    89  GLY89       0.2639
    109  O         23.1810   11.6810   16.6290 O.2    89  GLY89      -0.2714
    110  N         25.3800   11.3460   16.3860 N.am   90  TRP90      -0.1959
    111  CA        25.4020   10.1760   17.2500 C.3    90  TRP90       0.1771
    112  C         25.6920   10.4010   18.7340 C.2    90  TRP90       0.2620
    113  O         25.5340    9.4770   19.5250 O.2    90  TRP90      -0.2715
    114  CB        26.3880    9.1560   16.6790 C.3    90  TRP90       0.0590
    115  CG        27.7670    9.7330   16.4980 C.ar   90  TRP90       0.0006
    116  CD1       28.7370    9.8350   17.4500 C.ar   90  TRP90       0.0946
    117  CD2       28.3060   10.3340   15.3050 C.ar   90  TRP90       0.0152
    118  NE1       29.8420   10.4640   16.9280 N.ar   90  TRP90      -0.2442
    119  CE2       29.6050   10.7810   15.6150 C.ar   90  TRP90       0.0810
    120  CE3       27.8140   10.5390   14.0090 C.ar   90  TRP90       0.0012
    121  CZ2       30.4210   11.4210   14.6810 C.ar   90  TRP90       0.0191
    122  CZ3       28.6280   11.1770   13.0770 C.ar   90  TRP90       0.0001
    123  CH2       29.9170   11.6100   13.4220 C.ar   90  TRP90       0.0015
    124  N         26.1140   11.6040   19.1160 N.am   91  GLY91      -0.1954
    125  CA        26.4420   11.8580   20.5100 C.3    91  GLY91       0.1869
    126  C         25.2810   12.1230   21.4520 C.2    91  GLY91       0.2309
    127  O         24.1210   11.9210   21.0950 O.2    91  GLY91      -0.2863
    128  N         20.0810   15.4220   13.9890 N.3   119  ASN119     -0.1240
    129  CA        19.9530   15.5260   12.5380 C.3   119  ASN119      0.1653
    130  C         18.9920   16.6390   12.1070 C.2   119  ASN119      0.2266
    131  O         18.9880   17.7040   12.7330 O.2   119  ASN119     -0.2867
    132  CB        19.6210   14.1610   11.9210 C.3   119  ASN119      0.1155
    133  CG        20.5930   13.0790   12.3750 C.2   119  ASN119      0.2627
    134  OD1       21.7870   13.1170   12.0650 O.2   119  ASN119     -0.2716
    135  ND2       20.0940   12.1390   13.1640 N.am  119  ASN119     -0.0877
@<TRIPOS>BOND
     1    28    27    2
     2    24    23    2
     3    27    26    1
     4    26    29    1
     5    26    25    1
     6    29    31    1
     7    29    30    1
     8    23    25   am
     9    23    22    1
    10    18    17    2
    11    22    21    1
    12    17    21   am
    13    17    16    1
    14    12    10   ar
    15    12    14   ar
    16    32    33    1
    17    39    37   am
    18    20    19    1
    19     9    10   ar
    20     9     7   ar
    21    19    16    1
    22    10     8   ar
    23    14    13   ar
    24    16    15    1
    25    15     3   am
    26     7     6   ar
    27    37    38    2
    28    37    36    1
    29    33    36    1
    30    33    34    1
    31     8     6   ar
    32     8    11   ar
    33    13    11   ar
    34     6     5    1
    35    34    35    2
    36    34    40   am
    37     3     2    1
    38     3     4    2
    39     2     5    1
    40     2     1    1
    41    40    41    1
    42    42    43    2
    43    42    41    1
    44    64    65    1
    45    64    63    1
    46   132   133    1
    47   132   129    1
    48    41    44    1
    49   134   133    2
    50   130   129    1
    51   130   131    2
    52   133   135   am
    53    44    45    1
    54    44    46    1
    55    52    51    1
    56   129   128    1
    57   122   123   ar
    58   122   120   ar
    59    63    62    1
    60    51    48    1
    61   123   121   ar
    62    93    92    1
    63   120   117   ar
    64    92    89    1
    65    62    59    1
    66    47    48    1
    67   121   119   ar
    68    56    55    2
    69    48    49    1
    70    70    67    1
    71    59    58    1
    72    59    60    1
    73    66    60   am
    74    66    67    1
    75   107   106    1
    76   107   108    1
    77   117   119   ar
    78   117   115   ar
    79    97    96    2
    80    49    50    2
    81    49    53   am
    82    89    90    1
    83    89    88    1
    84   119   118   ar
    85    55    58   am
    86    55    54    1
    87   106    96   am
    88    96    95    1
    89    91    90    2
    90    60    61    2
    91    90    94   am
    92    67    68    1
    93    53    54    1
    94    94    95    1
    95   108   110   am
    96   108   109    2
    97    69    68    2
    98    95    98    1
    99   110   111    1
   100   115   114    1
   101   115   116   ar
   102    54    57    1
   103   114   111    1
   104    68    71   am
   105   118   116   ar
   106   111   112    1
   107    77    76   ar
   108    98    99    1
   109    78    76   ar
   110    71    72    1
   111    76    75    1
   112    72    75    1
   113    72    73    1
   114    99   100   ar
   115    99   101   ar
   116   112   124   am
   117   112   113    2
   118   100   102   ar
   119   124   125    1
   120   101   103   ar
   121    79    73   am
   122    79    80    1
   123   102   104   ar
   124    73    74    2
   125   103   104   ar
   126   104   105    1
   127    80    81    1
   128    80    83    1
   129   125   126    1
   130    81    82    2
   131    87    85   ar
   132    85    86   ar
   133    85    84    1
   134   127   126    2
   135    84    83    1
