@<TRIPOS>MOLECULE
tmp/3nltB03.pdb
 175 171 0 0 0
SMALL
GASTEIGER

@<TRIPOS>ATOM
      1  N          6.2940   -2.0890   55.7840 N.3    38  VAL38      -0.1231
      2  CA         5.7910   -1.6830   57.0630 C.3    38  VAL38       0.1692
      3  C          6.4460   -2.4750   58.1910 C.2    38  VAL38       0.2591
      4  O          6.6520   -1.9540   59.2660 O.2    38  VAL38      -0.2718
      5  CB         4.2520   -1.8820   57.0950 C.3    38  VAL38       0.0266
      6  CG1        3.6620   -1.2710   58.3260 C.3    38  VAL38       0.0020
      7  CG2        3.5960   -1.2750   55.8590 C.3    38  VAL38       0.0020
      8  N          6.7540   -3.7440   57.9500 N.am   39  LEU39      -0.1980
      9  CA         7.4360   -4.5890   58.9440 C.3    39  LEU39       0.1596
     10  C          8.4320   -5.6100   58.3560 C.2    39  LEU39       0.2287
     11  O          8.4470   -5.8450   57.1370 O.2    39  LEU39      -0.2864
     12  CB         6.4350   -5.2830   59.8820 C.3    39  LEU39       0.0297
     13  CG         4.9770   -5.4990   59.4830 C.3    39  LEU39       0.0022
     14  CD1        4.8300   -6.4230   58.2530 C.3    39  LEU39       0.0001
     15  CD2        4.1870   -6.0290   60.6520 C.3    39  LEU39       0.0001
     16  N          8.1330    9.0000   63.2230 N.3   107  CYS107     -0.1235
     17  CA         7.3550    9.9760   63.9960 C.3   107  CYS107      0.1677
     18  C          7.6750   11.3850   63.5600 C.2   107  CYS107      0.2270
     19  O          8.8270   11.7930   63.6220 O.2   107  CYS107     -0.2867
     20  CB         7.6180    9.8520   65.5040 C.3   107  CYS107      0.0956
     21  SG         6.5920   10.9250   66.5240 S.3   107  CYS107     -0.0801
     22  N         -4.4930   -2.4310   70.4110 N.3   169  SER169     -0.1202
     23  CA        -3.4510   -1.7290   69.6590 C.3   169  SER169      0.2020
     24  C         -3.3710   -0.2420   70.0530 C.2   169  SER169      0.2618
     25  O         -2.2940    0.3610   70.0260 O.2   169  SER169     -0.2717
     26  CB        -3.6420   -1.9020   68.1610 C.3   169  SER169      0.2103
     27  OG        -4.2620   -0.7620   67.6250 O.3   169  SER169     -0.2182
     28  N         -4.5060    0.3320   70.4360 N.am  170  GLN170     -0.1979
     29  CA        -4.5530    1.6810   71.0040 C.3   170  GLN170      0.1601
     30  C         -5.4400    1.6990   72.2300 C.2   170  GLN170      0.2287
     31  O         -6.4860    1.0150   72.2500 O.2   170  GLN170     -0.2864
     32  CB        -5.1020    2.6650   69.9960 C.3   170  GLN170      0.0394
     33  CG        -4.0550    3.4110   69.2300 C.3   170  GLN170      0.0908
     34  CD        -4.6500    4.2590   68.1070 C.2   170  GLN170      0.2608
     35  OE1       -5.2340    5.3430   68.3400 O.2   170  GLN170     -0.2717
     36  NE2       -4.4970    3.7660   66.8720 N.am  170  GLN170     -0.0878
     37  N        -10.0450    2.9410   70.9270 N.3   173  ARG173     -0.1245
     38  CA       -10.2750    2.2980   69.6350 C.3   173  ARG173      0.1563
     39  C        -11.7570    2.0600   69.4410 C.2   173  ARG173      0.2260
     40  O        -12.4630    1.7160   70.4090 O.2   173  ARG173     -0.2867
     41  CB        -9.6060    0.9290   69.5960 C.3   173  ARG173      0.0307
     42  CG        -8.0970    0.9110   69.5470 C.3   173  ARG173      0.0489
     43  CD        -7.5940    0.6880   68.1340 C.3   173  ARG173      0.2205
     44  NE        -7.6120    1.9310   67.3740 N.pl3 173  ARG173     -0.0865
     45  CZ        -7.4340    2.0250   66.0550 C.cat 173  ARG173      0.5346
     46  NH1       -7.2320    0.9350   65.3150 N.pl3 173  ARG173      0.1354
     47  NH2       -7.4670    3.2330   65.4750 N.pl3 173  ARG173      0.1354
     48  N         -4.4150    9.7710   70.9740 N.3   257  PRO257     -0.2116
     49  CA        -3.7620    8.7160   70.2300 C.3   257  PRO257      0.1372
     50  C         -2.6980    8.0830   71.1160 C.2   257  PRO257      0.2244
     51  O         -1.6620    8.7000   71.3870 O.2   257  PRO257     -0.2868
     52  CB        -3.1440    9.4590   69.0500 C.3   257  PRO257      0.0268
     53  CG        -2.9320   10.8440   69.5130 C.3   257  PRO257      0.0207
     54  CD        -3.7720   11.0770   70.7500 C.3   257  PRO257      0.0892
     55  N         -0.6710    4.5500   71.6230 N.3   259  VAL259     -0.1245
     56  CA        -0.2630    3.2480   71.1150 C.3   259  VAL259      0.1561
     57  C          0.1530    2.4120   72.3070 C.2   259  VAL259      0.2260
     58  O          0.6920    2.9420   73.2810 O.2   259  VAL259     -0.2867
     59  CB         0.8960    3.4040   70.0770 C.3   259  VAL259      0.0252
     60  CG1        1.5760    2.0760   69.7680 C.3   259  VAL259      0.0019
     61  CG2        0.3870    4.0870   68.7880 C.3   259  VAL259      0.0019
     62  N          0.5680   -1.4040   71.8890 N.3   261  ASN261     -0.1225
     63  CA         1.0860   -2.7130   71.4590 C.3   261  ASN261      0.1785
     64  C          2.5850   -2.7520   71.0810 C.2   261  ASN261      0.2597
     65  O          3.0760   -3.7950   70.6270 O.2   261  ASN261     -0.2718
     66  CB         0.2590   -3.2660   70.2910 C.3   261  ASN261      0.1169
     67  CG         0.3690   -2.4060   69.0100 C.2   261  ASN261      0.2627
     68  OD1       -0.5230   -2.4340   68.1540 O.2   261  ASN261     -0.2716
     69  ND2        1.4740   -1.6550   68.8710 N.am  261  ASN261     -0.0877
     70  N          3.3160   -1.6460   71.2320 N.am  262  MET262     -0.1979
     71  CA         4.7090   -1.6840   70.7810 C.3   262  MET262      0.1605
     72  C          5.5590   -2.0450   71.9340 C.2   262  MET262      0.2287
     73  O          5.1840   -1.8440   73.0600 O.2   262  MET262     -0.2864
     74  CB         5.1760   -0.3750   70.1480 C.3   262  MET262      0.0413
     75  CG         4.6090   -0.1730   68.7490 C.3   262  MET262      0.0598
     76  SD         5.2240    1.2730   67.8860 S.3   262  MET262     -0.1393
     77  CE         6.4340    0.4940   66.8390 C.3   262  MET262      0.0692
     78  N          2.1530    4.7370   74.9840 N.3   276  PHE276     -0.1227
     79  CA         2.5530    6.1320   74.8650 C.3   276  PHE276      0.1736
     80  C          1.5050    6.8940   74.0990 C.2   276  PHE276      0.2596
     81  O          0.7970    6.3060   73.2870 O.2   276  PHE276     -0.2718
     82  CB         3.9040    6.2630   74.1930 C.3   276  PHE276      0.0547
     83  CG         4.0220    5.5220   72.8890 C.ar  276  PHE276     -0.0202
     84  CD1        3.7760    6.1750   71.6770 C.ar  276  PHE276     -0.0042
     85  CD2        4.4240    4.1780   72.8650 C.ar  276  PHE276     -0.0042
     86  CE1        3.9060    5.5010   70.4560 C.ar  276  PHE276     -0.0003
     87  CE2        4.5700    3.4930   71.6460 C.ar  276  PHE276     -0.0003
     88  CZ         4.3220    4.1580   70.4310 C.ar  276  PHE276     -0.0000
     89  N          1.3880    8.1880   74.3930 N.am  277  SER277     -0.1938
     90  CA         0.4160    9.0480   73.7320 C.3   277  SER277      0.2055
     91  C          0.9280   10.4810   73.5740 C.2   277  SER277      0.2644
     92  O          1.7170   10.9730   74.4040 O.2   277  SER277     -0.2714
     93  CB        -0.9290    9.0330   74.4870 C.3   277  SER277      0.2130
     94  OG        -0.8450    9.5970   75.7860 O.3   277  SER277     -0.2179
     95  N          0.4870   11.1370   72.4970 N.am  278  GLY278     -0.1939
     96  CA         0.6800   12.5800   72.3190 C.3   278  GLY278      0.2014
     97  C         -0.6000   13.2510   71.8550 C.2   278  GLY278      0.2639
     98  O         -1.5850   13.3070   72.5800 O.2   278  GLY278     -0.2714
     99  N         -0.5800   13.7700   70.6380 N.am  279  TRP279     -0.1959
    100  CA        -1.7530   14.3500   70.0550 C.3   279  TRP279      0.1771
    101  C         -1.8300   14.0800   68.5680 C.2   279  TRP279      0.2620
    102  O         -0.8310   13.7880   67.9480 O.2   279  TRP279     -0.2715
    103  CB        -1.8680   15.8500   70.3840 C.3   279  TRP279      0.0590
    104  CG        -0.7500   16.7530   69.9800 C.ar  279  TRP279      0.0006
    105  CD1       -0.5160   17.2790   68.7280 C.ar  279  TRP279      0.0946
    106  CD2        0.2360   17.3310   70.8420 C.ar  279  TRP279      0.0152
    107  NE1        0.5850   18.1110   68.7520 N.ar  279  TRP279     -0.2442
    108  CE2        1.0660   18.1680   70.0330 C.ar  279  TRP279      0.0810
    109  CE3        0.5080   17.2260   72.2180 C.ar  279  TRP279      0.0012
    110  CZ2        2.1450   18.8780   70.5520 C.ar  279  TRP279      0.0191
    111  CZ3        1.5980   17.9300   72.7330 C.ar  279  TRP279      0.0001
    112  CH2        2.3930   18.7510   71.9000 C.ar  279  TRP279      0.0015
    113  N         -3.0260   14.1680   67.9990 N.am  280  TYR280     -0.1960
    114  CA        -3.1970   13.8400   66.5970 C.3   280  TYR280      0.1771
    115  C         -2.6380   14.9010   65.6900 C.2   280  TYR280      0.2619
    116  O         -2.5900   16.0910   66.0450 O.2   280  TYR280     -0.2715
    117  CB        -4.6610   13.6490   66.2480 C.3   280  TYR280      0.0574
    118  CG        -5.1020   12.2480   66.3920 C.ar  280  TYR280     -0.0198
    119  CD1       -4.6690   11.2710   65.4910 C.ar  280  TYR280     -0.0009
    120  CD2       -5.9530   11.8750   67.4210 C.ar  280  TYR280     -0.0009
    121  CE1       -5.0670    9.9450   65.6230 C.ar  280  TYR280      0.0417
    122  CE2       -6.3570   10.5630   67.5640 C.ar  280  TYR280      0.0417
    123  CZ        -5.9040    9.5980   66.6740 C.ar  280  TYR280      0.1957
    124  OH        -6.3010    8.2870   66.8200 O.3   280  TYR280     -0.2866
    125  N         -2.2120   14.4500   64.5190 N.am  281  MET281     -0.1977
    126  CA        -2.0470   15.3050   63.3710 C.3   281  MET281      0.1605
    127  C         -3.2870   15.0270   62.5220 C.2   281  MET281      0.2287
    128  O         -3.6100   13.8770   62.2120 O.2   281  MET281     -0.2864
    129  CB        -0.7380   14.9760   62.6420 C.3   281  MET281      0.0413
    130  CG        -0.4300   15.7910   61.3800 C.3   281  MET281      0.0598
    131  SD         1.1720   15.3520   60.6140 S.3   281  MET281     -0.1393
    132  CE         0.8290   13.8840   59.6590 C.3   281  MET281      0.0692
    133  N         -4.1460   11.9950   60.0660 N.3   284  GLU284     -0.1245
    134  CA        -4.3400   10.6800   60.6460 C.3   284  GLU284      0.1567
    135  C         -5.8100   10.3230   60.6730 C.2   284  GLU284      0.2260
    136  O         -6.2060    9.2070   60.3160 O.2   284  GLU284     -0.2867
    137  CB        -3.8340   10.6660   62.0650 C.3   284  GLU284      0.0388
    138  CG        -2.4210   10.1650   62.2400 C.3   284  GLU284      0.1160
    139  CD        -1.7330   10.8570   63.4160 C.2   284  GLU284      0.3649
    140  OE1       -1.3770   10.1760   64.3800 O.co2 284  GLU284     -0.2457
    141  OE2       -1.5680   12.0950   63.3940 O.co2 284  GLU284     -0.2457
    142  N         -7.9480    7.3810   58.7140 N.3   289  ASN289     -0.1240
    143  CA        -9.0780    6.8010   59.4480 C.3   289  ASN289      0.1653
    144  C        -10.4390    6.9470   58.7910 C.2   289  ASN289      0.2266
    145  O        -11.2800    6.0770   58.8920 O.2   289  ASN289     -0.2867
    146  CB        -9.1210    7.3790   60.8670 C.3   289  ASN289      0.1155
    147  CG        -7.8800    7.0200   61.6800 C.2   289  ASN289      0.2627
    148  OD1       -7.1640    6.0920   61.3440 O.2   289  ASN289     -0.2716
    149  ND2       -7.6240    7.7560   62.7390 N.am  289  ASN289     -0.0877
    150  N          6.8730    7.6920   55.5850 N.3   370  TRP370     -0.1241
    151  CA         5.9940    7.8480   56.7400 C.3   370  TRP370      0.1605
    152  C          5.9500    9.2690   57.2270 C.2   370  TRP370      0.2264
    153  O          4.9750    9.6950   57.7760 O.2   370  TRP370     -0.2867
    154  CB         6.4100    6.9360   57.8890 C.3   370  TRP370      0.0550
    155  CG         5.9030    5.5490   57.7590 C.ar  370  TRP370      0.0003
    156  CD1        6.2070    4.6700   56.7750 C.ar  370  TRP370      0.0946
    157  CD2        5.0200    4.8610   58.6610 C.ar  370  TRP370      0.0152
    158  NE1        5.5530    3.4760   56.9890 N.ar  370  TRP370     -0.2442
    159  CE2        4.8230    3.5620   58.1420 C.ar  370  TRP370      0.0810
    160  CE3        4.3860    5.2140   59.8700 C.ar  370  TRP370      0.0012
    161  CZ2        4.0040    2.6090   58.7660 C.ar  370  TRP370      0.0191
    162  CZ3        3.5440    4.2630   60.5020 C.ar  370  TRP370      0.0001
    163  CH2        3.3700    2.9750   59.9400 C.ar  370  TRP370      0.0015
    164  N          8.0240   -3.2000   66.8380 N.3   398  TYR398     -0.1241
    165  CA         6.8760   -4.0520   66.7100 C.3   398  TYR398      0.1605
    166  C          7.1560   -5.3540   67.4360 C.2   398  TYR398      0.2264
    167  O          8.2940   -5.8370   67.4480 O.2   398  TYR398     -0.2867
    168  CB         6.6450   -4.3240   65.2380 C.3   398  TYR398      0.0534
    169  CG         6.2530   -3.0880   64.4810 C.ar  398  TYR398     -0.0201
    170  CD1        5.0570   -2.3980   64.7840 C.ar  398  TYR398     -0.0009
    171  CD2        7.0550   -2.6020   63.4620 C.ar  398  TYR398     -0.0009
    172  CE1        4.6810   -1.2580   64.0890 C.ar  398  TYR398      0.0417
    173  CE2        6.6850   -1.4640   62.7470 C.ar  398  TYR398      0.0417
    174  CZ         5.5060   -0.7990   63.0680 C.ar  398  TYR398      0.1957
    175  OH         5.1540    0.3050   62.3370 O.3   398  TYR398     -0.2866
@<TRIPOS>BOND
     1   150   151    1
     2     1     2    1
     3     7     5    1
     4   151   152    1
     5   151   154    1
     6   156   158   ar
     7   156   155   ar
     8   158   159   ar
     9     2     5    1
    10     2     3    1
    11     5     6    1
    12    11    10    2
    13   152   153    2
    14   155   154    1
    15   155   157   ar
    16     8     3   am
    17     8     9    1
    18   159   157   ar
    19   159   161   ar
    20     3     4    2
    21    14    13    1
    22    10     9    1
    23   157   160   ar
    24   142   143    1
    25   161   163   ar
    26   144   145    2
    27   144   143    1
    28     9    12    1
    29   143   146    1
    30    13    12    1
    31    13    15    1
    32   132   131    1
    33   160   162   ar
    34   163   162   ar
    35   133   134    1
    36   136   135    2
    37   131   130    1
    38   134   135    1
    39   134   137    1
    40   146   147    1
    41   148   147    2
    42   130   129    1
    43   147   149   am
    44   137   138    1
    45   128   127    2
    46   138   139    1
    47   175   174    1
    48   127   126    1
    49   129   126    1
    50   173   174   ar
    51   173   171   ar
    52   174   172   ar
    53    16    17    1
    54   126   125    1
    55   141   139   ar
    56   139   140   ar
    57   171   169   ar
    58    18    19    2
    59    18    17    1
    60    17    20    1
    61   172   170   ar
    62   169   170   ar
    63   169   168    1
    64   125   115   am
    65   168   165    1
    66    46    45    1
    67    47    45    1
    68   119   121   ar
    69   119   118   ar
    70    20    21    1
    71   121   123   ar
    72   115   116    2
    73   115   114    1
    74    45    44    2
    75   117   118    1
    76   117   114    1
    77   118   120   ar
    78   114   113    1
    79   123   124    1
    80   123   122   ar
    81   165   164    1
    82   165   166    1
    83    77    76    1
    84    36    34   am
    85    44    43    1
    86   120   122   ar
    87   166   167    2
    88    27    26    1
    89    76    75    1
    90   102   101    2
    91   113   101   am
    92    34    35    2
    93    34    33    1
    94    43    42    1
    95    68    67    2
    96    26    23    1
    97   101   100    1
    98   105   107   ar
    99   105   104   ar
   100    75    74    1
   101   107   108   ar
   102    61    59    1
   103    69    67   am
   104    67    66    1
   105    52    53    1
   106    52    49    1
   107    33    32    1
   108    39    38    1
   109    39    40    2
   110    53    54    1
   111    42    41    1
   112    41    38    1
   113    38    37    1
   114    23    24    1
   115    23    22    1
   116    60    59    1
   117   104   103    1
   118   104   106   ar
   119    32    29    1
   120    25    24    2
   121   108   110   ar
   122   108   106   ar
   123    24    28   am
   124   100   103    1
   125   100    99    1
   126    59    56    1
   127    74    71    1
   128    49    48    1
   129    49    50    1
   130    66    63    1
   131    88    86   ar
   132    88    87   ar
   133    28    29    1
   134    86    84   ar
   135   110   112   ar
   136    65    64    2
   137    99    97   am
   138    54    48    1
   139    71    70    1
   140    71    72    1
   141   106   109   ar
   142    29    30    1
   143    64    70   am
   144    64    63    1
   145    56    55    1
   146    56    57    1
   147    50    51    2
   148    63    62    1
   149    87    85   ar
   150    84    83   ar
   151    97    96    1
   152    97    98    2
   153   112   111   ar
   154    72    73    2
   155   109   111   ar
   156    30    31    2
   157    57    58    2
   158    96    95    1
   159    95    91   am
   160    85    83   ar
   161    83    82    1
   162    81    80    2
   163    91    90    1
   164    91    92    2
   165    90    89    1
   166    90    93    1
   167    80    89   am
   168    80    79    1
   169    82    79    1
   170    93    94    1
   171    79    78    1
