@<TRIPOS>MOLECULE
tmp/3nlyA02.pdb
 201 196 0 0 0
SMALL
GASTEIGER

@<TRIPOS>ATOM
      1  N          2.8540    9.0510   34.5470 N.3    38  MET38      -0.1230
      2  CA         3.2510    8.7390   33.1840 C.3    38  MET38       0.1702
      3  C          3.0740    9.9190   32.2280 C.2    38  MET38       0.2592
      4  O          3.9630   10.1610   31.4270 O.2    38  MET38      -0.2718
      5  CB         2.5400    7.4890   32.6690 C.3    38  MET38       0.0401
      6  CG         3.0480    6.2560   33.3750 C.3    38  MET38       0.0596
      7  SD         2.9330    4.7450   32.4310 S.3    38  MET38      -0.1393
      8  CE         4.1450    5.0440   31.1530 C.3    38  MET38       0.0692
      9  N          1.9540   10.6480   32.3430 N.am   39  LEU39      -0.1980
     10  CA         1.6850   11.8370   31.5240 C.3    39  LEU39       0.1596
     11  C          1.3920   13.1020   32.3680 C.2    39  LEU39       0.2287
     12  O          0.2300   13.4310   32.6110 O.2    39  LEU39      -0.2864
     13  CB         0.5230   11.5470   30.5640 C.3    39  LEU39       0.0297
     14  CG         0.7520   10.2850   29.7220 C.3    39  LEU39       0.0022
     15  CD1       -0.5510    9.7500   29.1830 C.3    39  LEU39       0.0001
     16  CD2        1.8030   10.5070   28.5950 C.3    39  LEU39       0.0001
     17  N         14.3240    9.8140   29.8720 N.3   105  ARG105     -0.1231
     18  CA        13.8120    8.5050   30.2190 C.3   105  ARG105      0.1694
     19  C         14.5940    7.3400   29.6330 C.2   105  ARG105      0.2592
     20  O         14.2180    6.1810   29.9240 O.2   105  ARG105     -0.2718
     21  CB        12.3250    8.3860   29.8900 C.3   105  ARG105      0.0321
     22  CG        11.4410    9.0600   30.9020 C.3   105  ARG105      0.0489
     23  CD        10.0260    9.1030   30.4380 C.3   105  ARG105      0.2205
     24  NE         9.1170    9.5260   31.4780 N.pl3 105  ARG105     -0.0865
     25  CZ         7.8600    9.8570   31.2210 C.cat 105  ARG105      0.5346
     26  NH1        7.4420    9.8140   29.9680 N.pl3 105  ARG105      0.1354
     27  NH2        7.0400   10.2310   32.1890 N.pl3 105  ARG105      0.1354
     28  N         15.6360    7.6270   28.8210 N.am  106  CYS106     -0.1970
     29  CA        16.3460    6.6310   28.0120 C.3   106  CYS106      0.1712
     30  C         17.6910    6.2580   28.5980 C.2   106  CYS106      0.2296
     31  O         18.6090    7.1080   28.6900 O.2   106  CYS106     -0.2864
     32  CB        16.6100    7.1590   26.5750 C.3   106  CYS106      0.0983
     33  SG        17.4750    5.9570   25.4710 S.3   106  CYS106     -0.0798
     34  N          2.0480    1.8100   17.7440 N.3   168  SER168     -0.1202
     35  CA         2.8720    2.3860   18.7740 C.3   168  SER168      0.2020
     36  C          4.3310    1.9340   18.6180 C.2   168  SER168      0.2618
     37  O          5.2190    2.6730   18.9320 O.2   168  SER168     -0.2717
     38  CB         2.3010    2.1110   20.1860 C.3   168  SER168      0.2103
     39  OG         2.2060    0.7240   20.4260 O.3   168  SER168     -0.2182
     40  N          4.5570    0.7250   18.1080 N.am  169  GLN169     -0.1979
     41  CA         5.8990    0.3140   17.6240 C.3   169  GLN169      0.1601
     42  C          5.7300   -0.2460   16.1890 C.2   169  GLN169      0.2287
     43  O          4.6690   -0.7760   15.8520 O.2   169  GLN169     -0.2864
     44  CB         6.4930   -0.7680   18.5140 C.3   169  GLN169      0.0394
     45  CG         6.7100   -0.4090   19.9980 C.3   169  GLN169      0.0908
     46  CD         7.3270   -1.5690   20.7820 C.2   169  GLN169      0.2608
     47  OE1        8.0950   -2.3860   20.2250 O.2   169  GLN169     -0.2717
     48  NE2        7.0050   -1.6510   22.0790 N.am  169  GLN169     -0.0878
     49  N          4.7940   -5.2120   16.5140 N.3   172  ARG172     -0.1245
     50  CA         4.1640   -5.6600   17.7890 C.3   172  ARG172      0.1563
     51  C          3.2140   -6.8490   17.4640 C.2   172  ARG172      0.2260
     52  O          2.7840   -6.9970   16.3270 O.2   172  ARG172     -0.2867
     53  CB         3.3300   -4.5570   18.4650 C.3   172  ARG172      0.0307
     54  CG         4.0950   -3.3970   19.0890 C.3   172  ARG172      0.0489
     55  CD         3.2500   -2.6480   20.1510 C.3   172  ARG172      0.2205
     56  NE         3.2180   -3.3470   21.4330 N.pl3 172  ARG172     -0.0865
     57  CZ         2.7060   -2.8470   22.5670 C.cat 172  ARG172      0.5346
     58  NH1        2.1790   -1.6240   22.6160 N.pl3 172  ARG172      0.1354
     59  NH2        2.7200   -3.5770   23.6770 N.pl3 172  ARG172      0.1354
     60  N         13.2400   -3.2500   18.4670 N.3   256  PRO256     -0.2116
     61  CA        12.3550   -2.3310   19.1680 C.3   256  PRO256      0.1372
     62  C         12.3530   -0.9900   18.4090 C.2   256  PRO256      0.2244
     63  O         13.4190   -0.3880   18.2240 O.2   256  PRO256     -0.2868
     64  CB        13.0100   -2.1930   20.5640 C.3   256  PRO256      0.0268
     65  CG        14.4900   -2.4530   20.3450 C.3   256  PRO256      0.0207
     66  CD        14.6070   -3.2550   19.0180 C.3   256  PRO256      0.0892
     67  N         10.1000    2.5570   18.1670 N.3   258  VAL258     -0.1245
     68  CA         9.0170    3.3390   18.6850 C.3   258  VAL258      0.1561
     69  C          8.5490    4.2440   17.6080 C.2   258  VAL258      0.2260
     70  O          9.3540    4.9480   16.9920 O.2   258  VAL258     -0.2867
     71  CB         9.4070    4.1280   19.9500 C.3   258  VAL258      0.0252
     72  CG1        8.2710    5.1460   20.3520 C.3   258  VAL258      0.0019
     73  CG2        9.7080    3.1410   21.0930 C.3   258  VAL258      0.0019
     74  N          5.1270    5.9510   17.7740 N.3   260  ASN260     -0.1225
     75  CA         4.0530    6.8700   18.1370 C.3   260  ASN260      0.1785
     76  C          4.5150    8.2080   18.7090 C.2   260  ASN260      0.2597
     77  O          3.7180    8.9280   19.2570 O.2   260  ASN260     -0.2718
     78  CB         3.0190    6.2190   19.0850 C.3   260  ASN260      0.1169
     79  CG         3.6370    5.6810   20.4050 C.2   260  ASN260      0.2627
     80  OD1        2.9120    5.1030   21.2130 O.2   260  ASN260     -0.2716
     81  ND2        4.9660    5.8110   20.5940 N.am  260  ASN260     -0.0877
     82  N          5.7880    8.5640   18.5830 N.am  261  MET261     -0.1979
     83  CA         6.1930    9.8000   19.2240 C.3   261  MET261      0.1605
     84  C          6.3480   11.0090   18.2960 C.2   261  MET261      0.2287
     85  O          6.3290   10.8840   17.0520 O.2   261  MET261     -0.2864
     86  CB         7.3840    9.5420   20.1230 C.3   261  MET261      0.0413
     87  CG         6.9260    8.8070   21.4020 C.3   261  MET261      0.0598
     88  SD         8.3070    8.5820   22.5000 S.3   261  MET261     -0.1393
     89  CE         8.1760    9.9750   23.6370 C.3   261  MET261      0.0692
     90  N         11.5420    5.5270   15.3710 N.3   275  PHE275     -0.1227
     91  CA        12.9600    5.2670   15.6520 C.3   275  PHE275      0.1736
     92  C         13.1870    3.9190   16.3300 C.2   275  PHE275      0.2596
     93  O         12.2850    3.3960   16.9560 O.2   275  PHE275     -0.2718
     94  CB        13.5620    6.3680   16.5300 C.3   275  PHE275      0.0547
     95  CG        12.8940    6.5410   17.8960 C.ar  275  PHE275     -0.0202
     96  CD1       13.3300    5.8290   19.0080 C.ar  275  PHE275     -0.0042
     97  CD2       11.8480    7.4650   18.0740 C.ar  275  PHE275     -0.0042
     98  CE1       12.7360    6.0360   20.2650 C.ar  275  PHE275     -0.0003
     99  CE2       11.2860    7.6790   19.3190 C.ar  275  PHE275     -0.0003
    100  CZ        11.7220    6.9970   20.4140 C.ar  275  PHE275     -0.0000
    101  N         14.4270    3.4310   16.2790 N.am  276  SER276     -0.1938
    102  CA        14.7720    2.1110   16.7680 C.3   276  SER276      0.2055
    103  C         16.2280    2.0080   17.2250 C.2   276  SER276      0.2644
    104  O         17.0690    2.7530   16.7670 O.2   276  SER276     -0.2714
    105  CB        14.4700    1.0200   15.7170 C.3   276  SER276      0.2130
    106  OG        15.2490    1.1260   14.5180 O.3   276  SER276     -0.2179
    107  N         16.5120    1.0980   18.1650 N.am  277  GLY277     -0.1939
    108  CA        17.9010    0.8010   18.5520 C.3   277  GLY277      0.2014
    109  C         17.9980   -0.7060   18.7560 C.2   277  GLY277      0.2639
    110  O         17.9390   -1.4640   17.8090 O.2   277  GLY277     -0.2714
    111  N         18.1230   -1.1310   20.0050 N.am  278  TRP278     -0.1959
    112  CA        18.1040   -2.5460   20.3580 C.3   278  TRP278      0.1771
    113  C         17.6880   -2.6570   21.8220 C.2   278  TRP278      0.2619
    114  O         17.7660   -1.6900   22.5620 O.2   278  TRP278     -0.2715
    115  CB        19.4790   -3.1640   20.1470 C.3   278  TRP278      0.0590
    116  CG        20.5800   -2.5080   20.9280 C.ar  278  TRP278      0.0006
    117  CD1       20.8350   -2.6490   22.2880 C.ar  278  TRP278      0.0946
    118  CD2       21.5870   -1.6290   20.4250 C.ar  278  TRP278      0.0152
    119  NE1       21.9350   -1.9090   22.6390 N.ar  278  TRP278     -0.2442
    120  CE2       22.4220   -1.2770   21.5200 C.ar  278  TRP278      0.0810
    121  CE3       21.8780   -1.1060   19.1540 C.ar  278  TRP278      0.0012
    122  CZ2       23.5150   -0.4270   21.3740 C.ar  278  TRP278      0.0191
    123  CZ3       22.9610   -0.2540   19.0160 C.ar  278  TRP278      0.0001
    124  CH2       23.7670    0.0660   20.1040 C.ar  278  TRP278      0.0015
    125  N         17.2660   -3.8570   22.2150 N.am  279  TYR279     -0.1974
    126  CA        16.5290   -4.0840   23.4340 C.3   279  TYR279      0.1639
    127  C         17.4450   -4.2180   24.6290 C.2   279  TYR279      0.2290
    128  O         18.5860   -4.6860   24.5300 O.2   279  TYR279     -0.2864
    129  CB        15.7620   -5.3910   23.3080 C.3   279  TYR279      0.0560
    130  CG        14.3100   -5.2840   22.9400 C.ar  279  TYR279     -0.0198
    131  CD1       13.8110   -5.9410   21.8110 C.ar  279  TYR279     -0.0009
    132  CD2       13.4200   -4.5770   23.7300 C.ar  279  TYR279     -0.0009
    133  CE1       12.4540   -5.8770   21.4840 C.ar  279  TYR279      0.0417
    134  CE2       12.0580   -4.5240   23.4250 C.ar  279  TYR279      0.0417
    135  CZ        11.5870   -5.1700   22.2900 C.ar  279  TYR279      0.1957
    136  OH        10.2360   -5.1040   21.9860 O.3   279  TYR279     -0.2866
    137  N         13.0600   -5.5100   29.1590 N.3   283  GLU283     -0.1245
    138  CA        11.8920   -4.9710   28.4910 C.3   283  GLU283      0.1567
    139  C         10.9980   -6.1150   28.0380 C.2   283  GLU283      0.2260
    140  O          9.7910   -6.0760   28.2330 O.2   283  GLU283     -0.2867
    141  CB        12.2590   -4.0980   27.2940 C.3   283  GLU283      0.0388
    142  CG        13.1340   -2.8550   27.6080 C.3   283  GLU283      0.1160
    143  CD        13.5380   -2.0690   26.3250 C.2   283  GLU283      0.3649
    144  OE1       12.6840   -1.3020   25.8290 O.co2 283  GLU283     -0.2457
    145  OE2       14.6980   -2.2000   25.8220 O.co2 283  GLU283     -0.2457
    146  N          8.7990   -7.0800   31.5040 N.3   287  ARG287     -0.1231
    147  CA         7.5910   -6.3010   31.2270 C.3   287  ARG287      0.1694
    148  C          6.6450   -7.0350   30.2560 C.2   287  ARG287      0.2592
    149  O          5.4790   -7.2460   30.5800 O.2   287  ARG287     -0.2718
    150  CB         7.9350   -4.8900   30.6770 C.3   287  ARG287      0.0321
    151  CG         8.7780   -3.9650   31.6310 C.3   287  ARG287      0.0489
    152  CD         8.1610   -3.7060   33.0730 C.3   287  ARG287      0.2205
    153  NE         6.7430   -3.3420   33.0250 N.pl3 287  ARG287     -0.0865
    154  CZ         6.2810   -2.1190   32.7430 C.cat 287  ARG287      0.5346
    155  NH1        7.1340   -1.1090   32.5210 N.pl3 287  ARG287      0.1354
    156  NH2        4.9620   -1.9130   32.6880 N.pl3 287  ARG287      0.1354
    157  N          7.1680   -7.3840   29.0670 N.am  288  ASP288     -0.1974
    158  CA         6.3890   -8.0110   28.0070 C.3   288  ASP288      0.1709
    159  C          5.8980   -9.3730   28.4590 C.2   288  ASP288      0.2293
    160  O          4.7150   -9.6920   28.3160 O.2   288  ASP288     -0.2864
    161  CB         7.1810   -8.0520   26.6550 C.3   288  ASP288      0.1436
    162  CG         7.4960   -6.6450   26.1130 C.2   288  ASP288      0.3671
    163  OD1        6.6390   -5.7570   26.3120 O.co2 288  ASP288     -0.2456
    164  OD2        8.6000   -6.3870   25.5280 O.co2 288  ASP288     -0.2456
    165  N         -0.0080   -8.0920   30.5340 N.3   294  ARG294     -0.1245
    166  CA         0.6600   -8.4740   29.2810 C.3   294  ARG294      0.1563
    167  C          0.5830   -9.9940   29.0520 C.2   294  ARG294      0.2260
    168  O         -0.4990  -10.5610   29.2220 O.2   294  ARG294     -0.2867
    169  CB         2.0900   -7.9280   29.2230 C.3   294  ARG294      0.0307
    170  CG         2.1840   -6.3840   29.2250 C.3   294  ARG294      0.0489
    171  CD         1.5180   -5.7230   27.9980 C.3   294  ARG294      0.2205
    172  NE         2.2250   -5.9870   26.7420 N.pl3 294  ARG294     -0.0865
    173  CZ         3.4690   -5.5820   26.4660 C.cat 294  ARG294      0.5346
    174  NH1        4.1680   -4.8970   27.3600 N.pl3 294  ARG294      0.1354
    175  NH2        4.0290   -5.8740   25.2930 N.pl3 294  ARG294      0.1354
    176  N         12.2830    5.8000   35.4350 N.3   369  TRP369     -0.1241
    177  CA        12.3440    5.0720   34.1760 C.3   369  TRP369      0.1605
    178  C         13.7050    4.4360   33.9520 C.2   369  TRP369      0.2264
    179  O         13.7830    3.3880   33.3150 O.2   369  TRP369     -0.2867
    180  CB        12.0270    6.0110   33.0180 C.3   369  TRP369      0.0550
    181  CG        10.4920    6.2750   32.9020 C.ar  369  TRP369      0.0003
    182  CD1        9.6750    6.7700   33.8540 C.ar  369  TRP369      0.0946
    183  CD2        9.6750    6.0020   31.7530 C.ar  369  TRP369      0.0152
    184  NE1        8.3620    6.8480   33.3770 N.ar  369  TRP369     -0.2442
    185  CE2        8.3480    6.3960   32.0780 C.ar  369  TRP369      0.0810
    186  CE3        9.9430    5.4920   30.4830 C.ar  369  TRP369      0.0012
    187  CZ2        7.2920    6.2720   31.1810 C.ar  369  TRP369      0.0191
    188  CZ3        8.8980    5.3870   29.5660 C.ar  369  TRP369      0.0001
    189  CH2        7.5700    5.7660   29.9380 C.ar  369  TRP369      0.0015
    190  N          5.3790   12.3180   23.9320 N.3   397  TYR397     -0.1241
    191  CA         4.3880   11.2770   23.6970 C.3   397  TYR397      0.1605
    192  C          3.1940   11.9470   23.0210 C.2   397  TYR397      0.2264
    193  O          2.9980   13.1450   23.1880 O.2   397  TYR397     -0.2867
    194  CB         4.0050   10.6190   25.0370 C.3   397  TYR397      0.0534
    195  CG         2.8340    9.6360   24.9820 C.ar  397  TYR397     -0.0201
    196  CD1        3.0430    8.2610   24.7290 C.ar  397  TYR397     -0.0009
    197  CD2        1.5210   10.0810   25.1660 C.ar  397  TYR397     -0.0009
    198  CE1        1.9530    7.3480   24.6820 C.ar  397  TYR397      0.0417
    199  CE2        0.4330    9.1930   25.1190 C.ar  397  TYR397      0.0417
    200  CZ         0.6560    7.8290   24.8870 C.ar  397  TYR397      0.1957
    201  OH        -0.4200    6.9580   24.8440 O.3   397  TYR397     -0.2866
@<TRIPOS>BOND
     1   106   105    1
     2    90    91    1
     3    91    92    1
     4    91    94    1
     5   105   102    1
     6    43    42    2
     7    42    41    1
     8   101    92   am
     9   101   102    1
    10    52    51    2
    11    92    93    2
    12    49    50    1
    13    94    95    1
    14   104   103    2
    15   102   103    1
    16    70    69    2
    17    85    84    2
    18   103   107   am
    19    51    50    1
    20    69    68    1
    21    41    40    1
    22    41    44    1
    23    34    35    1
    24    74    75    1
    25    50    53    1
    26   110   109    2
    27    95    97   ar
    28    95    96   ar
    29    97    99   ar
    30    40    36   am
    31    75    76    1
    32    75    78    1
    33   107   108    1
    34    67    68    1
    35    63    62    2
    36    84    83    1
    37    62    61    1
    38    53    54    1
    39    60    66    1
    40    60    61    1
    41    44    45    1
    42   108   109    1
    43    82    76   am
    44    82    83    1
    45    36    35    1
    46    36    37    2
    47    68    71    1
    48    76    77    2
    49   109   111   am
    50    35    38    1
    51    96    98   ar
    52   123   121   ar
    53   123   124   ar
    54    66    65    1
    55    78    79    1
    56    54    55    1
    57   121   118   ar
    58    61    64    1
    59    83    86    1
    60    99   100   ar
    61    71    72    1
    62    71    73    1
    63    45    46    1
    64   111   112    1
    65   124   122   ar
    66    86    87    1
    67   115   112    1
    68   115   116    1
    69    55    56    1
    70    38    39    1
    71    47    46    2
    72    98   100   ar
    73    65    64    1
    74   112   113    1
    75    79    81   am
    76    79    80    2
    77   118   116   ar
    78   118   120   ar
    79    46    48   am
    80   116   117   ar
    81   122   120   ar
    82    87    88    1
    83    56    57    2
    84   133   131   ar
    85   133   135   ar
    86   120   119   ar
    87   131   130   ar
    88   113   125   am
    89   113   114    2
    90   136   135    1
    91   125   126    1
    92   117   119   ar
    93   135   134   ar
    94    88    89    1
    95    57    58    1
    96    57    59    1
    97   130   129    1
    98   130   132   ar
    99   192   193    2
   100   192   191    1
   101   129   126    1
   102   134   132   ar
   103   126   127    1
   104   191   190    1
   105   191   194    1
   106   128   127    2
   107   198   196   ar
   108   198   200   ar
   109   196   195   ar
   110   201   200    1
   111   200   199   ar
   112   195   194    1
   113   195   197   ar
   114   199   197   ar
   115   175   173    1
   116    33    32    1
   117   164   162   ar
   118   145   143   ar
   119   144   143   ar
   120   162   163   ar
   121   162   161    1
   122   143   142    1
   123   173   172    2
   124   173   174    1
   125    32    29    1
   126   161   158    1
   127   172   171    1
   128   141   142    1
   129   141   138    1
   130   171   170    1
   131   158   159    1
   132   158   157    1
   133    29    30    1
   134    29    28    1
   135   139   140    2
   136   139   138    1
   137   160   159    2
   138   138   137    1
   139    16    14    1
   140    30    31    2
   141    28    19   am
   142   167   168    2
   143   167   166    1
   144   157   148   am
   145    15    14    1
   146   169   170    1
   147   169   166    1
   148   166   165    1
   149   188   189   ar
   150   188   186   ar
   151    19    20    2
   152    19    18    1
   153    14    13    1
   154    17    18    1
   155    21    18    1
   156    21    22    1
   157   189   187   ar
   158    26    25    1
   159   148   149    2
   160   148   147    1
   161    23    22    1
   162    23    24    1
   163   186   183   ar
   164    13    10    1
   165   150   147    1
   166   150   151    1
   167     8     7    1
   168   187   185   ar
   169    25    24    2
   170    25    27    1
   171   147   146    1
   172     4     3    2
   173    10     9    1
   174    10    11    1
   175   151   152    1
   176   183   185   ar
   177   183   181   ar
   178   185   184   ar
   179     3     9   am
   180     3     2    1
   181    11    12    2
   182     7     6    1
   183   155   154    1
   184     5     2    1
   185     5     6    1
   186   156   154    1
   187   154   153    2
   188   181   180    1
   189   181   182   ar
   190   180   177    1
   191   153   152    1
   192     2     1    1
   193   179   178    2
   194   184   182   ar
   195   178   177    1
   196   177   176    1
