@<TRIPOS>MOLECULE
tmp/3nlzA02.pdb
 115 116 0 0 0
SMALL
GASTEIGER

@<TRIPOS>ATOM
      1  N          1.8230    2.2060   17.6620 N.3   170  SER170     -0.1202
      2  CA         2.7300    2.7140   18.7210 C.3   170  SER170      0.2020
      3  C          4.1960    2.2860   18.5110 C.2   170  SER170      0.2618
      4  O          5.1180    3.0170   18.8980 O.2   170  SER170     -0.2717
      5  CB         2.2410    2.3120   20.1190 C.3   170  SER170      0.2103
      6  OG         2.0580    0.9090   20.2140 O.3   170  SER170     -0.2182
      7  N          4.3990    1.1000   17.9300 N.am  171  GLN171     -0.1979
      8  CA         5.7360    0.6420   17.4720 C.3   171  GLN171      0.1601
      9  C          5.5570    0.0650   16.0650 C.2   171  GLN171      0.2287
     10  O          4.4640   -0.4050   15.7400 O.2   171  GLN171     -0.2864
     11  CB         6.2930   -0.4790   18.3500 C.3   171  GLN171      0.0394
     12  CG         6.6370   -0.0890   19.7920 C.3   171  GLN171      0.0908
     13  CD         7.0100   -1.2990   20.6380 C.2   171  GLN171      0.2608
     14  OE1        7.9070   -2.0810   20.2780 O.2   171  GLN171     -0.2717
     15  NE2        6.3280   -1.4580   21.7740 N.am  171  GLN171     -0.0878
     16  N          4.6910   -4.9480   16.3440 N.3   174  ARG174     -0.1245
     17  CA         3.9760   -5.3790   17.5820 C.3   174  ARG174      0.1563
     18  C          2.9930   -6.4900   17.2290 C.2   174  ARG174      0.2260
     19  O          2.6140   -6.6300   16.0770 O.2   174  ARG174     -0.2867
     20  CB         3.1720   -4.2390   18.2050 C.3   174  ARG174      0.0307
     21  CG         3.9930   -3.1450   18.8430 C.3   174  ARG174      0.0489
     22  CD         3.1890   -2.3220   19.8490 C.3   174  ARG174      0.2205
     23  NE         3.0700   -2.9980   21.1310 N.pl3 174  ARG174     -0.0865
     24  CZ         2.4840   -2.4750   22.2090 C.cat 174  ARG174      0.5346
     25  NH1        1.9750   -1.2420   22.1840 N.pl3 174  ARG174      0.1354
     26  NH2        2.4100   -3.1940   23.3220 N.pl3 174  ARG174      0.1354
     27  N         13.0500   -3.1560   18.3120 N.3   258  PRO258     -0.2102
     28  CA        12.1150   -2.2640   18.9950 C.3   258  PRO258      0.1504
     29  C         12.1130   -0.8900   18.3150 C.2   258  PRO258      0.2576
     30  O         13.1600   -0.2730   18.1580 O.2   258  PRO258     -0.2718
     31  CB        12.6830   -2.1910   20.4180 C.3   258  PRO258      0.0282
     32  CG        14.2080   -2.2880   20.2060 C.3   258  PRO258      0.0208
     33  CD        14.3850   -3.1850   18.9540 C.3   258  PRO258      0.0893
     34  N         10.9480   -0.4210   17.8950 N.am  259  ALA259     -0.1966
     35  CA        10.9080    0.7680   17.0670 C.3   259  ALA259      0.1728
     36  C          9.7200    1.6040   17.4060 C.2   259  ALA259      0.2616
     37  O          8.6030    1.3060   16.9500 O.2   259  ALA259     -0.2715
     38  CB        10.8620    0.3700   15.6020 C.3   259  ALA259      0.0334
     39  N          9.9510    2.6650   18.1750 N.am  260  VAL260     -0.1977
     40  CA         8.8780    3.5170   18.6380 C.3   260  VAL260      0.1596
     41  C          8.3880    4.4020   17.5200 C.2   260  VAL260      0.2287
     42  O          9.1680    5.1530   16.9610 O.2   260  VAL260     -0.2864
     43  CB         9.3470    4.3960   19.8420 C.3   260  VAL260      0.0276
     44  CG1        8.2990    5.4720   20.1810 C.3   260  VAL260      0.0022
     45  CG2        9.5970    3.4820   21.0730 C.3   260  VAL260      0.0022
     46  N         11.6780    5.6790   15.2860 N.3   277  PHE277     -0.1227
     47  CA        13.0890    5.4350   15.6070 C.3   277  PHE277      0.1736
     48  C         13.2680    4.0680   16.2510 C.2   277  PHE277      0.2596
     49  O         12.3430    3.5220   16.8200 O.2   277  PHE277     -0.2718
     50  CB        13.6240    6.5370   16.5070 C.3   277  PHE277      0.0547
     51  CG        12.9150    6.6490   17.8510 C.ar  277  PHE277     -0.0202
     52  CD1       13.2750    5.8330   18.9300 C.ar  277  PHE277     -0.0042
     53  CD2       11.9250    7.6080   18.0430 C.ar  277  PHE277     -0.0042
     54  CE1       12.6500    5.9840   20.1980 C.ar  277  PHE277     -0.0003
     55  CE2       11.2890    7.7800   19.3020 C.ar  277  PHE277     -0.0003
     56  CZ        11.6380    6.9620   20.3720 C.ar  277  PHE277     -0.0000
     57  N         14.4600    3.5080   16.1600 N.am  278  SER278     -0.1938
     58  CA        14.6790    2.1650   16.6680 C.3   278  SER278      0.2055
     59  C         16.0970    2.0570   17.2010 C.2   278  SER278      0.2644
     60  O         16.9820    2.7650   16.7550 O.2   278  SER278     -0.2714
     61  CB        14.4300    1.1020   15.5810 C.3   278  SER278      0.2130
     62  OG        15.2920    1.3120   14.4510 O.3   278  SER278     -0.2179
     63  N         16.2860    1.1860   18.1980 N.am  279  GLY279     -0.1939
     64  CA        17.6320    0.8880   18.6920 C.3   279  GLY279      0.2014
     65  C         17.7390   -0.6170   18.8180 C.2   279  GLY279      0.2639
     66  O         17.5560   -1.3500   17.8590 O.2   279  GLY279     -0.2714
     67  N         17.9750   -1.0800   20.0340 N.am  280  TRP280     -0.1959
     68  CA        17.9250   -2.5050   20.3130 C.3   280  TRP280      0.1771
     69  C         17.4250   -2.6630   21.7280 C.2   280  TRP280      0.2619
     70  O         17.4840   -1.7270   22.5210 O.2   280  TRP280     -0.2715
     71  CB        19.2770   -3.1970   20.1050 C.3   280  TRP280      0.0590
     72  CG        20.4510   -2.5820   20.8400 C.ar  280  TRP280      0.0006
     73  CD1       20.7680   -2.7350   22.1810 C.ar  280  TRP280      0.0946
     74  CD2       21.4600   -1.7430   20.2830 C.ar  280  TRP280      0.0152
     75  NE1       21.9040   -2.0310   22.4710 N.ar  280  TRP280     -0.2442
     76  CE2       22.3580   -1.4180   21.3280 C.ar  280  TRP280      0.0810
     77  CE3       21.6930   -1.2150   18.9950 C.ar  280  TRP280      0.0012
     78  CZ2       23.4790   -0.5940   21.1240 C.ar  280  TRP280      0.0191
     79  CZ3       22.8120   -0.3980   18.7950 C.ar  280  TRP280      0.0001
     80  CH2       23.6920   -0.1110   19.8420 C.ar  280  TRP280      0.0015
     81  N         16.8990   -3.8390   22.0180 N.am  281  TYR281     -0.1974
     82  CA        16.3000   -4.1170   23.3290 C.3   281  TYR281      0.1639
     83  C         17.2800   -4.2370   24.4750 C.2   281  TYR281      0.2290
     84  O         18.3890   -4.7410   24.3180 O.2   281  TYR281     -0.2864
     85  CB        15.5560   -5.4350   23.2440 C.3   281  TYR281      0.0560
     86  CG        14.1010   -5.2900   22.8620 C.ar  281  TYR281     -0.0198
     87  CD1       13.5970   -5.8900   21.7090 C.ar  281  TYR281     -0.0009
     88  CD2       13.2250   -4.5670   23.6680 C.ar  281  TYR281     -0.0009
     89  CE1       12.2430   -5.7680   21.3730 C.ar  281  TYR281      0.0417
     90  CE2       11.8830   -4.4410   23.3420 C.ar  281  TYR281      0.0417
     91  CZ        11.3930   -5.0510   22.1990 C.ar  281  TYR281      0.1957
     92  OH        10.0460   -4.8990   21.9120 O.3   281  TYR281     -0.2866
     93  N         12.9050   -5.3580   29.1630 N.3   285  GLU285     -0.1245
     94  CA        11.7300   -4.8660   28.4410 C.3   285  GLU285      0.1567
     95  C         10.8450   -6.0770   28.0410 C.2   285  GLU285      0.2260
     96  O          9.6200   -6.1140   28.2600 O.2   285  GLU285     -0.2867
     97  CB        12.1600   -4.0520   27.1930 C.3   285  GLU285      0.0388
     98  CG        13.0410   -2.8130   27.4740 C.3   285  GLU285      0.1160
     99  CD        13.4460   -2.0450   26.2020 C.2   285  GLU285      0.3649
    100  OE1       12.5970   -1.3270   25.6540 O.co2 285  GLU285     -0.2457
    101  OE2       14.6050   -2.1430   25.7580 O.co2 285  GLU285     -0.2457
    102  N         12.0440    5.7250   35.3110 N.3   371  TRP371     -0.1241
    103  CA        12.1760    4.9450   34.0600 C.3   371  TRP371      0.1605
    104  C         13.5370    4.3020   33.8360 C.2   371  TRP371      0.2264
    105  O         13.6400    3.2430   33.1870 O.2   371  TRP371     -0.2867
    106  CB        11.9140    5.8670   32.8660 C.3   371  TRP371      0.0550
    107  CG        10.4630    6.0730   32.6410 C.ar  371  TRP371      0.0003
    108  CD1        9.5480    6.5640   33.5490 C.ar  371  TRP371      0.0946
    109  CD2        9.7430    5.8350   31.4230 C.ar  371  TRP371      0.0152
    110  NE1        8.2930    6.6320   32.9560 N.ar  371  TRP371     -0.2442
    111  CE2        8.3850    6.2020   31.6600 C.ar  371  TRP371      0.0810
    112  CE3       10.1070    5.3660   30.1540 C.ar  371  TRP371      0.0012
    113  CZ2        7.4050    6.1050   30.6760 C.ar  371  TRP371      0.0191
    114  CZ3        9.1250    5.2590   29.1700 C.ar  371  TRP371      0.0001
    115  CH2        7.7850    5.6360   29.4470 C.ar  371  TRP371      0.0015
@<TRIPOS>BOND
     1    62    61    1
     2    46    47    1
     3    61    58    1
     4    38    35    1
     5    47    48    1
     6    47    50    1
     7    10     9    2
     8     9     8    1
     9    19    18    2
    10    57    48   am
    11    57    58    1
    12    48    49    2
    13    16    17    1
    14    50    51    1
    15    58    59    1
    16    60    59    2
    17    37    36    2
    18    42    41    2
    19    35    36    1
    20    35    34    1
    21    59    63   am
    22    18    17    1
    23    36    39   am
    24     8     7    1
    25     8    11    1
    26    41    40    1
    27    17    20    1
    28     1     2    1
    29    51    53   ar
    30    51    52   ar
    31    66    65    2
    32    34    29   am
    33     7     3   am
    34    53    55   ar
    35    30    29    2
    36    39    40    1
    37    63    64    1
    38    20    21    1
    39    27    33    1
    40    27    28    1
    41    29    28    1
    42    11    12    1
    43     3     2    1
    44     3     4    2
    45    40    43    1
    46    64    65    1
    47     2     5    1
    48    79    77   ar
    49    79    80   ar
    50    65    67   am
    51    21    22    1
    52    52    54   ar
    53    33    32    1
    54    77    74   ar
    55    28    31    1
    56    55    56   ar
    57    12    13    1
    58    43    44    1
    59    43    45    1
    60    80    78   ar
    61    22    23    1
    62    67    68    1
    63    71    68    1
    64    71    72    1
    65     5     6    1
    66    54    56   ar
    67    32    31    1
    68    14    13    2
    69    74    72   ar
    70    74    76   ar
    71    68    69    1
    72    13    15   am
    73    72    73   ar
    74    78    76   ar
    75    23    24    2
    76    76    75   ar
    77    89    87   ar
    78    89    91   ar
    79    87    86   ar
    80    69    81   am
    81    69    70    2
    82    92    91    1
    83    81    82    1
    84    73    75   ar
    85    25    24    1
    86    91    90   ar
    87    24    26    1
    88    86    85    1
    89    86    88   ar
    90    85    82    1
    91    82    83    1
    92    90    88   ar
    93    84    83    2
    94   100    99   ar
    95   101    99   ar
    96    99    98    1
    97    97    98    1
    98    97    94    1
    99    95    96    2
   100    95    94    1
   101    94    93    1
   102   114   115   ar
   103   114   112   ar
   104   115   113   ar
   105   112   109   ar
   106   113   111   ar
   107   109   111   ar
   108   109   107   ar
   109   111   110   ar
   110   107   106    1
   111   107   108   ar
   112   106   103    1
   113   110   108   ar
   114   105   104    2
   115   104   103    1
   116   103   102    1
