@<TRIPOS>MOLECULE
tmp/3nm1A01.pdb
 118 107 0 0 0
SMALL
GASTEIGER

@<TRIPOS>ATOM
      1  N        -11.4200  -28.8330   44.6660 N.3    12  TYR12      -0.1241
      2  CA       -11.6210  -28.2900   43.3320 C.3    12  TYR12       0.1605
      3  C        -10.3280  -27.6270   42.8490 C.2    12  TYR12       0.2264
      4  O         -9.8840  -26.6270   43.4150 O.2    12  TYR12      -0.2867
      5  CB       -12.7670  -27.2960   43.4330 C.3    12  TYR12       0.0534
      6  CG       -13.2500  -26.5990   42.1810 C.ar   12  TYR12      -0.0201
      7  CD1      -12.6190  -26.7500   40.9490 C.ar   12  TYR12      -0.0009
      8  CD2      -14.3520  -25.7490   42.2540 C.ar   12  TYR12      -0.0009
      9  CE1      -13.0940  -26.0720   39.8330 C.ar   12  TYR12       0.0417
     10  CE2      -14.8250  -25.0820   41.1570 C.ar   12  TYR12       0.0417
     11  CZ       -14.2030  -25.2390   39.9560 C.ar   12  TYR12       0.1957
     12  OH       -14.7100  -24.5490   38.8890 O.3    12  TYR12      -0.2866
     13  N         -8.0940  -25.5520   40.2950 N.3    14  VAL14      -0.1245
     14  CA        -8.1100  -24.5590   39.2380 C.3    14  VAL14       0.1561
     15  C         -6.6940  -24.3940   38.6850 C.2    14  VAL14       0.2260
     16  O         -5.7110  -24.5510   39.4160 O.2    14  VAL14      -0.2867
     17  CB        -8.7370  -23.2440   39.7260 C.3    14  VAL14       0.0252
     18  CG1       -8.3790  -22.0930   38.8210 C.3    14  VAL14       0.0019
     19  CG2      -10.2440  -23.4050   39.8110 C.3    14  VAL14       0.0019
     20  N        -11.1400  -27.0020   36.9070 N.3    42  GLN42      -0.1245
     21  CA       -11.3770  -25.8680   36.0210 C.3    42  GLN42       0.1566
     22  C        -10.0800  -25.5350   35.3050 C.2    42  GLN42       0.2260
     23  O         -9.0040  -25.6200   35.8850 O.2    42  GLN42      -0.2867
     24  CB       -11.8680  -24.6540   36.8170 C.3    42  GLN42       0.0367
     25  CG       -11.8160  -23.3260   36.0650 C.3    42  GLN42       0.0905
     26  CD       -12.3220  -22.1480   36.9030 C.2    42  GLN42       0.2608
     27  OE1      -13.5260  -21.9980   37.1140 O.2    42  GLN42      -0.2717
     28  NE2      -11.4000  -21.3140   37.3910 N.am   42  GLN42      -0.0878
     29  N         -8.0270  -22.5500   33.6610 N.3    44  ARG44      -0.1245
     30  CA        -8.0050  -21.0960   33.6720 C.3    44  ARG44       0.1563
     31  C         -6.9360  -20.6790   32.6940 C.2    44  ARG44       0.2260
     32  O         -5.7710  -21.0440   32.8610 O.2    44  ARG44      -0.2867
     33  CB        -7.6800  -20.5680   35.0810 C.3    44  ARG44       0.0307
     34  CG        -8.0870  -19.1260   35.3180 C.3    44  ARG44       0.0489
     35  CD        -7.9800  -18.6750   36.7670 C.3    44  ARG44       0.2205
     36  NE        -7.8950  -17.2220   36.8180 N.pl3  44  ARG44      -0.0865
     37  CZ        -6.7480  -16.5610   36.8830 C.cat  44  ARG44       0.5346
     38  NH1       -5.6060  -17.2350   36.9440 N.pl3  44  ARG44       0.1354
     39  NH2       -6.7360  -15.2380   36.8960 N.pl3  44  ARG44       0.1354
     40  N        -13.1530  -21.6750   32.2690 N.3    74  ASN74      -0.1240
     41  CA       -13.2090  -20.3380   32.8560 C.3    74  ASN74       0.1653
     42  C        -13.4760  -19.2150   31.8330 C.2    74  ASN74       0.2266
     43  O        -12.8420  -19.1330   30.7880 O.2    74  ASN74      -0.2867
     44  CB       -11.9480  -20.0780   33.6970 C.3    74  ASN74       0.1155
     45  CG       -11.9580  -18.7200   34.3760 C.2    74  ASN74       0.2627
     46  OD1      -10.9650  -17.9930   34.3530 O.2    74  ASN74      -0.2716
     47  ND2      -13.0820  -18.3710   34.9820 N.am   74  ASN74      -0.0877
     48  N        -17.3280  -21.4970   34.4920 N.3    89  HIS89      -0.1241
     49  CA       -17.2810  -20.5890   35.6260 C.3    89  HIS89       0.1621
     50  C        -17.0570  -19.1510   35.1990 C.2    89  HIS89       0.2264
     51  O        -16.0140  -18.8150   34.6790 O.2    89  HIS89      -0.2867
     52  CB       -16.1810  -21.0030   36.5950 C.3    89  HIS89       0.0745
     53  CG       -16.2290  -20.2650   37.8870 C.ar   89  HIS89       0.0817
     54  ND1      -16.7910  -20.7970   39.0290 N.ar   89  HIS89      -0.2268
     55  CD2      -15.8300  -19.0140   38.2190 C.ar   89  HIS89       0.1154
     56  CE1      -16.7160  -19.9180   40.0080 C.ar   89  HIS89       0.1986
     57  NE2      -16.1340  -18.8240   39.5420 N.ar   89  HIS89      -0.2212
     58  N        -18.5880  -16.2620   40.5700 N.3   111  SER111     -0.1217
     59  CA       -17.7160  -15.6640   41.5720 C.3   111  SER111      0.1889
     60  C        -18.5080  -14.6620   42.4200 C.2   111  SER111      0.2288
     61  O        -18.9420  -13.6040   41.9360 O.2   111  SER111     -0.2866
     62  CB       -16.4990  -14.9980   40.9170 C.3   111  SER111      0.2089
     63  OG       -15.7430  -15.9240   40.1470 O.3   111  SER111     -0.2183
     64  N        -23.4350  -23.1300   41.2250 N.3   129  TYR129     -0.1241
     65  CA       -22.5710  -23.0370   42.3950 C.3   129  TYR129      0.1605
     66  C        -21.8990  -21.6610   42.4140 C.2   129  TYR129      0.2264
     67  O        -22.1030  -20.8550   41.4970 O.2   129  TYR129     -0.2867
     68  CB       -21.5540  -24.1910   42.4420 C.3   129  TYR129      0.0534
     69  CG       -20.3730  -24.0010   41.5370 C.ar  129  TYR129     -0.0201
     70  CD1      -19.2430  -23.3350   41.9790 C.ar  129  TYR129     -0.0009
     71  CD2      -20.3830  -24.4840   40.2190 C.ar  129  TYR129     -0.0009
     72  CE1      -18.1500  -23.1440   41.1320 C.ar  129  TYR129      0.0417
     73  CE2      -19.2860  -24.2960   39.3590 C.ar  129  TYR129      0.0417
     74  CZ       -18.1760  -23.6240   39.8290 C.ar  129  TYR129      0.1957
     75  OH       -17.0800  -23.4240   39.0250 O.3   129  TYR129     -0.2866
     76  N        -18.0440  -19.7180   43.7460 N.3   131  GLY131     -0.1225
     77  CA       -16.7720  -19.6550   44.4330 C.3   131  GLY131      0.1811
     78  C        -16.8570  -18.4930   45.4010 C.2   131  GLY131      0.2280
     79  O        -17.2530  -17.3920   44.9990 O.2   131  GLY131     -0.2866
     80  N         -4.3190  -14.2930   41.4310 N.3   141  LYS141     -0.1245
     81  CA        -5.3370  -13.5630   40.6970 C.3   141  LYS141      0.1561
     82  C         -4.8040  -12.1720   40.3060 C.2   141  LYS141      0.2260
     83  O         -5.0330  -11.1800   40.9990 O.2   141  LYS141     -0.2867
     84  CB        -6.6280  -13.4970   41.5280 C.3   141  LYS141      0.0271
     85  CG        -7.7490  -12.6290   40.9570 C.3   141  LYS141      0.0035
     86  CD        -8.3900  -13.2060   39.7040 C.3   141  LYS141      0.0206
     87  CE        -9.6930  -12.4830   39.3770 C.3   141  LYS141      0.1093
     88  NZ       -10.7380  -12.7180   40.4400 N.3   141  LYS141     -0.1314
     89  N        -11.3150   -7.0720   44.1020 N.3   146  LYS146     -0.1245
     90  CA       -11.8730   -7.1630   45.4650 C.3   146  LYS146      0.1561
     91  C        -10.8350   -6.8520   46.5440 C.2   146  LYS146      0.2260
     92  O        -10.2100   -5.7900   46.5260 O.2   146  LYS146     -0.2867
     93  CB       -12.4920   -8.5410   45.7310 C.3   146  LYS146      0.0271
     94  CG       -13.9770   -8.6520   45.3980 C.3   146  LYS146      0.0035
     95  CD       -14.4380  -10.1160   45.4050 C.3   146  LYS146      0.0206
     96  CE       -13.6420  -10.9760   44.4220 C.3   146  LYS146      0.1093
     97  NZ       -14.1440  -12.3840   44.3150 N.3   146  LYS146     -0.1314
     98  N        -17.9510  -23.1110   47.0900 N.3   172  VAL172     -0.1245
     99  CA       -16.5690  -23.4710   47.3750 C.3   172  VAL172      0.1561
    100  C        -15.8370  -22.1900   47.6770 C.2   172  VAL172      0.2260
    101  O        -16.0090  -21.2040   46.9660 O.2   172  VAL172     -0.2867
    102  CB       -15.8880  -24.1070   46.1850 C.3   172  VAL172      0.0252
    103  CG1      -16.0220  -25.6070   46.2540 C.3   172  VAL172      0.0019
    104  CG2      -16.4760  -23.5500   44.9050 C.3   172  VAL172      0.0019
    105  N        -12.4990  -19.8370   47.9700 N.3   174  ILE174     -0.1245
    106  CA       -11.3060  -19.7910   47.1430 C.3   174  ILE174      0.1561
    107  C        -10.3120  -18.6950   47.5080 C.2   174  ILE174      0.2260
    108  O        -10.6680  -17.6520   48.0790 O.2   174  ILE174     -0.2867
    109  CB       -11.6730  -19.6530   45.6540 C.3   174  ILE174      0.0252
    110  CG1      -10.4270  -19.8380   44.7760 C.3   174  ILE174      0.0019
    111  CG2      -12.3800  -18.3140   45.4200 C.3   174  ILE174      0.0019
    112  CD1      -10.6740  -19.6060   43.2920 C.3   174  ILE174      0.0001
    113  N        -10.9850  -24.9310   47.2300 N.3   202  CYS202     -0.1235
    114  CA       -10.4660  -24.8250   45.8790 C.3   202  CYS202      0.1677
    115  C         -9.0860  -24.1770   45.8910 C.2   202  CYS202      0.2270
    116  O         -8.9230  -23.0740   46.4020 O.2   202  CYS202     -0.2867
    117  CB       -11.4300  -24.0100   45.0280 C.3   202  CYS202      0.0956
    118  SG       -10.6620  -23.3310   43.5690 S.3   202  CYS202     -0.0801
@<TRIPOS>BOND
     1    43    42    2
     2    42    41    1
     3    40    41    1
     4    31    32    2
     5    31    30    1
     6    41    44    1
     7    29    30    1
     8    30    33    1
     9    44    45    1
    10    46    45    2
    11    45    47   am
    12    48    49    1
    13    51    50    2
    14    33    34    1
    15    50    49    1
    16    22    23    2
    17    22    21    1
    18    34    35    1
    19    49    52    1
    20    21    24    1
    21    21    20    1
    22    25    24    1
    23    25    26    1
    24    52    53    1
    25    35    36    1
    26    36    37    2
    27    37    39    1
    28    37    38    1
    29    26    27    2
    30    26    28   am
    31    53    55   ar
    32    53    54   ar
    33    55    57   ar
    34    15    14    1
    35    15    16    2
    36    18    17    1
    37    12    11    1
    38    75    74    1
    39    54    56   ar
    40    14    17    1
    41    14    13    1
    42    73    74   ar
    43    73    71   ar
    44    87    86    1
    45    87    88    1
    46    57    56   ar
    47    86    85    1
    48    17    19    1
    49    74    72   ar
    50     9    11   ar
    51     9     7   ar
    52    11    10   ar
    53    63    62    1
    54    71    69   ar
    55    82    81    1
    56    82    83    2
    57    58    59    1
    58    81    80    1
    59    81    84    1
    60    62    59    1
    61     7     6   ar
    62    85    84    1
    63    72    70   ar
    64    10     8   ar
    65    64    65    1
    66    67    66    2
    67    69    70   ar
    68    69    68    1
    69    59    60    1
    70    61    60    2
    71     6     8   ar
    72     6     5    1
    73    65    66    1
    74    65    68    1
    75     3     2    1
    76     3     4    2
    77   112   110    1
    78     2     5    1
    79     2     1    1
    80   118   117    1
    81    76    77    1
    82    89    90    1
    83    97    96    1
    84    96    95    1
    85    77    78    1
    86   110   109    1
    87   104   102    1
    88    79    78    2
    89   117   114    1
    90    94    95    1
    91    94    93    1
    92   111   109    1
    93    90    93    1
    94    90    91    1
    95   109   106    1
    96   114   115    1
    97   114   113    1
    98   115   116    2
    99   102   103    1
   100   102    99    1
   101    92    91    2
   102   101   100    2
   103    98    99    1
   104   106   107    1
   105   106   105    1
   106    99   100    1
   107   107   108    2
