@<TRIPOS>MOLECULE
tmp/3nm1A00.pdb
 144 135 0 0 0
SMALL
GASTEIGER

@<TRIPOS>ATOM
      1  N         -8.0940  -25.5520   40.2950 N.3    14  VAL14      -0.1245
      2  CA        -8.1100  -24.5590   39.2380 C.3    14  VAL14       0.1561
      3  C         -6.6940  -24.3940   38.6850 C.2    14  VAL14       0.2260
      4  O         -5.7110  -24.5510   39.4160 O.2    14  VAL14      -0.2867
      5  CB        -8.7370  -23.2440   39.7260 C.3    14  VAL14       0.0252
      6  CG1       -8.3790  -22.0930   38.8210 C.3    14  VAL14       0.0019
      7  CG2      -10.2440  -23.4050   39.8110 C.3    14  VAL14       0.0019
      8  N        -11.1400  -27.0020   36.9070 N.3    42  GLN42      -0.1245
      9  CA       -11.3770  -25.8680   36.0210 C.3    42  GLN42       0.1566
     10  C        -10.0800  -25.5350   35.3050 C.2    42  GLN42       0.2260
     11  O         -9.0040  -25.6200   35.8850 O.2    42  GLN42      -0.2867
     12  CB       -11.8680  -24.6540   36.8170 C.3    42  GLN42       0.0367
     13  CG       -11.8160  -23.3260   36.0650 C.3    42  GLN42       0.0905
     14  CD       -12.3220  -22.1480   36.9030 C.2    42  GLN42       0.2608
     15  OE1      -13.5260  -21.9980   37.1140 O.2    42  GLN42      -0.2717
     16  NE2      -11.4000  -21.3140   37.3910 N.am   42  GLN42      -0.0878
     17  N         -8.0270  -22.5500   33.6610 N.3    44  ARG44      -0.1245
     18  CA        -8.0050  -21.0960   33.6720 C.3    44  ARG44       0.1563
     19  C         -6.9360  -20.6790   32.6940 C.2    44  ARG44       0.2260
     20  O         -5.7710  -21.0440   32.8610 O.2    44  ARG44      -0.2867
     21  CB        -7.6800  -20.5680   35.0810 C.3    44  ARG44       0.0307
     22  CG        -8.0870  -19.1260   35.3180 C.3    44  ARG44       0.0489
     23  CD        -7.9800  -18.6750   36.7670 C.3    44  ARG44       0.2205
     24  NE        -7.8950  -17.2220   36.8180 N.pl3  44  ARG44      -0.0865
     25  CZ        -6.7480  -16.5610   36.8830 C.cat  44  ARG44       0.5346
     26  NH1       -5.6060  -17.2350   36.9440 N.pl3  44  ARG44       0.1354
     27  NH2       -6.7360  -15.2380   36.8960 N.pl3  44  ARG44       0.1354
     28  N        -18.5880  -16.2620   40.5700 N.3   111  SER111     -0.1217
     29  CA       -17.7160  -15.6640   41.5720 C.3   111  SER111      0.1889
     30  C        -18.5080  -14.6620   42.4200 C.2   111  SER111      0.2288
     31  O        -18.9420  -13.6040   41.9360 O.2   111  SER111     -0.2866
     32  CB       -16.4990  -14.9980   40.9170 C.3   111  SER111      0.2089
     33  OG       -15.7430  -15.9240   40.1470 O.3   111  SER111     -0.2183
     34  N        -15.6510  -15.5360   47.6200 N.3   133  GLY133     -0.1210
     35  CA       -14.7620  -14.4020   47.8540 C.3   133  GLY133      0.1956
     36  C        -13.2910  -14.6440   47.6500 C.2   133  GLY133      0.2612
     37  O        -12.8800  -15.7110   47.1950 O.2   133  GLY133     -0.2717
     38  N        -12.4800  -13.6510   47.9770 N.am  134  THR134     -0.1952
     39  CA       -11.0650  -13.9370   48.1330 C.3   134  THR134      0.1897
     40  C        -10.8600  -14.1200   49.6330 C.2   134  THR134      0.2313
     41  O        -11.0610  -13.1860   50.4090 O.2   134  THR134     -0.2863
     42  CB       -10.1620  -12.8140   47.5710 C.3   134  THR134      0.1794
     43  OG1      -10.8120  -12.1620   46.4720 O.3   134  THR134     -0.2208
     44  CG2       -8.8270  -13.3770   47.1050 C.3   134  THR134      0.0378
     45  N         -3.7160  -13.1330   48.0100 N.3   138  THR138     -0.1218
     46  CA        -2.9610  -13.9720   47.0930 C.3   138  THR138      0.1862
     47  C         -2.3100  -13.1820   45.9660 C.2   138  THR138      0.2287
     48  O         -2.7140  -12.0500   45.6680 O.2   138  THR138     -0.2866
     49  CB        -3.8470  -15.0400   46.4580 C.3   138  THR138      0.1770
     50  OG1       -3.0270  -16.1320   46.0160 O.3   138  THR138     -0.2211
     51  CG2       -4.6270  -14.4370   45.2800 C.3   138  THR138      0.0375
     52  N         -1.8960  -14.6020   42.8310 N.3   140  THR140     -0.1203
     53  CA        -2.2300  -15.4660   41.7060 C.3   140  THR140      0.1994
     54  C         -3.2720  -14.8180   40.8130 C.2   140  THR140      0.2617
     55  O         -3.1420  -14.7990   39.5910 O.2   140  THR140     -0.2717
     56  CB        -2.7820  -16.8050   42.1950 C.3   140  THR140      0.1784
     57  OG1       -1.7270  -17.5570   42.8070 O.3   140  THR140     -0.2211
     58  CG2       -3.3570  -17.5880   41.0420 C.3   140  THR140      0.0376
     59  N         -4.3190  -14.2930   41.4310 N.am  141  LYS141     -0.1979
     60  CA        -5.3370  -13.5630   40.6970 C.3   141  LYS141      0.1596
     61  C         -4.8040  -12.1720   40.3060 C.2   141  LYS141      0.2287
     62  O         -5.0330  -11.1800   40.9990 O.2   141  LYS141     -0.2864
     63  CB        -6.6280  -13.4970   41.5280 C.3   141  LYS141      0.0298
     64  CG        -7.7490  -12.6290   40.9570 C.3   141  LYS141      0.0038
     65  CD        -8.3900  -13.2060   39.7040 C.3   141  LYS141      0.0206
     66  CE        -9.6930  -12.4830   39.3770 C.3   141  LYS141      0.1093
     67  NZ       -10.7380  -12.7180   40.4400 N.3   141  LYS141     -0.1314
     68  N        -11.3150   -7.0720   44.1020 N.3   146  LYS146     -0.1245
     69  CA       -11.8730   -7.1630   45.4650 C.3   146  LYS146      0.1561
     70  C        -10.8350   -6.8520   46.5440 C.2   146  LYS146      0.2260
     71  O        -10.2100   -5.7900   46.5260 O.2   146  LYS146     -0.2867
     72  CB       -12.4920   -8.5410   45.7310 C.3   146  LYS146      0.0271
     73  CG       -13.9770   -8.6520   45.3980 C.3   146  LYS146      0.0035
     74  CD       -14.4380  -10.1160   45.4050 C.3   146  LYS146      0.0206
     75  CE       -13.6420  -10.9760   44.4220 C.3   146  LYS146      0.1093
     76  NZ       -14.1440  -12.3840   44.3150 N.3   146  LYS146     -0.1314
     77  N        -12.4990  -19.8370   47.9700 N.3   174  ILE174     -0.1231
     78  CA       -11.3060  -19.7910   47.1430 C.3   174  ILE174      0.1692
     79  C        -10.3120  -18.6950   47.5080 C.2   174  ILE174      0.2593
     80  O        -10.6680  -17.6520   48.0790 O.2   174  ILE174     -0.2718
     81  CB       -11.6730  -19.6530   45.6540 C.3   174  ILE174      0.0266
     82  CG1      -10.4270  -19.8380   44.7760 C.3   174  ILE174      0.0019
     83  CG2      -12.3800  -18.3140   45.4200 C.3   174  ILE174      0.0020
     84  CD1      -10.6740  -19.6060   43.2920 C.3   174  ILE174      0.0001
     85  N         -9.0540  -18.9630   47.1740 N.am  175  GLY175     -0.1942
     86  CA        -8.0230  -17.9580   47.2540 C.3   175  GLY175      0.2014
     87  C         -7.2450  -17.9730   48.5420 C.2   175  GLY175      0.2639
     88  O         -7.7790  -17.6860   49.6100 O.2   175  GLY175     -0.2714
     89  N         -5.9660  -18.2990   48.4280 N.am  176  GLY176     -0.1939
     90  CA        -5.0570  -18.2020   49.5460 C.3   176  GLY176      0.2014
     91  C         -4.9800  -19.5030   50.2990 C.2   176  GLY176      0.2639
     92  O         -4.1010  -19.6670   51.1380 O.2   176  GLY176     -0.2714
     93  N         -5.8850  -20.4310   49.9950 N.am  177  LEU177     -0.1963
     94  CA        -6.0210  -21.6420   50.7950 C.3   177  LEU177      0.1728
     95  C         -4.7900  -22.5170   50.6990 C.2   177  LEU177      0.2616
     96  O         -4.3240  -22.8030   49.6110 O.2   177  LEU177     -0.2715
     97  CB        -7.2650  -22.4310   50.3850 C.3   177  LEU177      0.0311
     98  CG        -8.6370  -21.7650   50.5760 C.3   177  LEU177      0.0022
     99  CD1       -8.6560  -20.8210   51.7620 C.3   177  LEU177      0.0001
    100  CD2       -9.0150  -21.0220   49.3370 C.3   177  LEU177      0.0001
    101  N         -4.2720  -22.9280   51.8520 N.am  178  HIS178     -0.1973
    102  CA        -3.0910  -23.7770   51.9570 C.3   178  HIS178      0.1656
    103  C         -3.2870  -24.6660   53.1860 C.2   178  HIS178      0.2291
    104  O         -4.3480  -24.6330   53.7900 O.2   178  HIS178     -0.2864
    105  CB        -1.8310  -22.9140   52.0820 C.3   178  HIS178      0.0771
    106  CG        -1.3920  -22.2800   50.7890 C.ar  178  HIS178      0.0820
    107  ND1       -0.6090  -22.9380   49.8600 N.ar  178  HIS178     -0.2267
    108  CD2       -1.6250  -21.0470   50.2760 C.ar  178  HIS178      0.1154
    109  CE1       -0.3820  -22.1380   48.8310 C.ar  178  HIS178      0.1986
    110  NE2       -0.9850  -20.9840   49.0590 N.ar  178  HIS178     -0.2212
    111  N        -10.9850  -24.9310   47.2300 N.3   202  CYS202     -0.1221
    112  CA       -10.4660  -24.8250   45.8790 C.3   202  CYS202      0.1808
    113  C         -9.0860  -24.1770   45.8910 C.2   202  CYS202      0.2601
    114  O         -8.9230  -23.0740   46.4020 O.2   202  CYS202     -0.2717
    115  CB       -11.4300  -24.0100   45.0280 C.3   202  CYS202      0.0970
    116  SG       -10.6620  -23.3310   43.5690 S.3   202  CYS202     -0.0800
    117  N         -8.0890  -24.8620   45.3440 N.am  203  VAL203     -0.1965
    118  CA        -6.7350  -24.3210   45.3460 C.3   203  VAL203      0.1727
    119  C         -6.2040  -24.1780   43.9340 C.2   203  VAL203      0.2616
    120  O         -6.6880  -24.8450   43.0150 O.2   203  VAL203     -0.2715
    121  CB        -5.7510  -25.2100   46.1390 C.3   203  VAL203      0.0290
    122  CG1       -6.3260  -25.5470   47.5060 C.3   203  VAL203      0.0023
    123  CG2       -5.4320  -26.4640   45.3590 C.3   203  VAL203      0.0023
    124  N         -5.2200  -23.2960   43.7680 N.am  204  VAL204     -0.1963
    125  CA        -4.4840  -23.1790   42.5210 C.3   204  VAL204      0.1727
    126  C         -3.0030  -23.3870   42.7860 C.2   204  VAL204      0.2617
    127  O         -2.4300  -24.3880   42.3660 O.2   204  VAL204     -0.2715
    128  CB        -4.6910  -21.8180   41.8710 C.3   204  VAL204      0.0290
    129  CG1       -3.5260  -21.4780   40.9940 C.3   204  VAL204      0.0023
    130  CG2       -5.9430  -21.8350   41.0580 C.3   204  VAL204      0.0023
    131  N         -2.3930  -22.4640   43.5180 N.am  205  SER205     -0.1936
    132  CA        -0.9400  -22.4530   43.6650 C.3   205  SER205      0.2055
    133  C         -0.3660  -23.5780   44.5300 C.2   205  SER205      0.2643
    134  O          0.8400  -23.8230   44.5230 O.2   205  SER205     -0.2714
    135  CB        -0.4810  -21.0980   44.2010 C.3   205  SER205      0.2130
    136  OG        -0.8980  -20.9180   45.5360 O.3   205  SER205     -0.2179
    137  N         -1.2110  -24.2630   45.2850 N.am  206  ASP206     -0.1971
    138  CA        -0.6920  -25.2930   46.1870 C.3   206  ASP206      0.1709
    139  C         -0.3460  -26.5860   45.4350 C.2   206  ASP206      0.2293
    140  O          0.6150  -27.3020   45.7610 O.2   206  ASP206     -0.2864
    141  CB        -1.6750  -25.5690   47.3320 C.3   206  ASP206      0.1436
    142  CG        -1.0210  -26.3110   48.4820 C.2   206  ASP206      0.3671
    143  OD1       -1.5520  -26.2580   49.6080 O.co2 206  ASP206     -0.2456
    144  OD2        0.0420  -26.9380   48.2660 O.co2 206  ASP206     -0.2456
@<TRIPOS>BOND
     1    19    20    2
     2    19    18    1
     3    17    18    1
     4    18    21    1
     5    21    22    1
     6    10    11    2
     7    10     9    1
     8    22    23    1
     9     9    12    1
    10     9     8    1
    11    13    12    1
    12    13    14    1
    13    23    24    1
    14    24    25    2
    15    25    27    1
    16    25    26    1
    17    14    15    2
    18    14    16   am
    19     3     2    1
    20     3     4    2
    21     6     5    1
    22     2     5    1
    23     2     1    1
    24    66    65    1
    25    66    67    1
    26    55    54    2
    27    65    64    1
    28     5     7    1
    29    33    32    1
    30    61    60    1
    31    61    62    2
    32    28    29    1
    33    60    59    1
    34    60    63    1
    35    54    59   am
    36    54    53    1
    37    32    29    1
    38    64    63    1
    39   129   128    1
    40    58    56    1
    41   130   128    1
    42    29    30    1
    43    53    56    1
    44    53    52    1
    45   128   125    1
    46    31    30    2
    47    56    57    1
    48   127   126    2
    49   125   126    1
    50   125   124    1
    51   126   131   am
    52   120   119    2
    53    84    82    1
    54   131   132    1
    55   116   115    1
    56   132   135    1
    57   132   133    1
    58   124   119   am
    59   119   118    1
    60    68    69    1
    61   135   136    1
    62    76    75    1
    63    75    74    1
    64   134   133    2
    65   133   137   am
    66    82    81    1
    67   115   112    1
    68    51    49    1
    69   137   138    1
    70   117   118    1
    71   117   113   am
    72   118   121    1
    73   123   121    1
    74    73    74    1
    75    73    72    1
    76    83    81    1
    77   139   140    2
    78   139   138    1
    79    69    72    1
    80    69    70    1
    81    81    78    1
    82    48    47    2
    83   112   113    1
    84   112   111    1
    85   113   114    2
    86    47    46    1
    87    50    49    1
    88   121   122    1
    89   138   141    1
    90    49    46    1
    91    43    42    1
    92    71    70    2
    93    46    45    1
    94    44    42    1
    95    78    79    1
    96    78    77    1
    97    85    86    1
    98    85    79   am
    99    37    36    2
   100    86    87    1
   101   141   142    1
   102    79    80    2
   103    42    39    1
   104    34    35    1
   105    36    35    1
   106    36    38   am
   107    38    39    1
   108    39    40    1
   109   144   142   ar
   110    89    87   am
   111    89    90    1
   112   142   143   ar
   113    87    88    2
   114   109   110   ar
   115   109   107   ar
   116   110   108   ar
   117   100    98    1
   118    90    91    1
   119    96    95    2
   120    40    41    2
   121   107   106   ar
   122    93    91   am
   123    93    94    1
   124   108   106   ar
   125    91    92    2
   126    97    98    1
   127    97    94    1
   128    98    99    1
   129    95    94    1
   130    95   101   am
   131   106   105    1
   132   101   102    1
   133   102   105    1
   134   102   103    1
   135   103   104    2
