@<TRIPOS>MOLECULE
tmp/3nm3D01.pdb
 123 115 0 0 0
SMALL
GASTEIGER

@<TRIPOS>ATOM
      1  N         33.9840   43.3470   30.7210 N.3    42  GLN42      -0.1245
      2  CA        32.5880   43.1780   31.0950 C.3    42  GLN42       0.1566
      3  C         32.4850   42.1400   32.2250 C.2    42  GLN42       0.2260
      4  O         33.0650   41.0540   32.1450 O.2    42  GLN42      -0.2867
      5  CB        31.7550   42.7490   29.8740 C.3    42  GLN42       0.0367
      6  CG        30.3260   42.2850   30.1880 C.3    42  GLN42       0.0905
      7  CD        29.5790   41.7610   28.9710 C.2    42  GLN42       0.2608
      8  OE1       28.8740   40.7590   29.0450 O.2    42  GLN42      -0.2717
      9  NE2       29.7250   42.4440   27.8490 N.am   42  GLN42      -0.0878
     10  N         30.1360   39.5320   34.0820 N.3    44  ARG44      -0.1245
     11  CA        28.9560   38.7390   33.7260 C.3    44  ARG44       0.1563
     12  C         28.5520   37.7590   34.8230 C.2    44  ARG44       0.2260
     13  O         29.2180   36.7420   35.0420 O.2    44  ARG44      -0.2867
     14  CB        29.1980   37.9760   32.4150 C.3    44  ARG44       0.0307
     15  CG        28.0020   37.1630   31.9240 C.3    44  ARG44       0.0489
     16  CD        28.2340   36.5950   30.5310 C.3    44  ARG44       0.2205
     17  NE        27.0250   36.0010   29.9620 N.pl3  44  ARG44      -0.0865
     18  CZ        26.7450   34.7080   29.9650 C.cat  44  ARG44       0.5346
     19  NH1       27.5890   33.8510   30.5210 N.pl3  44  ARG44       0.1354
     20  NH2       25.6190   34.2870   29.4090 N.pl3  44  ARG44       0.1354
     21  N         25.3210   35.5880   35.5530 N.3    46  LYS46      -0.1245
     22  CA        23.9840   35.1670   35.1780 C.3    46  LYS46       0.1561
     23  C         23.2510   34.4870   36.3450 C.2    46  LYS46       0.2260
     24  O         22.0290   34.3140   36.3000 O.2    46  LYS46      -0.2867
     25  CB        24.0170   34.2790   33.9270 C.3    46  LYS46       0.0271
     26  CG        23.7500   35.0440   32.6180 C.3    46  LYS46       0.0035
     27  CD        22.3640   35.7030   32.6350 C.3    46  LYS46       0.0206
     28  CE        21.7860   35.9400   31.2190 C.3    46  LYS46       0.1093
     29  NZ        22.1180   37.2620   30.5770 N.3    46  LYS46      -0.1314
     30  N         26.4810   43.4680   32.9480 N.3    74  ASN74      -0.1225
     31  CA        25.5870   42.7180   32.0880 C.3    74  ASN74       0.1785
     32  C         24.8290   41.6990   32.9030 C.2    74  ASN74       0.2597
     33  O         25.4140   40.7660   33.4650 O.2    74  ASN74      -0.2718
     34  CB        26.4200   42.0100   31.0080 C.3    74  ASN74       0.1169
     35  CG        25.8080   40.6870   30.5380 C.2    74  ASN74       0.2627
     36  OD1       26.4020   39.6270   30.7140 O.2    74  ASN74      -0.2716
     37  ND2       24.6330   40.7530   29.9180 N.am   74  ASN74      -0.0877
     38  N         23.5180   41.8620   32.9640 N.am   75  ASP75      -0.1974
     39  CA        22.8180   42.9070   32.2490 C.3    75  ASP75       0.1709
     40  C         21.9420   43.6400   33.2540 C.2    75  ASP75       0.2293
     41  O         20.7900   44.0040   32.9810 O.2    75  ASP75      -0.2864
     42  CB        21.9760   42.2920   31.1250 C.3    75  ASP75       0.1436
     43  CG        21.4620   40.8690   31.4580 C.2    75  ASP75       0.3671
     44  OD1       20.6370   40.7150   32.3910 O.co2  75  ASP75      -0.2456
     45  OD2       21.8670   39.9020   30.7640 O.co2  75  ASP75      -0.2456
     46  N         26.0210   46.2680   29.1580 N.3    89  HIS89      -0.1226
     47  CA        25.6650   45.4930   27.9730 C.3    89  HIS89       0.1752
     48  C         24.3250   44.7820   28.1700 C.2    89  HIS89       0.2596
     49  O         24.1540   44.0330   29.1300 O.2    89  HIS89      -0.2718
     50  CB        26.7570   44.4670   27.6720 C.3    89  HIS89       0.0759
     51  CG        26.5370   43.7260   26.3950 C.ar   89  HIS89       0.0818
     52  ND1       26.8550   44.2600   25.1650 N.ar   89  HIS89      -0.2268
     53  CD2       25.9980   42.5110   26.1520 C.ar   89  HIS89       0.1154
     54  CE1       26.5270   43.4000   24.2150 C.ar   89  HIS89       0.1986
     55  NE2       26.0070   42.3280   24.7880 N.ar   89  HIS89      -0.2212
     56  N         23.3710   45.0150   27.2750 N.am   90  VAL90      -0.1966
     57  CA        22.0760   44.3530   27.4030 C.3    90  VAL90       0.1727
     58  C         21.7250   43.5640   26.1530 C.2    90  VAL90       0.2617
     59  O         22.2400   43.8410   25.0770 O.2    90  VAL90      -0.2715
     60  CB        20.9270   45.3320   27.7580 C.3    90  VAL90       0.0290
     61  CG1       21.4340   46.4570   28.6470 C.3    90  VAL90       0.0023
     62  CG2       20.2650   45.8770   26.5010 C.3    90  VAL90       0.0023
     63  N         20.8490   42.5750   26.3070 N.am   91  GLY91      -0.1940
     64  CA        20.4920   41.6700   25.2280 C.3    91  GLY91       0.2014
     65  C         19.1530   41.9910   24.6070 C.2    91  GLY91       0.2639
     66  O         18.4880   42.9480   24.9840 O.2    91  GLY91      -0.2714
     67  N         18.7500   41.1710   23.6460 N.am   92  GLN92      -0.1963
     68  CA        17.5340   41.4370   22.8820 C.3    92  GLN92       0.1733
     69  C         16.2700   41.1000   23.6800 C.2    92  GLN92       0.2616
     70  O         15.1640   41.5240   23.3350 O.2    92  GLN92      -0.2715
     71  CB        17.5520   40.6700   21.5560 C.3    92  GLN92       0.0408
     72  CG        16.6850   41.2890   20.4760 C.3    92  GLN92       0.0908
     73  CD        17.3140   42.5330   19.8880 C.2    92  GLN92       0.2608
     74  OE1       16.6240   43.5040   19.5700 O.2    92  GLN92      -0.2717
     75  NE2       18.6370   42.5110   19.7400 N.am   92  GLN92      -0.0878
     76  N         16.4520   40.3310   24.7510 N.am   93  ASP93      -0.1957
     77  CA        15.3570   39.9080   25.6210 C.3    93  ASP93       0.1840
     78  C         15.4760   40.5690   26.9930 C.2    93  ASP93       0.2622
     79  O         14.8840   40.0970   27.9620 O.2    93  ASP93      -0.2715
     80  CB        15.3430   38.3760   25.7840 C.3    93  ASP93       0.1450
     81  CG        14.6950   37.6520   24.6010 C.2    93  ASP93       0.3671
     82  OD1       13.7520   38.2040   23.9950 O.co2  93  ASP93      -0.2456
     83  OD2       15.1170   36.5160   24.2860 O.co2  93  ASP93      -0.2456
     84  N         16.2590   41.6460   27.0710 N.am   94  ASP94      -0.1971
     85  CA        16.4130   42.4220   28.3060 C.3    94  ASP94       0.1709
     86  C         15.7840   43.8080   28.1400 C.2    94  ASP94       0.2293
     87  O         15.2610   44.1380   27.0720 O.2    94  ASP94      -0.2864
     88  CB        17.8870   42.5570   28.6920 C.3    94  ASP94       0.1436
     89  CG        18.5540   41.2210   28.9470 C.2    94  ASP94       0.3671
     90  OD1       18.0140   40.4070   29.7290 O.co2  94  ASP94      -0.2456
     91  OD2       19.6350   40.9870   28.3720 O.co2  94  ASP94      -0.2456
     92  N         23.2980   43.2210   22.1950 N.3   113  SER113     -0.1217
     93  CA        23.6210   41.9880   21.4750 C.3   113  SER113      0.1889
     94  C         22.7820   41.8340   20.2010 C.2   113  SER113      0.2288
     95  O         21.5660   41.6430   20.2470 O.2   113  SER113     -0.2866
     96  CB        23.4670   40.7710   22.3890 C.3   113  SER113      0.2089
     97  OG        24.5270   40.6990   23.3320 O.3   113  SER113     -0.2183
     98  N         27.2270   30.0440   26.5760 N.3   145  LYS145     -0.1245
     99  CA        25.8660   30.5430   26.7030 C.3   145  LYS145      0.1561
    100  C         24.9210   29.3380   26.7240 C.2   145  LYS145      0.2260
    101  O         24.9880   28.4750   25.8390 O.2   145  LYS145     -0.2867
    102  CB        25.5420   31.5160   25.5670 C.3   145  LYS145      0.0271
    103  CG        24.5370   32.6090   25.9270 C.3   145  LYS145      0.0035
    104  CD        24.3500   33.5630   24.7610 C.3   145  LYS145      0.0206
    105  CE        22.9350   34.1260   24.7150 C.3   145  LYS145      0.1093
    106  NZ        22.5340   34.7290   26.0300 N.3   145  LYS145     -0.1314
    107  N         21.4880   29.0030   26.7070 N.3   147  ASN147     -0.1240
    108  CA        20.1840   28.9880   26.0440 C.3   147  ASN147      0.1653
    109  C         20.3110   29.1590   24.5290 C.2   147  ASN147      0.2266
    110  O         19.9670   28.2620   23.7530 O.2   147  ASN147     -0.2867
    111  CB        19.2730   30.0670   26.6290 C.3   147  ASN147      0.1155
    112  CG        19.7660   31.4690   26.4410 C.2   147  ASN147      0.2627
    113  OD1       20.6740   31.7070   25.6530 O.2   147  ASN147     -0.2716
    114  ND2       19.1110   32.4060   27.1170 N.am  147  ASN147     -0.0877
    115  N         19.1630   30.8710   21.0500 N.3   148  LYS148     -0.1245
    116  CA        17.9470   31.3540   20.4080 C.3   148  LYS148      0.1561
    117  C         17.9900   30.8170   18.9880 C.2   148  LYS148      0.2260
    118  O         17.0950   30.0880   18.5490 O.2   148  LYS148     -0.2867
    119  CB        17.9010   32.8710   20.4030 C.3   148  LYS148      0.0271
    120  CG        17.7910   33.4760   21.8100 C.3   148  LYS148      0.0035
    121  CD        17.8230   35.0190   21.7380 C.3   148  LYS148      0.0206
    122  CE        18.2930   35.4110   23.1150 C.3   148  LYS148      0.1093
    123  NZ        18.3620   36.8630   23.3460 N.3   148  LYS148     -0.1314
@<TRIPOS>BOND
     1   118   117    2
     2   117   116    1
     3    74    73    2
     4    75    73   am
     5    73    72    1
     6    94    95    2
     7    94    93    1
     8   119   116    1
     9   119   120    1
    10   116   115    1
    11    72    71    1
    12    93    92    1
    13    93    96    1
    14    71    68    1
    15   121   120    1
    16   121   122    1
    17    96    97    1
    18    68    67    1
    19    68    69    1
    20   122   123    1
    21    70    69    2
    22    67    65   am
    23    69    76   am
    24   110   109    2
    25    82    81   ar
    26    54    55   ar
    27    54    52   ar
    28    83    81   ar
    29   109   108    1
    30    81    80    1
    31    65    66    2
    32    65    64    1
    33   105   104    1
    34   105   106    1
    35    76    77    1
    36   104   103    1
    37    55    53   ar
    38    59    58    2
    39    52    51   ar
    40    64    63    1
    41   102   103    1
    42   102    99    1
    43    77    80    1
    44    77    78    1
    45   113   112    2
    46   101   100    2
    47   108   111    1
    48   108   107    1
    49    53    51   ar
    50    58    63   am
    51    58    57    1
    52    51    50    1
    53   112   111    1
    54   112   114   am
    55    62    60    1
    56    98    99    1
    57    99   100    1
    58    78    84   am
    59    78    79    2
    60    84    85    1
    61    87    86    2
    62    56    57    1
    63    56    48   am
    64    57    60    1
    65    50    47    1
    66    60    61    1
    67     9     7   am
    68    47    48    1
    69    47    46    1
    70    86    85    1
    71    48    49    2
    72    85    88    1
    73    91    89   ar
    74    88    89    1
    75    89    90   ar
    76     7     8    2
    77     7     6    1
    78    20    18    1
    79     5     6    1
    80     5     2    1
    81    37    35   am
    82    17    18    2
    83    17    16    1
    84    18    19    1
    85    16    15    1
    86    35    36    2
    87    35    34    1
    88    29    28    1
    89     1     2    1
    90    45    43   ar
    91    34    31    1
    92     2     3    1
    93    42    43    1
    94    42    39    1
    95    28    27    1
    96    43    44   ar
    97    15    14    1
    98    31    32    1
    99    31    30    1
   100     4     3    2
   101    39    38    1
   102    39    40    1
   103    14    11    1
   104    26    27    1
   105    26    25    1
   106    32    38   am
   107    32    33    2
   108    41    40    2
   109    11    10    1
   110    11    12    1
   111    25    22    1
   112    12    13    2
   113    22    21    1
   114    22    23    1
   115    24    23    2
