@<TRIPOS>MOLECULE
tmp/3nm4A00.pdb
 126 119 0 0 0
SMALL
GASTEIGER

@<TRIPOS>ATOM
      1  N         13.7120  -34.1790    2.0540 N.3     8  ALA8       -0.1231
      2  CA        13.3900  -34.9300    0.8480 C.3     8  ALA8        0.1694
      3  C         12.0320  -35.5980    0.9730 C.2     8  ALA8        0.2591
      4  O         11.3320  -35.7790   -0.0150 O.2     8  ALA8       -0.2718
      5  CB        14.4660  -35.9600    0.5620 C.3     8  ALA8        0.0304
      6  N         11.6740  -35.9830    2.1960 N.am    9  MET9       -0.1979
      7  CA        10.4420  -36.7370    2.4250 C.3     9  MET9        0.1605
      8  C          9.5570  -36.0470    3.4430 C.2     9  MET9        0.2287
      9  O         10.0350  -35.2600    4.2530 O.2     9  MET9       -0.2864
     10  CB        10.7810  -38.1290    2.9640 C.3     9  MET9        0.0413
     11  CG        11.5670  -38.9960    1.9930 C.3     9  MET9        0.0598
     12  SD        12.0970  -40.5180    2.7990 S.3     9  MET9       -0.1393
     13  CE        10.5190  -41.3460    3.0540 C.3     9  MET9        0.0692
     14  N         10.6780  -36.1460    6.9950 N.3    12  GLU12      -0.1245
     15  CA        11.8150  -35.3090    7.3630 C.3    12  GLU12       0.1567
     16  C         11.4050  -33.8800    7.7320 C.2    12  GLU12       0.2260
     17  O         12.1150  -33.1960    8.4790 O.2    12  GLU12      -0.2867
     18  CB        12.8790  -35.3280    6.2530 C.3    12  GLU12       0.0388
     19  CG        13.6000  -36.6720    6.1700 C.3    12  GLU12       0.1160
     20  CD        14.3920  -36.8470    4.8840 C.2    12  GLU12       0.3649
     21  OE1       13.9750  -36.2820    3.8490 O.co2  12  GLU12      -0.2457
     22  OE2       15.4180  -37.5620    4.9080 O.co2  12  GLU12      -0.2457
     23  N         12.0400  -37.5180   -3.4220 N.3    51  ILE51      -0.1245
     24  CA        13.3750  -38.1000   -3.4130 C.3    51  ILE51       0.1561
     25  C         14.1460  -37.8920   -4.7140 C.2    51  ILE51       0.2260
     26  O         13.5830  -37.9530   -5.7930 O.2    51  ILE51      -0.2867
     27  CB        13.2690  -39.5990   -3.0960 C.3    51  ILE51       0.0252
     28  CG1       12.8930  -39.7700   -1.6250 C.3    51  ILE51       0.0019
     29  CG2       14.5660  -40.3340   -3.4100 C.3    51  ILE51       0.0019
     30  CD1       12.5710  -41.2010   -1.2310 C.3    51  ILE51       0.0001
     31  N         17.8510  -37.6240    6.5410 N.3    77  VAL77      -0.1231
     32  CA        18.5940  -38.8050    6.9850 C.3    77  VAL77       0.1692
     33  C         19.5210  -39.3240    5.9000 C.2    77  VAL77       0.2592
     34  O         19.3740  -38.9770    4.7330 O.2    77  VAL77      -0.2718
     35  CB        17.6530  -39.9200    7.4930 C.3    77  VAL77       0.0266
     36  CG1       16.6630  -39.3260    8.4980 C.3    77  VAL77       0.0020
     37  CG2       16.9060  -40.5840    6.3270 C.3    77  VAL77       0.0020
     38  N         20.4880  -40.1440    6.2880 N.am   78  ALA78      -0.1966
     39  CA        21.4760  -40.6250    5.3240 C.3    78  ALA78       0.1728
     40  C         22.0630  -41.9510    5.7700 C.2    78  ALA78       0.2616
     41  O         21.8750  -42.3630    6.9180 O.2    78  ALA78      -0.2715
     42  CB        22.5890  -39.5930    5.1460 C.3    78  ALA78       0.0334
     43  N         22.7840  -42.6050    4.8650 N.am   79  GLY79      -0.1955
     44  CA        23.4540  -43.8580    5.1770 C.3    79  GLY79       0.1869
     45  C         24.9110  -43.6320    5.5310 C.2    79  GLY79       0.2309
     46  O         25.6060  -42.8720    4.8620 O.2    79  GLY79      -0.2863
     47  N         19.3710  -45.6980   -4.0230 N.3   152  PHE152     -0.1241
     48  CA        19.5240  -45.8970   -2.5890 C.3   152  PHE152      0.1605
     49  C         20.5360  -47.0150   -2.3820 C.2   152  PHE152      0.2264
     50  O         20.3070  -48.1690   -2.7630 O.2   152  PHE152     -0.2867
     51  CB        18.1900  -46.2260   -1.9160 C.3   152  PHE152      0.0534
     52  CG        18.2640  -46.2420   -0.4190 C.ar  152  PHE152     -0.0203
     53  CD1       17.9540  -45.1030    0.3130 C.ar  152  PHE152     -0.0042
     54  CD2       18.6640  -47.3820    0.2530 C.ar  152  PHE152     -0.0042
     55  CE1       18.0260  -45.1070    1.7040 C.ar  152  PHE152     -0.0003
     56  CE2       18.7380  -47.3940    1.6500 C.ar  152  PHE152     -0.0003
     57  CZ        18.4210  -46.2460    2.3700 C.ar  152  PHE152     -0.0000
     58  N         26.0570  -41.2720    2.5800 N.3   171  VAL171     -0.1231
     59  CA        25.4540  -41.2910    1.2470 C.3   171  VAL171      0.1692
     60  C         23.9490  -41.0350    1.3200 C.2   171  VAL171      0.2592
     61  O         23.2810  -41.4820    2.2490 O.2   171  VAL171     -0.2718
     62  CB        25.7710  -42.6170    0.4980 C.3   171  VAL171      0.0266
     63  CG1       25.2500  -43.8330    1.2700 C.3   171  VAL171      0.0020
     64  CG2       25.2160  -42.5800   -0.9160 C.3   171  VAL171      0.0020
     65  N         23.4330  -40.2900    0.3470 N.am  172  GLU172     -0.1966
     66  CA        22.0130  -39.9870    0.2790 C.3   172  GLU172      0.1733
     67  C         21.6580  -39.5760   -1.1450 C.2   172  GLU172      0.2616
     68  O         22.4170  -39.8670   -2.0790 O.2   172  GLU172     -0.2715
     69  CB        21.5810  -38.9560    1.3530 C.3   172  GLU172      0.0429
     70  CG        22.6090  -37.8940    1.7200 C.3   172  GLU172      0.1163
     71  CD        22.5790  -36.6860    0.7990 C.2   172  GLU172      0.3649
     72  OE1       22.5300  -36.8820   -0.4330 O.co2 172  GLU172     -0.2457
     73  OE2       22.6110  -35.5290    1.3110 O.co2 172  GLU172     -0.2457
     74  N         20.5050  -38.9450   -1.3390 N.am  173  MET173     -0.1963
     75  CA        20.0080  -38.7970   -2.7070 C.3   173  MET173      0.1736
     76  C         19.6660  -37.3650   -3.1390 C.2   173  MET173      0.2616
     77  O         19.1450  -37.1770   -4.2360 O.2   173  MET173     -0.2715
     78  CB        18.8010  -39.7270   -2.9300 C.3   173  MET173      0.0427
     79  CG        19.0810  -41.1690   -2.5020 C.3   173  MET173      0.0599
     80  SD        17.7190  -42.3410   -2.7720 S.3   173  MET173     -0.1393
     81  CE        17.6620  -42.3760   -4.5600 C.3   173  MET173      0.0692
     82  N         19.9860  -36.3600   -2.3150 N.am  174  GLU174     -0.1977
     83  CA        19.6020  -34.9800   -2.6440 C.3   174  GLU174      0.1602
     84  C         20.6440  -33.9150   -2.3100 C.2   174  GLU174      0.2287
     85  O         20.5790  -32.8130   -2.8380 O.2   174  GLU174     -0.2864
     86  CB        18.3150  -34.5730   -1.9100 C.3   174  GLU174      0.0415
     87  CG        17.0960  -35.4110   -2.2700 C.3   174  GLU174      0.1163
     88  CD        17.0310  -36.6940   -1.4650 C.2   174  GLU174      0.3649
     89  OE1       17.6490  -36.7560   -0.3770 O.co2 174  GLU174     -0.2457
     90  OE2       16.3700  -37.6440   -1.9210 O.co2 174  GLU174     -0.2457
     91  N         22.6010  -34.1020    8.0260 N.3   193  ARG193     -0.1245
     92  CA        21.9820  -35.4300    7.9610 C.3   193  ARG193      0.1563
     93  C         22.1960  -36.2040    9.2580 C.2   193  ARG193      0.2260
     94  O         23.2450  -36.0940    9.8840 O.2   193  ARG193     -0.2867
     95  CB        22.5520  -36.2660    6.8050 C.3   193  ARG193      0.0307
     96  CG        22.3040  -35.7100    5.3950 C.3   193  ARG193      0.0489
     97  CD        20.8540  -35.8330    4.9340 C.3   193  ARG193      0.2205
     98  NE        20.7450  -35.6050    3.4830 N.pl3 193  ARG193     -0.0865
     99  CZ        19.7290  -36.0070    2.7140 C.cat 193  ARG193      0.5346
    100  NH1       18.7000  -36.6590    3.2380 N.pl3 193  ARG193      0.1354
    101  NH2       19.7370  -35.7470    1.4080 N.pl3 193  ARG193      0.1354
    102  N         20.5160  -43.0540    9.3700 N.3   196  SER196     -0.1202
    103  CA        19.3680  -43.9440    9.5170 C.3   196  SER196      0.2020
    104  C         19.7250  -45.4040    9.2220 C.2   196  SER196      0.2618
    105  O         18.9620  -46.3110    9.5550 O.2   196  SER196     -0.2717
    106  CB        18.2400  -43.5100    8.5770 C.3   196  SER196      0.2103
    107  OG        18.7050  -43.4620    7.2330 O.3   196  SER196     -0.2182
    108  N         20.8820  -45.6210    8.6030 N.am  197  ASP197     -0.1973
    109  CA        21.2650  -46.9540    8.1330 C.3   197  ASP197      0.1709
    110  C         22.7300  -46.9800    7.7630 C.2   197  ASP197      0.2293
    111  O         23.3840  -45.9410    7.7480 O.2   197  ASP197     -0.2864
    112  CB        20.4280  -47.3590    6.9100 C.3   197  ASP197      0.1436
    113  CG        20.6360  -46.4250    5.7220 C.2   197  ASP197      0.3671
    114  OD1       21.5510  -46.6760    4.9000 O.co2 197  ASP197     -0.2456
    115  OD2       19.8800  -45.4340    5.6130 O.co2 197  ASP197     -0.2456
    116  N         16.5860  -48.2370    7.7010 N.3   207  PHE207     -0.1241
    117  CA        15.9180  -46.9980    7.3480 C.3   207  PHE207      0.1605
    118  C         14.4710  -46.9980    7.8400 C.2   207  PHE207      0.2264
    119  O         14.0060  -46.0270    8.4220 O.2   207  PHE207     -0.2867
    120  CB        15.9860  -46.7950    5.8250 C.3   207  PHE207      0.0534
    121  CG        15.2720  -45.5630    5.3240 C.ar  207  PHE207     -0.0203
    122  CD1       15.9790  -44.4040    5.0450 C.ar  207  PHE207     -0.0042
    123  CD2       13.9050  -45.5810    5.0890 C.ar  207  PHE207     -0.0042
    124  CE1       15.3300  -43.2740    4.5540 C.ar  207  PHE207     -0.0003
    125  CE2       13.2520  -44.4500    4.6000 C.ar  207  PHE207     -0.0003
    126  CZ        13.9670  -43.3040    4.3300 C.ar  207  PHE207     -0.0000
@<TRIPOS>BOND
     1    26    25    2
     2    25    24    1
     3    81    80    1
     4    77    76    2
     5    47    48    1
     6    23    24    1
     7    24    27    1
     8    29    27    1
     9    76    75    1
    10    76    82   am
    11    27    28    1
    12    78    75    1
    13    78    79    1
    14    85    84    2
    15    80    79    1
    16    50    49    2
    17    75    74    1
    18    83    82    1
    19    83    84    1
    20    83    86    1
    21    48    49    1
    22    48    51    1
    23    87    86    1
    24    87    88    1
    25    68    67    2
    26    90    88   ar
    27    51    52    1
    28    28    30    1
    29    88    89   ar
    30    74    67   am
    31    67    66    1
    32    64    62    1
    33    72    71   ar
    34    52    54   ar
    35    52    53   ar
    36     4     3    2
    37    54    56   ar
    38    66    65    1
    39    66    69    1
    40    53    55   ar
    41    65    60   am
    42    62    59    1
    43    62    63    1
    44     5     2    1
    45    71    73   ar
    46    71    70    1
    47     2     3    1
    48     2     1    1
    49     3     6   am
    50    59    60    1
    51    59    58    1
    52    60    61    2
    53    69    70    1
    54   101    99    1
    55    56    57   ar
    56    55    57   ar
    57    11    12    1
    58    11    10    1
    59     6     7    1
    60     7    10    1
    61     7     8    1
    62    99   100    1
    63    99    98    2
    64    12    13    1
    65     8     9    2
    66    98    97    1
    67    21    20   ar
    68   126   124   ar
    69   126   125   ar
    70   124   122   ar
    71   125   123   ar
    72    34    33    2
    73    46    45    2
    74    43    44    1
    75    43    40   am
    76    20    22   ar
    77    20    19    1
    78   114   113   ar
    79    97    96    1
    80   122   121   ar
    81   123   121   ar
    82    42    39    1
    83    44    45    1
    84   121   120    1
    85    39    40    1
    86    39    38    1
    87    96    95    1
    88   115   113   ar
    89   113   112    1
    90    40    41    2
    91   120   117    1
    92    33    38   am
    93    33    32    1
    94    19    18    1
    95    18    15    1
    96    37    35    1
    97    31    32    1
    98    95    92    1
    99   112   109    1
   100    32    35    1
   101    14    15    1
   102   107   106    1
   103   117   116    1
   104   117   118    1
   105    15    16    1
   106    35    36    1
   107    16    17    2
   108   111   110    2
   109   110   109    1
   110   118   119    2
   111    92    91    1
   112    92    93    1
   113   109   108    1
   114   106   103    1
   115   108   104   am
   116   104   103    1
   117   104   105    2
   118    93    94    2
   119   102   103    1
