@<TRIPOS>MOLECULE
tmp/3nm5B00.pdb
 147 139 0 0 0
SMALL
GASTEIGER

@<TRIPOS>ATOM
      1  N         18.8410   41.3810   46.8820 N.3     8  ALA8       -0.1231
      2  CA        17.9910   41.0790   45.7310 C.3     8  ALA8        0.1694
      3  C         16.6170   41.7140   45.8800 C.2     8  ALA8        0.2591
      4  O         15.9690   42.0460   44.8920 O.2     8  ALA8       -0.2718
      5  CB        17.8480   39.5610   45.5580 C.3     8  ALA8        0.0304
      6  N         16.1820   41.8660   47.1250 N.am    9  MET9       -0.1979
      7  CA        14.8260   42.3020   47.4290 C.3     9  MET9        0.1605
      8  C         14.8210   43.5190   48.3460 C.2     9  MET9        0.2287
      9  O         15.7880   43.7800   49.0630 O.2     9  MET9       -0.2864
     10  CB        14.0540   41.1540   48.0970 C.3     9  MET9        0.0413
     11  CG        13.9620   39.9060   47.2240 C.3     9  MET9        0.0598
     12  SD        13.1100   38.5160   48.0000 S.3     9  MET9       -0.1393
     13  CE        11.4220   39.1100   47.9980 C.3     9  MET9        0.0692
     14  N         15.5880   42.9720   51.9620 N.3    12  GLU12      -0.1245
     15  CA        16.9750   42.6710   52.2830 C.3    12  GLU12       0.1567
     16  C         17.8140   43.9250   52.4780 C.2    12  GLU12       0.2260
     17  O         18.8430   43.8780   53.1580 O.2    12  GLU12      -0.2867
     18  CB        17.5660   41.7360   51.2130 C.3    12  GLU12       0.0388
     19  CG        16.9420   40.3330   51.3080 C.3    12  GLU12       0.1160
     20  CD        17.2040   39.4490   50.1040 C.2    12  GLU12       0.3649
     21  OE1       17.5550   39.9780   49.0310 O.co2  12  GLU12      -0.2457
     22  OE2       17.0570   38.2130   50.2400 O.co2  12  GLU12      -0.2457
     23  N         14.9440   40.1910   41.6300 N.3    51  ILE51      -0.1245
     24  CA        15.3180   38.7830   41.7430 C.3    51  ILE51       0.1561
     25  C         15.9640   38.2330   40.4750 C.2    51  ILE51       0.2260
     26  O         15.5590   38.5730   39.3710 O.2    51  ILE51      -0.2867
     27  CB        14.0820   37.9420   42.1180 C.3    51  ILE51       0.0252
     28  CG1       13.6890   38.2270   43.5800 C.3    51  ILE51       0.0019
     29  CG2       14.3350   36.4480   41.9170 C.3    51  ILE51       0.0019
     30  CD1       12.3470   37.6630   43.9870 C.3    51  ILE51       0.0001
     31  N         18.8980   36.0640   51.4700 N.3    77  VAL77      -0.1231
     32  CA        18.5160   34.7810   52.0430 C.3    77  VAL77       0.1692
     33  C         18.7450   33.6430   51.0400 C.2    77  VAL77       0.2592
     34  O         19.0020   33.8780   49.8540 O.2    77  VAL77      -0.2718
     35  CB        17.0530   34.8020   52.5400 C.3    77  VAL77       0.0266
     36  CG1       16.8350   35.9770   53.4990 C.3    77  VAL77       0.0020
     37  CG2       16.0840   34.8880   51.3700 C.3    77  VAL77       0.0020
     38  N         18.6760   32.4050   51.5140 N.am   78  ALA78      -0.1966
     39  CA        18.9220   31.2670   50.6360 C.3    78  ALA78       0.1728
     40  C         18.2740   30.0150   51.1940 C.2    78  ALA78       0.2616
     41  O         17.8670   29.9740   52.3610 O.2    78  ALA78      -0.2715
     42  CB        20.4210   31.0430   50.4480 C.3    78  ALA78       0.0334
     43  N         18.1730   29.0010   50.3440 N.am   79  GLY79      -0.1955
     44  CA        17.6560   27.7110   50.7560 C.3    79  GLY79       0.1869
     45  C         18.7990   26.8020   51.1520 C.2    79  GLY79       0.2309
     46  O         19.8310   26.7660   50.4880 O.2    79  GLY79      -0.2863
     47  N         15.6150   29.6800   39.0990 N.3   151  GLN151     -0.1231
     48  CA        14.4490   28.9860   39.6370 C.3   151  GLN151      0.1698
     49  C         14.5060   28.9860   41.1630 C.2   151  GLN151      0.2592
     50  O         15.5840   28.8650   41.7530 O.2   151  GLN151     -0.2718
     51  CB        14.3930   27.5370   39.1290 C.3   151  GLN151      0.0381
     52  CG        14.6410   27.3710   37.6130 C.3   151  GLN151      0.0905
     53  CD        16.1140   27.4730   37.2410 C.2   151  GLN151      0.2608
     54  OE1       16.9810   26.9290   37.9280 O.2   151  GLN151     -0.2717
     55  NE2       16.4010   28.1640   36.1360 N.am  151  GLN151     -0.0878
     56  N         13.3470   29.1520   41.7950 N.am  152  PHE152     -0.1962
     57  CA        13.2300   28.9270   43.2230 C.3   152  PHE152      0.1771
     58  C         13.1110   27.4250   43.4330 C.2   152  PHE152      0.2619
     59  O         12.1750   26.7900   42.9530 O.2   152  PHE152     -0.2715
     60  CB        12.0080   29.6500   43.7910 C.3   152  PHE152      0.0574
     61  CG        11.9040   29.5660   45.2860 C.ar  152  PHE152     -0.0200
     62  CD1       12.4890   30.5270   46.0870 C.ar  152  PHE152     -0.0042
     63  CD2       11.2300   28.5160   45.8850 C.ar  152  PHE152     -0.0042
     64  CE1       12.3930   30.4510   47.4720 C.ar  152  PHE152     -0.0003
     65  CE2       11.1280   28.4300   47.2650 C.ar  152  PHE152     -0.0003
     66  CZ        11.7130   29.3960   48.0560 C.ar  152  PHE152     -0.0000
     67  N         14.0750   26.8550   44.1410 N.am  153  VAL153     -0.1977
     68  CA        14.1550   25.4070   44.2670 C.3   153  VAL153      0.1596
     69  C         13.2380   24.9190   45.3830 C.2   153  VAL153      0.2287
     70  O         13.3030   25.4110   46.4960 O.2   153  VAL153     -0.2864
     71  CB        15.6120   24.9600   44.4960 C.3   153  VAL153      0.0276
     72  CG1       15.6820   23.4530   44.7510 C.3   153  VAL153      0.0022
     73  CG2       16.4540   25.3480   43.2840 C.3   153  VAL153      0.0022
     74  N         21.2980   27.2700   47.9990 N.3   171  VAL171     -0.1231
     75  CA        20.8600   27.6400   46.6640 C.3   171  VAL171      0.1692
     76  C         20.1220   28.9700   46.7310 C.2   171  VAL171      0.2592
     77  O         19.4010   29.2470   47.6890 O.2   171  VAL171     -0.2718
     78  CB        19.9680   26.5470   46.0350 C.3   171  VAL171      0.0266
     79  CG1       18.7130   26.3040   46.8810 C.3   171  VAL171      0.0020
     80  CG2       19.5940   26.9240   44.5890 C.3   171  VAL171      0.0020
     81  N         20.3420   29.8030   45.7220 N.am  172  GLU172     -0.1966
     82  CA        19.6700   31.0900   45.6320 C.3   172  GLU172      0.1733
     83  C         19.6760   31.5340   44.1750 C.2   172  GLU172      0.2616
     84  O         19.8980   30.7120   43.2850 O.2   172  GLU172     -0.2715
     85  CB        20.2970   32.1340   46.5750 C.3   172  GLU172      0.0429
     86  CG        21.7770   31.9570   46.8610 C.3   172  GLU172      0.1163
     87  CD        22.6530   32.7450   45.9010 C.2   172  GLU172      0.3649
     88  OE1       22.4060   32.6740   44.6840 O.co2 172  GLU172     -0.2457
     89  OE2       23.5980   33.4240   46.3650 O.co2 172  GLU172     -0.2457
     90  N         19.4060   32.8090   43.9230 N.am  173  MET173     -0.1963
     91  CA        19.1560   33.2390   42.5540 C.3   173  MET173      0.1736
     92  C         19.9950   34.4300   42.0890 C.2   173  MET173      0.2616
     93  O         19.7550   34.9580   40.9940 O.2   173  MET173     -0.2715
     94  CB        17.6530   33.5360   42.3660 C.3   173  MET173      0.0427
     95  CG        16.7650   32.3190   42.6350 C.3   173  MET173      0.0599
     96  SD        14.9920   32.6430   42.5570 S.3   173  MET173     -0.1393
     97  CE        14.7940   33.0090   40.8270 C.3   173  MET173      0.0692
     98  N         20.9960   34.8340   42.8720 N.am  174  GLU174     -0.1977
     99  CA        21.7970   36.0060   42.4820 C.3   174  GLU174      0.1602
    100  C         23.2820   35.8890   42.7450 C.2   174  GLU174      0.2287
    101  O         24.0680   36.5970   42.1320 O.2   174  GLU174     -0.2864
    102  CB        21.3250   37.2760   43.1970 C.3   174  GLU174      0.0415
    103  CG        19.9010   37.6880   42.9250 C.3   174  GLU174      0.1163
    104  CD        18.9230   37.0020   43.8470 C.2   174  GLU174      0.3649
    105  OE1       19.3450   36.5480   44.9320 O.co2 174  GLU174     -0.2457
    106  OE2       17.7330   36.9150   43.4920 O.co2 174  GLU174     -0.2457
    107  N         24.6250   34.8630   52.9770 N.3   193  ARG193     -0.1245
    108  CA        23.2120   34.5020   52.9760 C.3   193  ARG193      0.1563
    109  C         22.8010   33.9790   54.3470 C.2   193  ARG193      0.2260
    110  O         23.5830   33.3100   55.0340 O.2   193  ARG193     -0.2867
    111  CB        22.9190   33.4280   51.9260 C.3   193  ARG193      0.0307
    112  CG        23.2290   33.8330   50.4830 C.3   193  ARG193      0.0489
    113  CD        22.1140   34.6910   49.9060 C.3   193  ARG193      0.2205
    114  NE        22.2710   34.9040   48.4610 N.pl3 193  ARG193     -0.0865
    115  CZ        21.3370   35.4490   47.6840 C.cat 193  ARG193      0.5346
    116  NH1       20.1700   35.8220   48.2010 N.pl3 193  ARG193      0.1354
    117  NH2       21.5630   35.6160   46.3840 N.pl3 193  ARG193      0.1354
    118  N         16.5900   30.7950   54.8010 N.3   196  SER196     -0.1202
    119  CA        15.1690   31.0990   54.9710 C.3   196  SER196      0.2020
    120  C         14.2820   29.8660   54.8020 C.2   196  SER196      0.2618
    121  O         13.1080   29.8920   55.1740 O.2   196  SER196     -0.2717
    122  CB        14.7280   32.1530   53.9560 C.3   196  SER196      0.2103
    123  OG        15.0750   31.7350   52.6410 O.3   196  SER196     -0.2182
    124  N         14.8330   28.7940   54.2400 N.am  197  ASP197     -0.1973
    125  CA        14.0340   27.6180   53.8810 C.3   197  ASP197      0.1709
    126  C         14.9360   26.4330   53.5560 C.2   197  ASP197      0.2293
    127  O         16.1470   26.5890   53.4650 O.2   197  ASP197     -0.2864
    128  CB        13.1350   27.9140   52.6730 C.3   197  ASP197      0.1436
    129  CG        13.9310   28.3110   51.4320 C.2   197  ASP197      0.3671
    130  OD1       14.3300   27.4070   50.6670 O.co2 197  ASP197     -0.2456
    131  OD2       14.1440   29.5280   51.2320 O.co2 197  ASP197     -0.2456
    132  N         14.5710   24.5070   50.7430 N.3   199  ALA199     -0.1245
    133  CA        14.5820   24.2630   49.2960 C.3   199  ALA199      0.1562
    134  C         13.8080   23.0060   48.9180 C.2   199  ALA199      0.2260
    135  O         14.1020   22.3610   47.9060 O.2   199  ALA199     -0.2867
    136  CB        16.0160   24.1810   48.7730 C.3   199  ALA199      0.0290
    137  N         10.0730   30.2680   53.2910 N.3   207  PHE207     -0.1241
    138  CA        10.5190   31.5700   52.8130 C.3   207  PHE207      0.1605
    139  C          9.5640   32.6870   53.2400 C.2   207  PHE207      0.2264
    140  O          9.9950   33.7100   53.7670 O.2   207  PHE207     -0.2867
    141  CB        10.6660   31.5440   51.2850 C.3   207  PHE207      0.0534
    142  CG        11.0710   32.8590   50.6830 C.ar  207  PHE207     -0.0203
    143  CD1       12.3990   33.1260   50.3960 C.ar  207  PHE207     -0.0042
    144  CD2       10.1200   33.8210   50.3800 C.ar  207  PHE207     -0.0042
    145  CE1       12.7670   34.3440   49.8280 C.ar  207  PHE207     -0.0003
    146  CE2       10.4840   35.0310   49.8220 C.ar  207  PHE207     -0.0003
    147  CZ        11.8050   35.2890   49.5380 C.ar  207  PHE207     -0.0000
@<TRIPOS>BOND
     1    55    53   am
     2    53    52    1
     3    53    54    2
     4    52    51    1
     5    47    48    1
     6    51    48    1
     7    26    25    2
     8    48    49    1
     9    25    24    1
    10    97    96    1
    11    93    92    2
    12    49    50    2
    13    49    56   am
    14    23    24    1
    15    24    27    1
    16    56    57    1
    17    29    27    1
    18    92    91    1
    19    92    98   am
    20    27    28    1
    21   101   100    2
    22    94    91    1
    23    94    95    1
    24    99   100    1
    25    99    98    1
    26    99   102    1
    27    91    90    1
    28    96    95    1
    29   103   102    1
    30   103   104    1
    31    59    58    2
    32    57    58    1
    33    57    60    1
    34    73    71    1
    35    84    83    2
    36    58    67   am
    37   106   104   ar
    38    28    30    1
    39    60    61    1
    40   104   105   ar
    41    90    83   am
    42    67    68    1
    43    83    82    1
    44    68    71    1
    45    68    69    1
    46    71    72    1
    47    80    78    1
    48    88    87   ar
    49     4     3    2
    50    61    63   ar
    51    61    62   ar
    52    69    70    2
    53     5     2    1
    54    82    81    1
    55    82    85    1
    56    81    76   am
    57     2     3    1
    58     2     1    1
    59     3     6   am
    60    63    65   ar
    61    87    89   ar
    62    87    86    1
    63    78    75    1
    64    78    79    1
    65    62    64   ar
    66   117   115    1
    67    85    86    1
    68    75    76    1
    69    75    74    1
    70    76    77    2
    71     6     7    1
    72    11    12    1
    73    11    10    1
    74    65    66   ar
    75     7    10    1
    76     7     8    1
    77    64    66   ar
    78   115   116    1
    79   115   114    2
    80   135   134    2
    81    13    12    1
    82     8     9    2
    83   114   113    1
    84   136   133    1
    85   134   133    1
    86    21    20   ar
    87   133   132    1
    88   147   146   ar
    89   147   145   ar
    90   146   144   ar
    91   145   143   ar
    92    34    33    2
    93   113   112    1
    94    20    22   ar
    95    20    19    1
    96    43    44    1
    97    43    40   am
    98   144   142   ar
    99   143   142   ar
   100    42    39    1
   101   112   111    1
   102    46    45    2
   103    39    40    1
   104    39    38    1
   105   130   129   ar
   106   142   141    1
   107    44    45    1
   108    33    38   am
   109    33    32    1
   110    40    41    2
   111    18    19    1
   112    18    15    1
   113   131   129   ar
   114   141   138    1
   115    37    35    1
   116   129   128    1
   117    31    32    1
   118   111   108    1
   119    14    15    1
   120    32    35    1
   121    15    16    1
   122    16    17    2
   123    35    36    1
   124   123   122    1
   125   128   125    1
   126   138   139    1
   127   138   137    1
   128   108   107    1
   129   108   109    1
   130   139   140    2
   131   127   126    2
   132   126   125    1
   133   125   124    1
   134   122   119    1
   135   124   120   am
   136   109   110    2
   137   118   119    1
   138   120   119    1
   139   120   121    2
