@<TRIPOS>MOLECULE
tmp/3nmaA00.pdb
 147 142 0 0 0
SMALL
GASTEIGER

@<TRIPOS>ATOM
      1  N         25.9330   36.1140   45.7670 N.3   107  GLY107     -0.1210
      2  CA        25.0400   35.1820   45.0810 C.3   107  GLY107      0.1956
      3  C         25.0820   35.2900   43.5650 C.2   107  GLY107      0.2612
      4  O         24.5720   34.4150   42.8640 O.2   107  GLY107     -0.2717
      5  N         25.6860   36.3650   43.0600 N.am  108  LEU108     -0.1965
      6  CA        25.7760   36.6060   41.6230 C.3   108  LEU108      0.1728
      7  C         27.1720   37.0890   41.2430 C.2   108  LEU108      0.2616
      8  O         27.6150   38.1430   41.7030 O.2   108  LEU108     -0.2715
      9  CB        24.7120   37.6240   41.1840 C.3   108  LEU108      0.0311
     10  CG        24.5340   37.9630   39.6960 C.3   108  LEU108      0.0022
     11  CD1       23.7420   36.8930   38.9530 C.3   108  LEU108      0.0001
     12  CD2       23.8580   39.3150   39.5380 C.3   108  LEU108      0.0001
     13  N         27.8560   36.3120   40.4020 N.am  109  ASP109     -0.1957
     14  CA        29.2030   36.6510   39.9270 C.3   109  ASP109      0.1840
     15  C         29.2180   37.9480   39.1270 C.2   109  ASP109      0.2621
     16  O         28.1960   38.3590   38.5740 O.2   109  ASP109     -0.2715
     17  CB        29.7770   35.5260   39.0600 C.3   109  ASP109      0.1450
     18  CG        29.9850   34.2290   39.8270 C.2   109  ASP109      0.3671
     19  OD1       30.1310   34.2690   41.0690 O.co2 109  ASP109     -0.2456
     20  OD2       30.0150   33.1610   39.1760 O.co2 109  ASP109     -0.2456
     21  N         30.3870   38.5810   39.0640 N.am  110  ALA110     -0.1977
     22  CA        30.5750   39.8060   38.2920 C.3   110  ALA110      0.1597
     23  C         30.3660   39.5570   36.8010 C.2   110  ALA110      0.2287
     24  O         30.4650   38.4180   36.3340 O.2   110  ALA110     -0.2864
     25  CB        31.9640   40.3750   38.5410 C.3   110  ALA110      0.0319
     26  N         22.4490   42.5220   28.6140 N.3   189  ILE189     -0.1245
     27  CA        22.8730   41.6140   29.6770 C.3   189  ILE189      0.1561
     28  C         22.9320   42.3580   31.0140 C.2   189  ILE189      0.2260
     29  O         22.4380   41.8600   32.0320 O.2   189  ILE189     -0.2867
     30  CB        24.2320   40.9340   29.3350 C.3   189  ILE189      0.0252
     31  CG1       24.0700   40.0140   28.1170 C.3   189  ILE189      0.0019
     32  CG2       24.7810   40.1520   30.5320 C.3   189  ILE189      0.0019
     33  CD1       25.3750   39.5620   27.4830 C.3   189  ILE189      0.0001
     34  N         20.2710   41.9090   34.2230 N.3   193  ARG193     -0.1245
     35  CA        20.8100   41.7370   35.5670 C.3   193  ARG193      0.1563
     36  C         20.2910   42.8150   36.5170 C.2   193  ARG193      0.2260
     37  O         19.9540   42.5210   37.6600 O.2   193  ARG193     -0.2867
     38  CB        22.3400   41.7310   35.5370 C.3   193  ARG193      0.0307
     39  CG        22.9420   40.4220   35.0340 C.3   193  ARG193      0.0489
     40  CD        24.4060   40.5870   34.6680 C.3   193  ARG193      0.2205
     41  NE        25.2290   40.8890   35.8350 N.pl3 193  ARG193     -0.0865
     42  CZ        25.9400   39.9920   36.5140 C.cat 193  ARG193      0.5346
     43  NH1       25.9460   38.7160   36.1490 N.pl3 193  ARG193      0.1354
     44  NH2       26.6510   40.3780   37.5630 N.pl3 193  ARG193      0.1354
     45  N         20.0450   31.1530   43.4300 N.3   204  HIS204     -0.1241
     46  CA        21.3000   30.4330   43.6190 C.3   204  HIS204      0.1621
     47  C         21.4820   30.0160   45.0810 C.2   204  HIS204      0.2264
     48  O         21.8230   28.8660   45.3590 O.2   204  HIS204     -0.2867
     49  CB        22.4960   31.2610   43.1380 C.3   204  HIS204      0.0745
     50  CG        22.4510   31.6050   41.6800 C.ar  204  HIS204      0.0817
     51  ND1       22.8680   32.8250   41.1900 N.ar  204  HIS204     -0.2268
     52  CD2       22.0330   30.8930   40.6060 C.ar  204  HIS204      0.1154
     53  CE1       22.7120   32.8490   39.8790 C.ar  204  HIS204      0.1986
     54  NE2       22.2080   31.6890   39.4990 N.ar  204  HIS204     -0.2212
     55  N         20.2920   25.4520   39.9440 N.3   215  VAL215     -0.1231
     56  CA        21.1450   26.5430   39.4780 C.3   215  VAL215      0.1692
     57  C         21.8190   27.2100   40.6750 C.2   215  VAL215      0.2593
     58  O         21.1530   27.6820   41.5960 O.2   215  VAL215     -0.2718
     59  CB        20.3780   27.5720   38.6210 C.3   215  VAL215      0.0266
     60  CG1       21.3430   28.5670   38.0050 C.3   215  VAL215      0.0020
     61  CG2       19.5870   26.8690   37.5280 C.3   215  VAL215      0.0020
     62  N         23.1470   27.2210   40.6550 N.am  216  GLY216     -0.1942
     63  CA        23.9370   27.7470   41.7630 C.3   216  GLY216      0.2014
     64  C         24.4510   26.6790   42.7160 C.2   216  GLY216      0.2639
     65  O         25.0380   27.0020   43.7490 O.2   216  GLY216     -0.2714
     66  N         24.2380   25.4090   42.3730 N.am  217  CYS217     -0.1953
     67  CA        24.6610   24.3000   43.2320 C.3   217  CYS217      0.1843
     68  C         26.1200   23.8950   43.0060 C.2   217  CYS217      0.2625
     69  O         26.6850   24.1300   41.9360 O.2   217  CYS217     -0.2714
     70  CB        23.7390   23.0860   43.0520 C.3   217  CYS217      0.0997
     71  SG        24.1720   21.9760   41.6760 S.3   217  CYS217     -0.0797
     72  N         26.7210   23.2980   44.0320 N.am  218  ASN218     -0.1958
     73  CA        28.0270   22.6530   43.9160 C.3   218  ASN218      0.1804
     74  C         27.8440   21.1450   44.1140 C.2   218  ASN218      0.2463
     75  O         27.6580   20.6900   45.2440 O.2   218  ASN218     -0.2730
     76  CB        29.0120   23.2390   44.9370 C.3   218  ASN218      0.1195
     77  CG        30.4170   22.6310   44.8390 C.2   218  ASN218      0.2630
     78  OD1       31.1350   22.5690   45.8360 O.2   218  ASN218     -0.2716
     79  ND2       30.8120   22.1930   43.6410 N.am  218  ASN218     -0.0877
     80  N         27.8740   20.3690   43.0090 N.am  219  PRO219     -0.2727
     81  CA        27.5800   18.9320   43.0310 C.3   219  PRO219      0.1402
     82  C         28.3780   18.1550   44.0750 C.2   219  PRO219      0.2269
     83  O         27.8620   17.1970   44.6480 O.2   219  PRO219     -0.2865
     84  CB        27.9600   18.4800   41.6190 C.3   219  PRO219      0.0296
     85  CG        27.7420   19.6800   40.7900 C.3   219  PRO219      0.0237
     86  CD        28.1920   20.8280   41.6450 C.3   219  PRO219      0.0939
     87  N         21.5120   35.2450   27.1050 N.3   300  CYS300     -0.1221
     88  CA        20.9000   36.0460   28.1600 C.3   300  CYS300      0.1808
     89  C         21.5010   35.6410   29.5040 C.2   300  CYS300      0.2602
     90  O         21.7780   34.4620   29.7380 O.2   300  CYS300     -0.2717
     91  CB        19.3800   35.8720   28.1730 C.3   300  CYS300      0.0970
     92  SG        18.5430   36.8070   29.4820 S.3   300  CYS300     -0.0800
     93  N         21.7010   36.6240   30.3780 N.am  301  SER301     -0.1938
     94  CA        22.3610   36.4100   31.6710 C.3   301  SER301      0.2055
     95  C         21.5350   35.5640   32.6490 C.2   301  SER301      0.2643
     96  O         21.8930   35.4380   33.8250 O.2   301  SER301     -0.2714
     97  CB        22.7000   37.7570   32.3120 C.3   301  SER301      0.2130
     98  OG        21.5230   38.5120   32.5550 O.3   301  SER301     -0.2179
     99  N         20.4410   34.9850   32.1590 N.am  302  ALA302     -0.1963
    100  CA        19.5240   34.2300   33.0040 C.3   302  ALA302      0.1728
    101  C         18.8560   33.0670   32.2700 C.2   302  ALA302      0.2617
    102  O         17.7820   32.6190   32.6720 O.2   302  ALA302     -0.2715
    103  CB        18.4680   35.1670   33.6010 C.3   302  ALA302      0.0334
    104  N         19.4950   32.5740   31.2090 N.am  303  THR303     -0.1937
    105  CA        18.9210   31.4860   30.4130 C.3   303  THR303      0.2028
    106  C         18.6890   30.2290   31.2440 C.2   303  THR303      0.2643
    107  O         17.6280   29.6110   31.1440 O.2   303  THR303     -0.2714
    108  CB        19.7640   31.1330   29.1560 C.3   303  THR303      0.1808
    109  OG1       21.0760   30.7090   29.5470 O.3   303  THR303     -0.2208
    110  CG2       19.8770   32.3240   28.2320 C.3   303  THR303      0.0379
    111  N         19.6760   29.8650   32.0630 N.am  304  SER304     -0.1935
    112  CA        19.5790   28.6880   32.9270 C.3   304  SER304      0.2055
    113  C         18.3810   28.7860   33.8660 C.2   304  SER304      0.2642
    114  O         17.5970   27.8410   33.9780 O.2   304  SER304     -0.2714
    115  CB        20.8650   28.4970   33.7330 C.3   304  SER304      0.2130
    116  OG        21.9480   28.1780   32.8800 O.3   304  SER304     -0.2179
    117  N         18.2490   29.9420   34.5190 N.am  305  ILE305     -0.1977
    118  CA        17.1620   30.2120   35.4600 C.3   305  ILE305      0.1596
    119  C         15.7990   30.2380   34.7700 C.2   305  ILE305      0.2287
    120  O         14.8520   29.6210   35.2600 O.2   305  ILE305     -0.2864
    121  CB        17.4270   31.5090   36.2740 C.3   305  ILE305      0.0276
    122  CG1       18.4320   31.2130   37.3900 C.3   305  ILE305      0.0022
    123  CG2       16.1360   32.0740   36.8670 C.3   305  ILE305      0.0022
    124  CD1       19.2210   32.4090   37.8530 C.3   305  ILE305      0.0001
    125  N         17.9310   21.8540   36.1480 N.3   336  TYR336     -0.1241
    126  CA        18.9930   22.7660   35.7360 C.3   336  TYR336      0.1605
    127  C         18.8660   22.9580   34.2300 C.2   336  TYR336      0.2264
    128  O         19.3590   22.1430   33.4440 O.2   336  TYR336     -0.2867
    129  CB        20.3740   22.2070   36.0900 C.3   336  TYR336      0.0534
    130  CG        21.4840   23.2440   36.0990 C.ar  336  TYR336     -0.0201
    131  CD1       22.1630   23.5520   37.2780 C.ar  336  TYR336     -0.0009
    132  CD2       21.8540   23.9200   34.9320 C.ar  336  TYR336     -0.0009
    133  CE1       23.1800   24.4980   37.2960 C.ar  336  TYR336      0.0417
    134  CE2       22.8680   24.8760   34.9420 C.ar  336  TYR336      0.0417
    135  CZ        23.5260   25.1580   36.1260 C.ar  336  TYR336      0.1957
    136  OH        24.5340   26.0980   36.1460 O.3   336  TYR336     -0.2866
    137  N         26.1290   13.4560   35.8810 N.3   388  ARG388     -0.1245
    138  CA        26.6570   12.7840   37.0700 C.3   388  ARG388      0.1563
    139  C         25.6660   11.7620   37.6240 C.2   388  ARG388      0.2260
    140  O         24.4660   12.0390   37.7250 O.2   388  ARG388     -0.2867
    141  CB        26.9730   13.8020   38.1670 C.3   388  ARG388      0.0307
    142  CG        28.0700   14.8010   37.8430 C.3   388  ARG388      0.0489
    143  CD        27.8970   16.0430   38.6930 C.3   388  ARG388      0.2205
    144  NE        29.0540   16.9310   38.6560 N.pl3 388  ARG388     -0.0865
    145  CZ        29.2470   17.8880   37.7500 C.cat 388  ARG388      0.5346
    146  NH1       28.3660   18.0940   36.7730 N.pl3 388  ARG388      0.1354
    147  NH2       30.3320   18.6430   37.8190 N.pl3 388  ARG388      0.1354
@<TRIPOS>BOND
     1    87    88    1
     2    33    31    1
     3    31    30    1
     4    88    91    1
     5    88    89    1
     6    91    92    1
     7   110   108    1
     8    26    27    1
     9   108   109    1
    10   108   105    1
    11    30    27    1
    12    30    32    1
    13    89    90    2
    14    89    93   am
    15    27    28    1
    16    93    94    1
    17   105   104    1
    18   105   106    1
    19    28    29    2
    20   107   106    2
    21   104   101   am
    22   106   111   am
    23    94    97    1
    24    94    95    1
    25   111   112    1
    26    99    95   am
    27    99   100    1
    28   101   102    2
    29   101   100    1
    30    97    98    1
    31    95    96    2
    32   116   115    1
    33   112   115    1
    34   112   113    1
    35   100   103    1
    36   128   127    2
    37   113   114    2
    38   113   117   am
    39    34    35    1
    40   127   126    1
    41   117   118    1
    42    40    39    1
    43    40    41    1
    44   119   120    2
    45   119   118    1
    46   132   134   ar
    47   132   130   ar
    48   134   135   ar
    49    39    38    1
    50   118   121    1
    51    38    35    1
    52    35    36    1
    53   126   129    1
    54   126   125    1
    55    41    42    2
    56   137   138    1
    57   129   130    1
    58   130   131   ar
    59   135   136    1
    60   135   133   ar
    61    43    42    1
    62   121   123    1
    63   121   122    1
    64    24    23    2
    65    42    44    1
    66    36    37    2
    67   146   145    1
    68    23    22    1
    69   138   139    1
    70   138   141    1
    71   131   133   ar
    72   122   124    1
    73    61    59    1
    74   139   140    2
    75   145   147    1
    76   145   144    2
    77   142   141    1
    78   142   143    1
    79    60    59    1
    80    22    25    1
    81    22    21    1
    82    16    15    2
    83    59    56    1
    84   144   143    1
    85    11    10    1
    86    17    18    1
    87    17    14    1
    88    21    15   am
    89    15    14    1
    90    20    18   ar
    91    56    55    1
    92    56    57    1
    93    54    53   ar
    94    54    52   ar
    95    12    10    1
    96    10     9    1
    97    18    19   ar
    98    53    51   ar
    99    14    13    1
   100    13     7   am
   101    52    50   ar
   102    62    57   am
   103    62    63    1
   104    57    58    2
   105    85    84    1
   106    85    86    1
   107     9     6    1
   108    51    50   ar
   109     7     6    1
   110     7     8    2
   111    84    81    1
   112     6     5    1
   113    86    80    1
   114    71    70    1
   115    50    49    1
   116    63    64    1
   117    69    68    2
   118    66    64   am
   119    66    67    1
   120    64    65    2
   121     4     3    2
   122    68    67    1
   123    68    72   am
   124    80    81    1
   125    80    74   am
   126    81    82    1
   127    70    67    1
   128     5     3   am
   129    49    46    1
   130    45    46    1
   131     3     2    1
   132    46    47    1
   133    79    77   am
   134    73    72    1
   135    73    74    1
   136    73    76    1
   137    82    83    2
   138    74    75    2
   139    77    76    1
   140    77    78    2
   141    47    48    2
   142     2     1    1
