@<TRIPOS>MOLECULE
tmp/3nmjA00.pdb
 174 167 0 0 0
SMALL
GASTEIGER

@<TRIPOS>ATOM
      1  N         15.7720  -29.1710   14.7910 N.3     3  LEU3       -0.1231
      2  CA        15.6820  -29.6520   13.4150 C.3     3  LEU3        0.1693
      3  C         15.3380  -28.5730   12.3780 C.2     3  LEU3        0.2591
      4  O         15.9430  -28.5150   11.3100 O.2     3  LEU3       -0.2718
      5  CB        14.6870  -30.8030   13.3220 C.3     3  LEU3        0.0284
      6  CG        14.7740  -31.6110   12.0320 C.3     3  LEU3        0.0019
      7  CD1       16.1430  -32.2480   11.8860 C.3     3  LEU3        0.0001
      8  CD2       13.6890  -32.6670   12.0100 C.3     3  LEU3        0.0001
      9  N         14.3070  -27.7810   12.6500 N.am    4  GLU4       -0.1979
     10  CA        13.8670  -26.7520   11.7090 C.3     4  GLU4        0.1602
     11  C         14.9910  -25.7630   11.4150 C.2     4  GLU4        0.2287
     12  O         15.1930  -25.3480   10.2700 O.2     4  GLU4       -0.2864
     13  CB        12.6570  -26.0030   12.2710 C.3     4  GLU4        0.0415
     14  CG        11.3540  -26.7710   12.1940 C.3     4  GLU4        0.1163
     15  CD        10.1810  -25.9630   12.7050 C.2     4  GLU4        0.3649
     16  OE1       10.4120  -24.8350   13.1930 O.co2   4  GLU4       -0.2457
     17  OE2        9.0300  -26.4470   12.6100 O.co2   4  GLU4       -0.2457
     18  N         17.4280  -27.2500    9.1490 N.3     7  MET7       -0.1230
     19  CA        17.0060  -27.3120    7.7560 C.3     7  MET7        0.1702
     20  C         17.0330  -25.9340    7.1080 C.2     7  MET7        0.2592
     21  O         17.3700  -25.7990    5.9340 O.2     7  MET7       -0.2718
     22  CB        15.6160  -27.9250    7.6350 C.3     7  MET7        0.0401
     23  CG        15.5600  -29.3850    8.0170 C.3     7  MET7        0.0596
     24  SD        16.4720  -30.4320    6.8800 S.3     7  MET7       -0.1393
     25  CE        16.8630  -31.8110    7.9420 C.3     7  MET7        0.0692
     26  N         16.7310  -24.9020    7.8890 N.am    8  GLU8       -0.1979
     27  CA        16.9850  -23.5300    7.4550 C.3     8  GLU8        0.1602
     28  C         18.4460  -23.3180    7.0360 C.2     8  GLU8        0.2287
     29  O         18.7280  -23.0020    5.8790 O.2     8  GLU8       -0.2864
     30  CB        16.6010  -22.5430    8.5540 C.3     8  GLU8        0.0415
     31  CG        15.8700  -21.3210    8.0500 C.3     8  GLU8        0.1163
     32  CD        15.1860  -20.5740    9.1740 C.2     8  GLU8        0.3649
     33  OE1       13.9350  -20.6170    9.2500 O.co2   8  GLU8       -0.2457
     34  OE2       15.9090  -20.0710   10.0640 O.co2   8  GLU8       -0.2457
     35  N         20.7630  -25.4620    6.3120 N.3    10  LEU10      -0.1231
     36  CA        21.0220  -26.2700    5.1250 C.3    10  LEU10       0.1693
     37  C         20.5290  -25.5750    3.8710 C.2    10  LEU10       0.2592
     38  O         21.2480  -25.4790    2.8850 O.2    10  LEU10      -0.2718
     39  CB        20.3550  -27.6370    5.2480 C.3    10  LEU10       0.0284
     40  CG        21.1660  -28.7030    5.9870 C.3    10  LEU10       0.0019
     41  CD1       20.4720  -30.0440    5.9040 C.3    10  LEU10       0.0001
     42  CD2       22.5850  -28.8010    5.4360 C.3    10  LEU10       0.0001
     43  N         19.3100  -25.0560    3.9270 N.am   11  ASN11      -0.1974
     44  CA        18.6850  -24.4380    2.7650 C.3    11  ASN11       0.1688
     45  C         19.3670  -23.1340    2.3750 C.2    11  ASN11       0.2292
     46  O         19.6600  -22.9070    1.2000 O.2    11  ASN11      -0.2864
     47  CB        17.2000  -24.1880    3.0330 C.3    11  ASN11       0.1181
     48  CG        16.4380  -23.8110    1.7820 C.2    11  ASN11       0.2629
     49  OD1       16.3890  -24.5760    0.8160 O.2    11  ASN11      -0.2716
     50  ND2       15.8190  -22.6350    1.8010 N.am   11  ASN11      -0.0877
     51  N         22.8380  -23.6230    0.9200 N.3    14  LEU14      -0.1245
     52  CA        22.7570  -24.1850   -0.4210 C.3    14  LEU14       0.1561
     53  C         22.5180  -23.0890   -1.4620 C.2    14  LEU14       0.2260
     54  O         23.0510  -23.1470   -2.5720 O.2    14  LEU14      -0.2867
     55  CB        21.6700  -25.2560   -0.4980 C.3    14  LEU14       0.0270
     56  CG        21.7010  -26.0980   -1.7690 C.3    14  LEU14       0.0019
     57  CD1       22.8570  -27.0790   -1.7370 C.3    14  LEU14       0.0001
     58  CD2       20.3950  -26.8290   -1.9450 C.3    14  LEU14       0.0001
     59  N         26.8740  -26.1100    6.5940 N.3    33  MET33      -0.1245
     60  CA        25.9770  -27.2090    6.2600 C.3    33  MET33       0.1570
     61  C         26.3640  -28.5160    6.9750 C.2    33  MET33       0.2261
     62  O         25.5230  -29.1630    7.6140 O.2    33  MET33      -0.2867
     63  CB        25.9410  -27.4100    4.7410 C.3    33  MET33       0.0387
     64  CG        25.2270  -26.2990    3.9830 C.3    33  MET33       0.0595
     65  SD        25.2010  -26.5250    2.1840 S.3    33  MET33      -0.1393
     66  CE        23.9940  -27.8360    2.0140 C.3    33  MET33       0.0692
     67  N         12.7090  -36.7200   13.8630 N.3    45  PRO45      -0.2103
     68  CA        11.7320  -35.9920   13.0710 C.3    45  PRO45       0.1489
     69  C         10.3280  -36.2480   13.5890 C.2    45  PRO45       0.2417
     70  O         10.0410  -37.3530   14.0520 O.2    45  PRO45      -0.2734
     71  CB        11.8900  -36.6150   11.6860 C.3    45  PRO45       0.0282
     72  CG        12.3570  -37.9990   11.9590 C.3    45  PRO45       0.0208
     73  CD        13.2430  -37.8950   13.1550 C.3    45  PRO45       0.0893
     74  N          9.4300  -35.2620   13.4360 N.am   46  PRO46      -0.2729
     75  CA         8.0330  -35.4210   13.8170 C.3    46  PRO46       0.1401
     76  C          7.4600  -36.7560   13.3470 C.2    46  PRO46       0.2269
     77  O          6.9670  -37.5290   14.1630 O.2    46  PRO46      -0.2865
     78  CB         7.3440  -34.2610   13.0960 C.3    46  PRO46       0.0296
     79  CG         8.3780  -33.2240   13.0140 C.3    46  PRO46       0.0237
     80  CD         9.6730  -33.9600   12.7950 C.3    46  PRO46       0.0939
     81  N         16.4560  -42.6730    8.3200 N.3    61  PHE61      -0.1241
     82  CA        16.6080  -41.2450    8.5820 C.3    61  PHE61       0.1605
     83  C         18.0540  -40.8430    8.8220 C.2    61  PHE61       0.2264
     84  O         18.5620  -39.9330    8.1800 O.2    61  PHE61      -0.2867
     85  CB        15.7620  -40.8160    9.7790 C.3    61  PHE61       0.0534
     86  CG        15.7720  -39.3320   10.0300 C.ar   61  PHE61      -0.0203
     87  CD1       15.0640  -38.4670    9.2060 C.ar   61  PHE61      -0.0042
     88  CD2       16.4250  -38.8070   11.1290 C.ar   61  PHE61      -0.0042
     89  CE1       15.0130  -37.0980    9.4780 C.ar   61  PHE61      -0.0003
     90  CE2       16.3780  -37.4350   11.4050 C.ar   61  PHE61      -0.0003
     91  CZ        15.6830  -36.5830   10.5740 C.ar   61  PHE61      -0.0000
     92  N         20.3190  -41.2140    5.8780 N.3    64  GLY64      -0.1210
     93  CA        20.1820  -40.0360    5.0460 C.3    64  GLY64       0.1956
     94  C         21.3420  -39.0860    5.2610 C.2    64  GLY64       0.2611
     95  O         22.0920  -38.7870    4.3320 O.2    64  GLY64      -0.2717
     96  N         21.5090  -38.6260    6.4970 N.am   65  PHE65      -0.1976
     97  CA        22.4690  -37.5740    6.7780 C.3    65  PHE65       0.1639
     98  C         23.8970  -38.0860    6.6670 C.2    65  PHE65       0.2290
     99  O         24.8070  -37.3320    6.3220 O.2    65  PHE65      -0.2864
    100  CB        22.2320  -36.9900    8.1600 C.3    65  PHE65       0.0560
    101  CG        20.9690  -36.2100    8.2650 C.ar   65  PHE65      -0.0200
    102  CD1       19.8780  -36.7290    8.9290 C.ar   65  PHE65      -0.0042
    103  CD2       20.8350  -35.0020    7.6090 C.ar   65  PHE65      -0.0042
    104  CE1       18.6990  -36.0210    8.9950 C.ar   65  PHE65      -0.0003
    105  CE2       19.6450  -34.3120    7.6320 C.ar   65  PHE65      -0.0003
    106  CZ        18.5850  -34.8060    8.3470 C.ar   65  PHE65      -0.0000
    107  N         24.4490  -37.5600    3.2510 N.3    68  LEU68      -0.1245
    108  CA        24.4510  -36.1320    2.9670 C.3    68  LEU68       0.1561
    109  C         25.8100  -35.5340    3.3030 C.2    68  LEU68       0.2260
    110  O         26.4220  -34.8370    2.4880 O.2    68  LEU68      -0.2867
    111  CB        23.3560  -35.4180    3.7550 C.3    68  LEU68       0.0270
    112  CG        23.2430  -33.9200    3.4420 C.3    68  LEU68       0.0019
    113  CD1       22.8110  -33.6950    1.9990 C.3    68  LEU68       0.0001
    114  CD2       22.3090  -33.1900    4.4120 C.3    68  LEU68       0.0001
    115  N         23.5630  -32.7150   -4.1100 N.3    94  LEU94      -0.1245
    116  CA        22.9390  -32.7850   -2.7930 C.3    94  LEU94       0.1561
    117  C         21.4220  -32.8390   -2.8870 C.2    94  LEU94       0.2260
    118  O         20.7750  -33.5830   -2.1580 O.2    94  LEU94      -0.2867
    119  CB        23.3550  -31.5820   -1.9490 C.3    94  LEU94       0.0270
    120  CG        24.8420  -31.4750   -1.6290 C.3    94  LEU94       0.0019
    121  CD1       25.0930  -30.3570   -0.6320 C.3    94  LEU94       0.0001
    122  CD2       25.3560  -32.8000   -1.0990 C.3    94  LEU94       0.0001
    123  N         19.5480  -35.9930   -2.4060 N.3    97  THR97      -0.1203
    124  CA        19.4890  -36.5940   -1.0780 C.3    97  THR97       0.1994
    125  C         18.5160  -35.8590   -0.1540 C.2    97  THR97       0.2618
    126  O         17.8690  -36.4780    0.6910 O.2    97  THR97      -0.2717
    127  CB        20.8840  -36.6320   -0.4290 C.3    97  THR97       0.1784
    128  OG1       21.7790  -37.3790   -1.2630 O.3    97  THR97      -0.2211
    129  CG2       20.8250  -37.2760    0.9350 C.3    97  THR97       0.0376
    130  N         18.4010  -34.5440   -0.3330 N.am   98  CYS98      -0.1969
    131  CA        17.3710  -33.7660    0.3450 C.3    98  CYS98       0.1712
    132  C         15.9820  -34.2610   -0.0240 C.2    98  CYS98       0.2296
    133  O         15.1480  -34.5080    0.8460 O.2    98  CYS98      -0.2864
    134  CB        17.4890  -32.2820    0.0020 C.3    98  CYS98       0.0983
    135  SG        19.1640  -31.6350    0.0570 S.3    98  CYS98      -0.0798
    136  N         14.7750  -37.8300    1.1260 N.3   101  CYS101     -0.1221
    137  CA        14.4290  -37.9760    2.5320 C.3   101  CYS101      0.1808
    138  C         13.1780  -37.1740    2.8630 C.2   101  CYS101      0.2601
    139  O         12.3000  -37.6300    3.5950 O.2   101  CYS101     -0.2717
    140  CB        15.5930  -37.5370    3.4150 C.3   101  CYS101      0.0970
    141  SG        15.1260  -37.1340    5.1010 S.3   101  CYS101     -0.0800
    142  N         13.0660  -35.9990    2.2600 N.am  102  HIS102     -0.1975
    143  CA        11.8630  -35.2060    2.4000 C.3   102  HIS102      0.1656
    144  C         10.6420  -35.9950    1.9410 C.2   102  HIS102      0.2291
    145  O          9.6400  -36.0640    2.6580 O.2   102  HIS102     -0.2864
    146  CB        12.0050  -33.8870    1.6440 C.3   102  HIS102      0.0771
    147  CG        12.8910  -32.8990    2.3350 C.ar  102  HIS102      0.0820
    148  ND1       13.3680  -31.7640    1.7180 N.ar  102  HIS102     -0.2267
    149  CD2       13.4060  -32.8890    3.5870 C.ar  102  HIS102      0.1154
    150  CE1       14.0880  -31.0660    2.5780 C.ar  102  HIS102      0.1986
    151  NE2       14.1330  -31.7320    3.7180 N.ar  102  HIS102     -0.2212
    152  N          9.9580  -38.5830    4.9240 N.3   105  TYR105     -0.1227
    153  CA         9.8920  -38.2660    6.3500 C.3   105  TYR105      0.1736
    154  C          9.5120  -36.8290    6.7130 C.2   105  TYR105      0.2595
    155  O          9.3140  -36.5160    7.8880 O.2   105  TYR105     -0.2718
    156  CB        11.1920  -38.6430    7.0470 C.3   105  TYR105      0.0548
    157  CG        11.5890  -40.0860    6.8650 C.ar  105  TYR105     -0.0200
    158  CD1       12.8100  -40.4210    6.2920 C.ar  105  TYR105     -0.0009
    159  CD2       10.7610  -41.1150    7.2960 C.ar  105  TYR105     -0.0009
    160  CE1       13.1700  -41.7380    6.0950 C.ar  105  TYR105      0.0417
    161  CE2       11.1380  -42.4380    7.1450 C.ar  105  TYR105      0.0417
    162  CZ        12.3410  -42.7400    6.5340 C.ar  105  TYR105      0.1957
    163  OH        12.7410  -44.0470    6.4100 O.3   105  TYR105     -0.2866
    164  N          9.4270  -35.9510    5.7200 N.am  106  ARG106     -0.1980
    165  CA         9.0170  -34.5730    5.9640 C.3   106  ARG106      0.1597
    166  C          7.5050  -34.4640    5.8430 C.2   106  ARG106      0.2287
    167  O          6.8940  -35.1750    5.0580 O.2   106  ARG106     -0.2864
    168  CB         9.7010  -33.6330    4.9710 C.3   106  ARG106      0.0334
    169  CG         9.3860  -32.1600    5.1540 C.3   106  ARG106      0.0492
    170  CD         9.0930  -31.5040    3.8130 C.3   106  ARG106      0.2205
    171  NE         9.7480  -30.2060    3.6670 N.pl3 106  ARG106     -0.0865
    172  CZ        10.1780  -29.7150    2.5070 C.cat 106  ARG106      0.5346
    173  NH1       10.7500  -28.5150    2.4580 N.pl3 106  ARG106      0.1354
    174  NH2       10.0490  -30.4300    1.3940 N.pl3 106  ARG106      0.1354
@<TRIPOS>BOND
     1   115   116    1
     2   117   116    1
     3   117   118    2
     4   116   119    1
     5    54    53    2
     6   123   124    1
     7   119   120    1
     8    58    56    1
     9    56    57    1
    10    56    55    1
    11   120   122    1
    12   120   121    1
    13    53    52    1
    14   128   127    1
    15   124   127    1
    16   124   125    1
    17    55    52    1
    18   127   129    1
    19    52    51    1
    20   130   125   am
    21   130   131    1
    22   125   126    2
    23   132   131    1
    24   132   133    2
    25   134   135    1
    26   134   131    1
    27    49    48    2
    28   136   137    1
    29    46    45    2
    30   174   172    1
    31   146   147    1
    32   146   143    1
    33   148   147   ar
    34   148   150   ar
    35    48    50   am
    36    48    47    1
    37   144   143    1
    38   144   145    2
    39   113   112    1
    40    66    65    1
    41    65    64    1
    42   142   143    1
    43   142   138   am
    44   147   149   ar
    45    45    44    1
    46   173   172    1
    47   110   109    2
    48   172   171    2
    49   137   138    1
    50   137   140    1
    51   150   151   ar
    52    44    47    1
    53    44    43    1
    54   138   139    2
    55    38    37    2
    56   108   107    1
    57   108   109    1
    58   108   111    1
    59   140   141    1
    60   112   111    1
    61   112   114    1
    62   149   151   ar
    63   171   170    1
    64   170   169    1
    65    37    43   am
    66    37    36    1
    67    64    63    1
    68    95    94    2
    69    63    60    1
    70   152   153    1
    71   168   169    1
    72   168   165    1
    73    93    94    1
    74    93    92    1
    75   167   166    2
    76    36    39    1
    77    36    35    1
    78    39    40    1
    79    94    96   am
    80    42    40    1
    81   164   165    1
    82   164   154   am
    83   166   165    1
    84    29    28    2
    85    41    40    1
    86    21    20    2
    87   160   158   ar
    88   160   162   ar
    89    60    59    1
    90    60    61    1
    91   158   157   ar
    92    99    98    2
    93   153   154    1
    94   153   156    1
    95   163   162    1
    96    96    97    1
    97   162   161   ar
    98    98    97    1
    99   154   155    2
   100    97   100    1
   101   157   156    1
   102   157   159   ar
   103    24    25    1
   104    24    23    1
   105    61    62    2
   106    28    27    1
   107    20    19    1
   108    20    26   am
   109   161   159   ar
   110    27    26    1
   111    27    30    1
   112   103   105   ar
   113   103   101   ar
   114   105   106   ar
   115    22    19    1
   116    22    23    1
   117    19    18    1
   118    31    30    1
   119    31    32    1
   120   100   101    1
   121    84    83    2
   122   101   102   ar
   123    81    82    1
   124   106   104   ar
   125    82    83    1
   126    82    85    1
   127   102   104   ar
   128    32    33   ar
   129    32    34   ar
   130    87    89   ar
   131    87    86   ar
   132    89    91   ar
   133    85    86    1
   134    86    88   ar
   135    12    11    2
   136    91    90   ar
   137    88    90   ar
   138     4     3    2
   139    11    10    1
   140    71    72    1
   141    71    68    1
   142    10    13    1
   143    10     9    1
   144     7     6    1
   145    72    73    1
   146     8     6    1
   147     6     5    1
   148    14    13    1
   149    14    15    1
   150     3     9   am
   151     3     2    1
   152    17    15   ar
   153    15    16   ar
   154    80    79    1
   155    80    74    1
   156    79    78    1
   157    68    69    1
   158    68    67    1
   159    78    75    1
   160    73    67    1
   161     5     2    1
   162    76    75    1
   163    76    77    2
   164     2     1    1
   165    74    69   am
   166    74    75    1
   167    69    70    2
