@<TRIPOS>MOLECULE
tmp/3nmqA00.pdb
 166 157 0 0 0
SMALL
GASTEIGER

@<TRIPOS>ATOM
      1  N         16.1330   18.4610   25.7430 N.3    10  PHE10      -0.1241
      2  CA        15.7450   17.1940   25.2130 C.3    10  PHE10       0.1605
      3  C         16.9530   16.3270   25.2160 C.2    10  PHE10       0.2264
      4  O         18.0360   16.8270   25.1350 O.2    10  PHE10      -0.2867
      5  CB        15.2720   17.3040   23.7530 C.3    10  PHE10       0.0534
      6  CG        13.8780   17.8000   23.6050 C.ar   10  PHE10      -0.0203
      7  CD1       12.8210   17.0260   24.0010 C.ar   10  PHE10      -0.0042
      8  CD2       13.6160   18.9960   22.9860 C.ar   10  PHE10      -0.0042
      9  CE1       11.5730   17.4780   23.8710 C.ar   10  PHE10      -0.0003
     10  CE2       12.3000   19.4470   22.8180 C.ar   10  PHE10      -0.0003
     11  CZ        11.2950   18.6850   23.2680 C.ar   10  PHE10      -0.0000
     12  N         -0.8900   11.2190   16.1930 N.3    36  LEU36      -0.1245
     13  CA        -1.4710   11.8180   17.4190 C.3    36  LEU36       0.1561
     14  C         -2.7660   11.1520   17.7560 C.2    36  LEU36       0.2260
     15  O         -3.0880   11.0220   18.9380 O.2    36  LEU36      -0.2867
     16  CB        -1.6810   13.3300   17.2840 C.3    36  LEU36       0.0270
     17  CG        -0.3820   14.1220   17.1170 C.3    36  LEU36       0.0019
     18  CD1       -0.7170   15.5330   16.9300 C.3    36  LEU36       0.0001
     19  CD2        0.6570   13.9040   18.2370 C.3    36  LEU36       0.0001
     20  N         -1.8070    7.7990   19.3900 N.3    39  ASN39      -0.1225
     21  CA        -1.4150    8.0320   20.7440 C.3    39  ASN39       0.1785
     22  C         -2.6690    8.2080   21.5600 C.2    39  ASN39       0.2597
     23  O         -2.7530    7.6680   22.6030 O.2    39  ASN39      -0.2718
     24  CB        -0.4920    9.2300   20.8560 C.3    39  ASN39       0.1169
     25  CG         0.9450    8.9800   20.2980 C.2    39  ASN39       0.2627
     26  OD1        1.3420    7.8750   20.0420 O.2    39  ASN39      -0.2716
     27  ND2        1.7180   10.0280   20.1690 N.am   39  ASN39      -0.0877
     28  N         -3.6490    8.9680   21.1110 N.am   40  ALA40      -0.1979
     29  CA        -4.8640    9.2230   21.9200 C.3    40  ALA40       0.1597
     30  C         -5.5980    7.9100   22.1880 C.2    40  ALA40       0.2287
     31  O         -5.9810    7.6080   23.3200 O.2    40  ALA40      -0.2864
     32  CB        -5.8300   10.3140   21.1820 C.3    40  ALA40       0.0319
     33  N         -3.8440    5.7410   24.7530 N.3    43  ALA43      -0.1245
     34  CA        -4.0770    6.2770   26.1510 C.3    43  ALA43       0.1562
     35  C         -5.4830    5.9220   26.6220 C.2    43  ALA43       0.2260
     36  O         -5.7270    5.7060   27.8310 O.2    43  ALA43      -0.2867
     37  CB        -3.9200    7.7060   26.2000 C.3    43  ALA43       0.0290
     38  N         -5.5970    2.2660   27.5170 N.3    46  LYS46      -0.1245
     39  CA        -4.9820    2.0420   28.8220 C.3    46  LYS46       0.1561
     40  C         -5.9290    2.3550   29.9800 C.2    46  LYS46       0.2260
     41  O         -6.0530    1.5740   30.9320 O.2    46  LYS46      -0.2867
     42  CB        -3.7140    2.8700   28.9020 C.3    46  LYS46       0.0271
     43  CG        -2.9990    2.7450   30.1880 C.3    46  LYS46       0.0035
     44  CD        -1.4530    2.6020   30.0320 C.3    46  LYS46       0.0206
     45  CE        -0.8750    1.7600   31.2090 C.3    46  LYS46       0.1093
     46  NZ        -0.5500    2.5700   32.4350 N.3    46  LYS46      -0.1314
     47  N         -8.0510   14.1100   24.1660 N.3    81  ASP81      -0.1239
     48  CA        -8.5410   12.7760   24.5070 C.3    81  ASP81       0.1674
     49  C         -8.8120   12.6900   26.0040 C.2    81  ASP81       0.2266
     50  O         -8.2410   13.4760   26.7970 O.2    81  ASP81      -0.2867
     51  CB        -7.5540   11.7300   24.0550 C.3    81  ASP81       0.1410
     52  CG        -6.2820   11.6640   24.9000 C.2    81  ASP81       0.3668
     53  OD1       -6.3810   11.3450   26.1000 O.co2  81  ASP81      -0.2456
     54  OD2       -5.1610   11.8850   24.3440 O.co2  81  ASP81      -0.2456
     55  N         -5.5720    8.1590   29.6610 N.3    84  ILE84      -0.1231
     56  CA        -4.9420    7.9510   30.9850 C.3    84  ILE84       0.1692
     57  C         -4.1680    9.2030   31.5050 C.2    84  ILE84       0.2593
     58  O         -4.0050    9.4320   32.7230 O.2    84  ILE84      -0.2718
     59  CB        -4.0270    6.7110   30.8730 C.3    84  ILE84       0.0266
     60  CG1       -3.5840    6.2540   32.2680 C.3    84  ILE84       0.0019
     61  CG2       -2.7930    7.0380   29.9250 C.3    84  ILE84       0.0020
     62  CD1       -4.0660    4.9670   32.6950 C.3    84  ILE84       0.0001
     63  N         -3.7340   10.0380   30.5870 N.am   85  GLY85      -0.1942
     64  CA        -2.8980   11.1710   30.9460 C.3    85  GLY85       0.2014
     65  C         -1.4420   10.8360   31.2870 C.2    85  GLY85       0.2638
     66  O         -1.0620    9.7120   31.3040 O.2    85  GLY85      -0.2714
     67  N         -0.6500   11.8620   31.5070 N.am   86  MET86      -0.1976
     68  CA         0.8040   11.7760   31.7390 C.3    86  MET86       0.1605
     69  C          1.1390   12.3870   33.1150 C.2    86  MET86       0.2287
     70  O          0.6130   13.4430   33.5290 O.2    86  MET86      -0.2864
     71  CB         1.5320   12.5470   30.6270 C.3    86  MET86       0.0413
     72  CG         1.6870   11.7340   29.3950 C.3    86  MET86       0.0598
     73  SD         2.2270   12.5910   27.9560 S.3    86  MET86      -0.1393
     74  CE         0.7320   13.4210   27.5500 C.3    86  MET86       0.0692
     75  N          6.6700   11.4250   33.6330 N.3    90  ASP90      -0.1225
     76  CA         6.5060   11.0330   32.2200 C.3    90  ASP90       0.1805
     77  C          7.0220   12.1300   31.3500 C.2    90  ASP90       0.2597
     78  O          7.9400   11.8980   30.5760 O.2    90  ASP90      -0.2718
     79  CB         5.0520   10.7920   31.8570 C.3    90  ASP90       0.1424
     80  CG         4.4720    9.5230   32.4000 C.2    90  ASP90       0.3668
     81  OD1        5.2010    8.5150   32.6020 O.co2  90  ASP90      -0.2456
     82  OD2        3.2000    9.5150   32.5310 O.co2  90  ASP90      -0.2456
     83  N          6.5370   13.3550   31.5780 N.am   91  LEU91      -0.1979
     84  CA         6.8800   14.5210   30.7880 C.3    91  LEU91       0.1596
     85  C          8.3430   14.9430   30.8760 C.2    91  LEU91       0.2287
     86  O          8.9380   15.3270   29.8650 O.2    91  LEU91      -0.2864
     87  CB         6.0060   15.7220   31.1820 C.3    91  LEU91       0.0297
     88  CG         4.5010   15.6750   31.0000 C.3    91  LEU91       0.0022
     89  CD1        3.8560   16.9090   31.6920 C.3    91  LEU91       0.0001
     90  CD2        4.0970   15.6160   29.5460 C.3    91  LEU91       0.0001
     91  N          9.2310    9.5430   29.1040 N.3    95  LEU95      -0.1245
     92  CA         8.9790    9.6230   27.6770 C.3    95  LEU95       0.1561
     93  C         10.2410    9.8670   26.8580 C.2    95  LEU95       0.2260
     94  O         10.4450    9.2940   25.8080 O.2    95  LEU95      -0.2867
     95  CB         7.9560   10.7030   27.4270 C.3    95  LEU95       0.0270
     96  CG         6.4910   10.3110   27.7990 C.3    95  LEU95       0.0019
     97  CD1        5.4640   11.4120   27.4880 C.3    95  LEU95       0.0001
     98  CD2        6.0530    8.9690   27.1100 C.3    95  LEU95       0.0001
     99  N          4.7770   11.1040   18.0810 N.3   126  PHE126     -0.1227
    100  CA         4.4860   12.3600   18.6550 C.3   126  PHE126      0.1736
    101  C          5.2510   13.4960   18.0060 C.2   126  PHE126      0.2595
    102  O          4.6690   14.5280   17.6740 O.2   126  PHE126     -0.2718
    103  CB         4.6860   12.3760   20.1760 C.3   126  PHE126      0.0547
    104  CG         4.5330   13.7710   20.7790 C.ar  126  PHE126     -0.0202
    105  CD1        3.3040   14.2940   21.0430 C.ar  126  PHE126     -0.0042
    106  CD2        5.6350   14.5260   21.0600 C.ar  126  PHE126     -0.0042
    107  CE1        3.1490   15.6070   21.5680 C.ar  126  PHE126     -0.0003
    108  CE2        5.4840   15.7770   21.5770 C.ar  126  PHE126     -0.0003
    109  CZ         4.2090   16.2890   21.8550 C.ar  126  PHE126     -0.0000
    110  N          6.5380   13.2950   17.7680 N.am  127  TYR127     -0.1976
    111  CA         7.3880   14.3600   17.2510 C.3   127  TYR127      0.1639
    112  C          7.0710   14.7110   15.8020 C.2   127  TYR127      0.2290
    113  O          7.5330   15.7280   15.3450 O.2   127  TYR127     -0.2864
    114  CB         8.8760   14.0320   17.4520 C.3   127  TYR127      0.0560
    115  CG         9.1680   13.7500   18.9330 C.ar  127  TYR127     -0.0198
    116  CD1        9.4620   14.7720   19.8280 C.ar  127  TYR127     -0.0009
    117  CD2        9.0990   12.4780   19.4350 C.ar  127  TYR127     -0.0009
    118  CE1        9.6870   14.5050   21.1870 C.ar  127  TYR127      0.0417
    119  CE2        9.3440   12.2170   20.8020 C.ar  127  TYR127      0.0417
    120  CZ         9.6160   13.2270   21.6490 C.ar  127  TYR127      0.1957
    121  OH         9.8520   12.9340   22.9740 O.3   127  TYR127     -0.2866
    122  N          1.1120   20.8360   25.3880 N.3   138  VAL138     -0.1245
    123  CA         0.4250   19.6330   25.8190 C.3   138  VAL138      0.1561
    124  C         -0.0760   19.9150   27.2140 C.2   138  VAL138      0.2260
    125  O          0.7020   20.1750   28.1000 O.2   138  VAL138     -0.2867
    126  CB         1.3470   18.4120   25.8370 C.3   138  VAL138      0.0252
    127  CG1        0.5580   17.0510   26.2950 C.3   138  VAL138      0.0019
    128  CG2        2.0130   18.2940   24.4880 C.3   138  VAL138      0.0019
    129  N         -3.3420   13.1010   34.8080 N.3   142  HIS142     -0.1241
    130  CA        -3.3900   11.6800   35.1410 C.3   142  HIS142      0.1621
    131  C         -4.0160   11.5510   36.4990 C.2   142  HIS142      0.2264
    132  O         -3.8190   12.4380   37.3000 O.2   142  HIS142     -0.2867
    133  CB        -1.9330   11.1920   35.2280 C.3   142  HIS142      0.0745
    134  CG        -1.7790    9.7010   35.3080 C.ar  142  HIS142      0.0817
    135  ND1       -1.8660    9.0080   36.5000 N.ar  142  HIS142     -0.2268
    136  CD2       -1.4990    8.7750   34.3490 C.ar  142  HIS142      0.1154
    137  CE1       -1.6470    7.7250   36.2790 C.ar  142  HIS142      0.1986
    138  NE2       -1.4360    7.5560   34.9820 N.ar  142  HIS142     -0.2212
    139  N          3.0940   21.1250   29.2180 N.3   150  TRP150     -0.1241
    140  CA         4.4170   20.9040   28.6120 C.3   150  TRP150      0.1605
    141  C          4.3520   21.7470   27.3860 C.2   150  TRP150      0.2264
    142  O          3.3080   21.8570   26.8380 O.2   150  TRP150     -0.2867
    143  CB         4.5870   19.4240   28.2660 C.3   150  TRP150      0.0550
    144  CG         5.7410   19.0020   27.4830 C.ar  150  TRP150      0.0003
    145  CD1        6.7780   18.3210   27.9640 C.ar  150  TRP150      0.0946
    146  CD2        5.9330   19.0740   26.0370 C.ar  150  TRP150      0.0152
    147  NE1        7.6160   17.9630   26.9600 N.ar  150  TRP150     -0.2442
    148  CE2        7.1320   18.4290   25.7630 C.ar  150  TRP150      0.0810
    149  CE3        5.1870   19.5760   24.9700 C.ar  150  TRP150      0.0012
    150  CZ2        7.6400   18.3180   24.4960 C.ar  150  TRP150      0.0191
    151  CZ3        5.6810   19.4440   23.6790 C.ar  150  TRP150      0.0001
    152  CH2        6.9100   18.8760   23.4510 C.ar  150  TRP150      0.0015
    153  N         -5.3130   14.2080   27.9380 N.3   172  THR172     -0.1218
    154  CA        -4.2990   14.9920   27.2950 C.3   172  THR172      0.1862
    155  C         -4.9160   15.8790   26.2220 C.2   172  THR172      0.2287
    156  O         -5.7600   15.4230   25.4640 O.2   172  THR172     -0.2866
    157  CB        -3.1890   14.0770   26.7400 C.3   172  THR172      0.1770
    158  OG1       -2.5450   13.3880   27.8290 O.3   172  THR172     -0.2211
    159  CG2       -2.1760   14.8320   26.0720 C.3   172  THR172      0.0375
    160  N         -3.3540   18.1840   23.1500 N.3   174  VAL174     -0.1245
    161  CA        -2.2170   18.5120   22.3650 C.3   174  VAL174      0.1561
    162  C         -2.6190   19.6590   21.4800 C.2   174  VAL174      0.2260
    163  O         -3.4500   19.4920   20.5720 O.2   174  VAL174     -0.2867
    164  CB        -1.7460   17.3110   21.4500 C.3   174  VAL174      0.0252
    165  CG1       -0.5330   17.7970   20.6240 C.3   174  VAL174      0.0019
    166  CG2       -1.3620   16.0340   22.3050 C.3   174  VAL174      0.0019
@<TRIPOS>BOND
     1   113   112    2
     2   112   111    1
     3    12    13    1
     4    18    17    1
     5    17    16    1
     6    17    19    1
     7   111   114    1
     8   111   110    1
     9    16    13    1
    10    13    14    1
    11   114   115    1
    12   102   101    2
    13    14    15    2
    14   110   101   am
    15   101   100    1
    16    99   100    1
    17   100   103    1
    18   115   117   ar
    19   115   116   ar
    20    20    21    1
    21   117   119   ar
    22   116   118   ar
    23    26    25    2
    24    27    25   am
    25   103   104    1
    26    25    24    1
    27   163   162    2
    28   165   164    1
    29    21    24    1
    30    21    22    1
    31   104   105   ar
    32   104   106   ar
    33   119   120   ar
    34   105   107   ar
    35   106   108   ar
    36    28    22   am
    37    28    29    1
    38    32    29    1
    39   118   120   ar
    40   164   166    1
    41   164   161    1
    42   162   161    1
    43    22    23    2
    44   107   109   ar
    45   108   109   ar
    46   120   121    1
    47    29    30    1
    48    30    31    2
    49   161   160    1
    50    10     8   ar
    51    10    11   ar
    52     8     6   ar
    53    11     9   ar
    54   152   151   ar
    55   152   150   ar
    56     6     5    1
    57     6     7   ar
    58   151   149   ar
    59     5     2    1
    60     9     7   ar
    61    51    48    1
    62    51    52    1
    63    47    48    1
    64    54    52   ar
    65   128   126    1
    66   150   148   ar
    67    48    49    1
    68    33    34    1
    69    52    53   ar
    70   149   146   ar
    71     4     3    2
    72     2     3    1
    73     2     1    1
    74   122   123    1
    75   156   155    2
    76   148   146   ar
    77   148   147   ar
    78    94    93    2
    79   123   126    1
    80   123   124    1
    81   126   127    1
    82    49    50    2
    83   146   144   ar
    84   159   157    1
    85    34    37    1
    86    34    35    1
    87   155   154    1
    88    35    36    2
    89   157   154    1
    90   157   158    1
    91   142   141    2
    92    93    92    1
    93   147   145   ar
    94    98    96    1
    95   124   125    2
    96   154   153    1
    97   141   140    1
    98    95    92    1
    99    95    96    1
   100   144   145   ar
   101   144   143    1
   102    97    96    1
   103    38    39    1
   104    74    73    1
   105    92    91    1
   106    73    72    1
   107   143   140    1
   108   140   139    1
   109    39    42    1
   110    39    40    1
   111    42    43    1
   112    72    71    1
   113    90    88    1
   114    55    56    1
   115    86    85    2
   116    61    59    1
   117    40    41    2
   118    44    43    1
   119    44    45    1
   120    78    77    2
   121    63    64    1
   122    63    57   am
   123    71    68    1
   124    84    85    1
   125    84    87    1
   126    84    83    1
   127    59    56    1
   128    59    60    1
   129    64    65    1
   130    56    57    1
   131    88    87    1
   132    88    89    1
   133    45    46    1
   134    65    66    2
   135    65    67   am
   136    77    83   am
   137    77    76    1
   138    57    58    2
   139    67    68    1
   140    68    69    1
   141    79    76    1
   142    79    80    1
   143    76    75    1
   144    60    62    1
   145    80    82   ar
   146    80    81   ar
   147    69    70    2
   148   136   138   ar
   149   136   134   ar
   150   129   130    1
   151   138   137   ar
   152   130   133    1
   153   130   131    1
   154   133   134    1
   155   134   135   ar
   156   137   135   ar
   157   131   132    2
