@<TRIPOS>MOLECULE
tmp/3nmxA00.pdb
 216 205 0 0 0
SMALL
GASTEIGER

@<TRIPOS>ATOM
      1  N         -6.7430    5.0790   -6.5560 N.3    44  MET44      -0.1245
      2  CA        -5.3020    5.0560   -6.2900 C.3    44  MET44       0.1570
      3  C         -5.0210    4.5570   -4.8660 C.2    44  MET44       0.2261
      4  O         -4.1880    3.6720   -4.6730 O.2    44  MET44      -0.2867
      5  CB        -4.6770    6.4420   -6.5240 C.3    44  MET44       0.0387
      6  CG        -3.2020    6.5840   -6.1180 C.3    44  MET44       0.0595
      7  SD        -2.9400    6.9720   -4.3710 S.3    44  MET44      -0.1393
      8  CE        -3.4370    8.6900   -4.2800 C.3    44  MET44       0.0692
      9  N         -3.4790    0.0760   -3.2380 N.3    48  PHE48      -0.1241
     10  CA        -2.3340   -0.3430   -2.4230 C.3    48  PHE48       0.1605
     11  C         -2.6030   -1.6310   -1.6420 C.2    48  PHE48       0.2264
     12  O         -1.6680   -2.3120   -1.2100 O.2    48  PHE48      -0.2867
     13  CB        -1.9010    0.7730   -1.4640 C.3    48  PHE48       0.0534
     14  CG        -1.0820    1.8430   -2.1190 C.ar   48  PHE48      -0.0203
     15  CD1        0.2740    1.6370   -2.3790 C.ar   48  PHE48      -0.0042
     16  CD2       -1.6640    3.0510   -2.4910 C.ar   48  PHE48      -0.0042
     17  CE1        1.0380    2.6200   -3.0010 C.ar   48  PHE48      -0.0003
     18  CE2       -0.9100    4.0410   -3.1080 C.ar   48  PHE48      -0.0003
     19  CZ         0.4460    3.8240   -3.3640 C.ar   48  PHE48      -0.0000
     20  N         -7.3500   -4.6780   -4.9440 N.3    53  ARG53      -0.1245
     21  CA        -6.8690   -4.9010   -6.3100 C.3    53  ARG53       0.1563
     22  C         -7.5910   -6.0670   -6.9680 C.2    53  ARG53       0.2260
     23  O         -7.9170   -6.0130   -8.1560 O.2    53  ARG53      -0.2867
     24  CB        -5.3580   -5.1480   -6.3380 C.3    53  ARG53       0.0307
     25  CG        -4.5250   -3.8990   -6.1330 C.3    53  ARG53       0.0489
     26  CD        -3.0920   -4.0760   -6.6270 C.3    53  ARG53       0.2205
     27  NE        -2.3380   -5.0890   -5.8820 N.pl3  53  ARG53      -0.0865
     28  CZ        -1.7320   -4.8880   -4.7130 C.cat  53  ARG53       0.5346
     29  NH1       -1.7880   -3.7060   -4.1080 N.pl3  53  ARG53       0.1354
     30  NH2       -1.0710   -5.8810   -4.1370 N.pl3  53  ARG53       0.1354
     31  N         -2.6150   16.1980  -11.6950 N.3    86  THR86      -0.1218
     32  CA        -3.0100   15.3980  -10.5380 C.3    86  THR86       0.1862
     33  C         -3.8030   14.1580  -10.9620 C.2    86  THR86       0.2287
     34  O         -3.5380   13.0540  -10.4830 O.2    86  THR86      -0.2866
     35  CB        -3.8210   16.2450   -9.5380 C.3    86  THR86       0.1770
     36  OG1       -3.1610   17.4980   -9.3420 O.3    86  THR86      -0.2211
     37  CG2       -3.9270   15.5500   -8.2010 C.3    86  THR86       0.0375
     38  N         -1.4430   11.7150  -12.5270 N.3    89  ARG89      -0.1231
     39  CA        -0.6010   11.1560  -11.4730 C.3    89  ARG89       0.1694
     40  C         -1.3030   10.0090  -10.7530 C.2    89  ARG89       0.2592
     41  O         -0.7620    8.9030  -10.6670 O.2    89  ARG89      -0.2718
     42  CB        -0.1880   12.2320  -10.4690 C.3    89  ARG89       0.0321
     43  CG         0.9130   13.1670  -10.9580 C.3    89  ARG89       0.0489
     44  CD         1.5300   13.9540   -9.8100 C.3    89  ARG89       0.2205
     45  NE         2.2280   13.0580   -8.8930 N.pl3  89  ARG89      -0.0865
     46  CZ         1.8100   12.7460   -7.6700 C.cat  89  ARG89       0.5346
     47  NH1        0.6970   13.2790   -7.1770 N.pl3  89  ARG89       0.1354
     48  NH2        2.5200   11.9030   -6.9360 N.pl3  89  ARG89       0.1354
     49  N         -2.5100   10.2740  -10.2550 N.am   90  TYR90      -0.1976
     50  CA        -3.2940    9.2680   -9.5370 C.3    90  TYR90       0.1639
     51  C         -3.5650    8.0410  -10.3950 C.2    90  TYR90       0.2290
     52  O         -3.3880    6.9060   -9.9390 O.2    90  TYR90      -0.2864
     53  CB        -4.6170    9.8560   -9.0340 C.3    90  TYR90       0.0560
     54  CG        -4.4740   10.9250   -7.9720 C.ar   90  TYR90      -0.0198
     55  CD1       -3.3480   10.9810   -7.1490 C.ar   90  TYR90      -0.0009
     56  CD2       -5.4830   11.8640   -7.7700 C.ar   90  TYR90      -0.0009
     57  CE1       -3.2220   11.9580   -6.1690 C.ar   90  TYR90       0.0417
     58  CE2       -5.3700   12.8390   -6.7880 C.ar   90  TYR90       0.0417
     59  CZ        -4.2370   12.8810   -5.9940 C.ar   90  TYR90       0.1957
     60  OH        -4.1190   13.8500   -5.0300 O.3    90  TYR90      -0.2866
     61  N         -0.4430    6.0450  -10.8510 N.3    93  MET93      -0.1245
     62  CA        -0.1190    5.3730   -9.5920 C.3    93  MET93       0.1570
     63  C         -0.9500    4.1070   -9.4060 C.2    93  MET93       0.2261
     64  O         -0.4360    3.0770   -8.9590 O.2    93  MET93      -0.2867
     65  CB        -0.3190    6.3150   -8.4080 C.3    93  MET93       0.0387
     66  CG         0.7030    7.4310   -8.3280 C.3    93  MET93       0.0595
     67  SD         0.3330    8.5990   -7.0150 S.3    93  MET93      -0.1393
     68  CE         0.7250    7.6210   -5.5590 C.3    93  MET93       0.0692
     69  N          0.4180    1.5650  -11.7850 N.3    96  THR96      -0.1203
     70  CA         1.6080    1.0020  -11.1450 C.3    96  THR96       0.1994
     71  C          1.2090   -0.1370  -10.2020 C.2    96  THR96       0.2617
     72  O          1.7350   -1.2490  -10.3060 O.2    96  THR96      -0.2717
     73  CB         2.4010    2.0930  -10.3780 C.3    96  THR96       0.1784
     74  OG1        2.9400    3.0300  -11.3140 O.3    96  THR96      -0.2211
     75  CG2        3.5430    1.4890   -9.5640 C.3    96  THR96       0.0376
     76  N          0.2630    0.1440   -9.3080 N.am   97  ASN97      -0.1974
     77  CA        -0.2230   -0.8460   -8.3490 C.3    97  ASN97       0.1688
     78  C         -0.8890   -2.0550   -9.0000 C.2    97  ASN97       0.2292
     79  O         -0.6830   -3.1850   -8.5610 O.2    97  ASN97      -0.2864
     80  CB        -1.1640   -0.1970   -7.3310 C.3    97  ASN97       0.1181
     81  CG        -0.4380    0.7420   -6.3720 C.2    97  ASN97       0.2629
     82  OD1        0.7950    0.7400   -6.2850 O.2    97  ASN97      -0.2716
     83  ND2       -1.2050    1.5490   -5.6440 N.am   97  ASN97      -0.0877
     84  N          1.7520   -4.4080  -10.5740 N.3   100  PHE100     -0.1227
     85  CA         2.7060   -4.9900   -9.6270 C.3   100  PHE100      0.1736
     86  C          2.4320   -6.4750   -9.3930 C.2   100  PHE100      0.2596
     87  O          1.3970   -6.8480   -8.8410 O.2   100  PHE100     -0.2718
     88  CB         2.6970   -4.2060   -8.3030 C.3   100  PHE100      0.0547
     89  CG         3.5520   -4.8110   -7.2180 C.ar  100  PHE100     -0.0202
     90  CD1        2.9660   -5.4650   -6.1370 C.ar  100  PHE100     -0.0042
     91  CD2        4.9410   -4.7230   -7.2730 C.ar  100  PHE100     -0.0042
     92  CE1        3.7460   -6.0200   -5.1230 C.ar  100  PHE100     -0.0003
     93  CE2        5.7320   -5.2770   -6.2630 C.ar  100  PHE100     -0.0003
     94  CZ         5.1330   -5.9270   -5.1870 C.ar  100  PHE100     -0.0000
     95  N          3.3670   -7.3130   -9.8300 N.am  101  GLY101     -0.1957
     96  CA         3.2560   -8.7670   -9.6870 C.3   101  GLY101      0.1869
     97  C          2.1430   -9.4180  -10.4950 C.2   101  GLY101      0.2309
     98  O          1.8200  -10.5870  -10.2780 O.2   101  GLY101     -0.2863
     99  N          0.3430   -6.6430  -16.8580 N.3   106  LYS106     -0.1245
    100  CA         1.5340   -6.1040  -17.5220 C.3   106  LYS106      0.1561
    101  C          1.4200   -6.2400  -19.0390 C.2   106  LYS106      0.2260
    102  O          1.6570   -5.2790  -19.7760 O.2   106  LYS106     -0.2867
    103  CB         2.8020   -6.8270  -17.0600 C.3   106  LYS106      0.0271
    104  CG         3.3380   -6.4290  -15.6950 C.3   106  LYS106      0.0035
    105  CD         4.6690   -7.1330  -15.4620 C.3   106  LYS106      0.0206
    106  CE         4.9480   -7.3820  -13.9920 C.3   106  LYS106      0.1093
    107  NZ         5.3480   -6.1520  -13.2790 N.3   106  LYS106     -0.1314
    108  N          7.8760   10.9860  -12.6230 N.3   132  GLN132     -0.1231
    109  CA         8.1940    9.9240  -11.6660 C.3   132  GLN132      0.1698
    110  C          7.1600    8.7980  -11.6990 C.2   132  GLN132      0.2592
    111  O          7.5000    7.6170  -11.5680 O.2   132  GLN132     -0.2718
    112  CB         8.3000   10.5070  -10.2500 C.3   132  GLN132      0.0381
    113  CG         8.9770    9.5900   -9.2410 C.3   132  GLN132      0.0905
    114  CD         8.9740   10.1500   -7.8310 C.2   132  GLN132      0.2608
    115  OE1        9.2730   11.3270   -7.6090 O.2   132  GLN132     -0.2717
    116  NE2        8.6420    9.3020   -6.8640 N.am  132  GLN132     -0.0878
    117  N          5.8960    9.1760  -11.8690 N.am  133  VAL133     -0.1980
    118  CA         4.7970    8.2190  -11.9470 C.3   133  VAL133      0.1595
    119  C          4.8900    7.3950  -13.2340 C.2   133  VAL133      0.2287
    120  O          4.7690    6.1670  -13.2000 O.2   133  VAL133     -0.2864
    121  CB         3.4180    8.9270  -11.8320 C.3   133  VAL133      0.0276
    122  CG1        2.2820    7.9710  -12.1470 C.3   133  VAL133      0.0022
    123  CG2        3.2330    9.5250  -10.4400 C.3   133  VAL133      0.0022
    124  N          7.6170    4.8670  -13.1020 N.3   136  SER136     -0.1217
    125  CA         7.2180    3.7640  -12.2200 C.3   136  SER136      0.1889
    126  C          6.3590    2.7290  -12.9380 C.2   136  SER136      0.2288
    127  O          6.5350    1.5230  -12.7340 O.2   136  SER136     -0.2866
    128  CB         6.4750    4.2860  -10.9890 C.3   136  SER136      0.2089
    129  OG         7.3480    5.0110  -10.1390 O.3   136  SER136     -0.2183
    130  N          8.6570    0.9310  -15.3110 N.3   139  ARG139     -0.1231
    131  CA         9.4970    0.0390  -14.5160 C.3   139  ARG139      0.1694
    132  C          8.8200   -1.3190  -14.3200 C.2   139  ARG139      0.2592
    133  O          9.4250   -2.3590  -14.5780 O.2   139  ARG139     -0.2718
    134  CB         9.8210    0.6860  -13.1660 C.3   139  ARG139      0.0321
    135  CG        10.5790   -0.2000  -12.1850 C.3   139  ARG139      0.0489
    136  CD        10.4780    0.3670  -10.7790 C.3   139  ARG139      0.2205
    137  NE        11.2010   -0.4350   -9.7970 N.pl3 139  ARG139     -0.0865
    138  CZ        11.6070    0.0120   -8.6090 C.cat 139  ARG139      0.5346
    139  NH1       11.3750    1.2670   -8.2380 N.pl3 139  ARG139      0.1354
    140  NH2       12.2560   -0.8000   -7.7850 N.pl3 139  ARG139      0.1354
    141  N          7.5670   -1.2990  -13.8700 N.am  140  ASN140     -0.1974
    142  CA         6.7820   -2.5230  -13.6890 C.3   140  ASN140      0.1688
    143  C          6.5260   -3.2660  -14.9950 C.2   140  ASN140      0.2292
    144  O          6.6160   -4.4910  -15.0390 O.2   140  ASN140     -0.2864
    145  CB         5.4500   -2.2150  -13.0030 C.3   140  ASN140      0.1181
    146  CG         5.6080   -1.8950  -11.5280 C.2   140  ASN140      0.2629
    147  OD1        6.7190   -1.8490  -11.0000 O.2   140  ASN140     -0.2716
    148  ND2        4.4900   -1.6780  -10.8550 N.am  140  ASN140     -0.0877
    149  N          9.5510   -5.1440  -16.1910 N.3   143  TRP143     -0.1241
    150  CA         9.9700   -6.2230  -15.3020 C.3   143  TRP143      0.1605
    151  C          9.3190   -7.5380  -15.7170 C.2   143  TRP143      0.2264
    152  O          8.0930   -7.6780  -15.6720 O.2   143  TRP143     -0.2867
    153  CB         9.6630   -5.8890  -13.8380 C.3   143  TRP143      0.0550
    154  CG        10.1460   -6.9390  -12.8720 C.ar  143  TRP143      0.0003
    155  CD1        9.3720   -7.7610  -12.1080 C.ar  143  TRP143      0.0946
    156  CD2       11.5090   -7.2890  -12.5850 C.ar  143  TRP143      0.0152
    157  NE1       10.1630   -8.5960  -11.3580 N.ar  143  TRP143     -0.2442
    158  CE2       11.4790   -8.3290  -11.6280 C.ar  143  TRP143      0.0810
    159  CE3       12.7510   -6.8220  -13.0410 C.ar  143  TRP143      0.0012
    160  CZ2       12.6440   -8.9110  -11.1120 C.ar  143  TRP143      0.0191
    161  CZ3       13.9120   -7.4000  -12.5290 C.ar  143  TRP143      0.0001
    162  CH2       13.8480   -8.4370  -11.5740 C.ar  143  TRP143      0.0015
    163  N         14.3640   11.8550   -6.5410 N.3   173  SER173     -0.1217
    164  CA        13.2430   10.9100   -6.5520 C.3   173  SER173      0.1889
    165  C         12.7600   10.5810   -7.9660 C.2   173  SER173      0.2288
    166  O         12.4180    9.4310   -8.2540 O.2   173  SER173     -0.2866
    167  CB        12.0840   11.4140   -5.6850 C.3   173  SER173      0.2089
    168  OG        11.5400   12.6150   -6.2020 O.3   173  SER173     -0.2183
    169  N         15.5440    8.2820   -9.5060 N.3   176  LYS176     -0.1231
    170  CA        15.4590    6.9010   -9.0120 C.3   176  LYS176      0.1693
    171  C         14.5160    6.1000   -9.8880 C.2   176  LYS176      0.2592
    172  O         14.8840    5.0550  -10.4310 O.2   176  LYS176     -0.2718
    173  CB        14.9410    6.8410   -7.5750 C.3   176  LYS176      0.0285
    174  CG        15.9010    7.2930   -6.4890 C.3   176  LYS176      0.0035
    175  CD        15.3010    6.9670   -5.1160 C.3   176  LYS176      0.0206
    176  CE        15.6340    8.0250   -4.0670 C.3   176  LYS176      0.1093
    177  NZ        16.9960    7.8530   -3.4860 N.3   176  LYS176     -0.1314
    178  N         13.2970    6.6170  -10.0220 N.am  177  SER177     -0.1952
    179  CA        12.2380    5.9820  -10.7970 C.3   177  SER177      0.1924
    180  C         12.6240    5.8010  -12.2630 C.2   177  SER177      0.2314
    181  O         12.3730    4.7480  -12.8480 O.2   177  SER177     -0.2863
    182  CB        10.9540    6.8020  -10.6820 C.3   177  SER177      0.2116
    183  OG         9.8500    6.0990  -11.2200 O.3   177  SER177     -0.2180
    184  N         15.5360    3.0880  -12.5980 N.3   180  SER180     -0.1217
    185  CA        14.9840    1.7580  -12.3320 C.3   180  SER180      0.1889
    186  C         14.3000    1.1770  -13.5660 C.2   180  SER180      0.2288
    187  O         14.4750   -0.0010  -13.8890 O.2   180  SER180     -0.2866
    188  CB        13.9900    1.8040  -11.1740 C.3   180  SER180      0.2089
    189  OG        14.6630    1.9790   -9.9460 O.3   180  SER180     -0.2183
    190  N         17.0630    0.4140  -16.0180 N.3   183  TRP183     -0.1227
    191  CA        17.7570   -0.7880  -15.5610 C.3   183  TRP183      0.1737
    192  C         17.0600   -2.0470  -16.0850 C.2   183  TRP183      0.2595
    193  O         17.7220   -2.9520  -16.6010 O.2   183  TRP183     -0.2718
    194  CB        17.8490   -0.8150  -14.0310 C.3   183  TRP183      0.0564
    195  CG        18.8820   -1.7690  -13.4660 C.ar  183  TRP183      0.0003
    196  CD1       19.6530   -2.6620  -14.1570 C.ar  183  TRP183      0.0946
    197  CD2       19.2180   -1.9430  -12.0830 C.ar  183  TRP183      0.0152
    198  NE1       20.4550   -3.3680  -13.2950 N.ar  183  TRP183     -0.2442
    199  CE2       20.2090   -2.9480  -12.0160 C.ar  183  TRP183      0.0810
    200  CE3       18.7800   -1.3430  -10.8940 C.ar  183  TRP183      0.0012
    201  CZ2       20.7750   -3.3650  -10.8070 C.ar  183  TRP183      0.0191
    202  CZ3       19.3440   -1.7570   -9.6930 C.ar  183  TRP183      0.0001
    203  CH2       20.3310   -2.7610   -9.6590 C.ar  183  TRP183      0.0015
    204  N         15.7320   -2.0980  -15.9610 N.am  184  ASN184     -0.1974
    205  CA        14.9440   -3.2060  -16.5110 C.3   184  ASN184      0.1688
    206  C         15.0350   -3.2980  -18.0410 C.2   184  ASN184      0.2292
    207  O         15.2800   -4.3760  -18.5940 O.2   184  ASN184     -0.2864
    208  CB        13.4740   -3.1040  -16.0840 C.3   184  ASN184      0.1181
    209  CG        13.2560   -3.4220  -14.6110 C.2   184  ASN184      0.2629
    210  OD1       14.1340   -3.9620  -13.9350 O.2   184  ASN184     -0.2716
    211  ND2       12.0700   -3.0890  -14.1080 N.am  184  ASN184     -0.0877
    212  N         18.2590   -4.5820  -20.0830 N.3   187  ALA187     -0.1245
    213  CA        18.5130   -6.0270  -20.1220 C.3   187  ALA187      0.1562
    214  C         17.7070   -6.7620  -21.2040 C.2   187  ALA187      0.2260
    215  O         17.9640   -7.9350  -21.4870 O.2   187  ALA187     -0.2867
    216  CB        18.2480   -6.6470  -18.7560 C.3   187  ALA187      0.0290
@<TRIPOS>BOND
     1   215   214    2
     2   214   213    1
     3   213   212    1
     4   213   216    1
     5   102   101    2
     6   101   100    1
     7   207   206    2
     8   206   205    1
     9   100   103    1
    10   100    99    1
    11   103   104    1
    12   193   192    2
    13   205   208    1
    14   205   204    1
    15   149   150    1
    16   192   204   am
    17   192   191    1
    18   208   209    1
    19   190   191    1
    20   151   152    2
    21   151   150    1
    22   104   105    1
    23   191   194    1
    24   105   106    1
    25   130   131    1
    26   150   153    1
    27   144   143    2
    28   143   142    1
    29   209   211   am
    30   209   210    2
    31   133   132    2
    32   131   132    1
    33   131   134    1
    34   132   141   am
    35   196   195   ar
    36   196   198   ar
    37   194   195    1
    38   106   107    1
    39   187   186    2
    40   141   142    1
    41   153   154    1
    42   142   145    1
    43   186   185    1
    44   195   197   ar
    45   198   199   ar
    46   119   120    2
    47   119   118    1
    48   134   135    1
    49   124   125    1
    50   159   156   ar
    51   159   161   ar
    52   145   146    1
    53   126   127    2
    54   126   125    1
    55   154   156   ar
    56   154   155   ar
    57   181   180    2
    58   108   109    1
    59   184   185    1
    60   156   158   ar
    61   161   162   ar
    62    38    39    1
    63   185   188    1
    64   180   179    1
    65   125   128    1
    66   135   136    1
    67   122   121    1
    68   155   157   ar
    69   197   199   ar
    70   197   200   ar
    71   199   201   ar
    72   118   117    1
    73   118   121    1
    74   117   110   am
    75   121   123    1
    76    69    70    1
    77   110   109    1
    78   110   111    2
    79    31    32    1
    80   109   112    1
    81   158   157   ar
    82   158   160   ar
    83   162   160   ar
    84   146   147    2
    85   146   148   am
    86    39    40    1
    87    39    42    1
    88    74    73    1
    89   183   182    1
    90   188   189    1
    91    70    73    1
    92    70    71    1
    93   128   129    1
    94    33    32    1
    95    33    34    2
    96    43    42    1
    97    43    44    1
    98   200   202   ar
    99    61    62    1
   100   201   203   ar
   101   179   182    1
   102   179   178    1
   103   136   137    1
   104    40    41    2
   105    40    49   am
   106    84    85    1
   107    32    35    1
   108    97    98    2
   109    97    96    1
   110   172   171    2
   111    51    52    2
   112    51    50    1
   113    73    75    1
   114    72    71    2
   115    49    50    1
   116   112   113    1
   117    71    76   am
   118   178   171   am
   119   171   170    1
   120    95    96    1
   121    95    86   am
   122    44    45    1
   123   137   138    2
   124   202   203   ar
   125    85    86    1
   126    85    88    1
   127    62    63    1
   128    62    65    1
   129    35    36    1
   130    35    37    1
   131    50    53    1
   132   169   170    1
   133    63    64    2
   134    86    87    2
   135    76    77    1
   136   113   114    1
   137    53    54    1
   138   170   173    1
   139    78    79    2
   140    78    77    1
   141    45    46    2
   142   138   139    1
   143   138   140    1
   144    65    66    1
   145    77    80    1
   146    66    67    1
   147    88    89    1
   148   166   165    2
   149    23    22    2
   150    54    56   ar
   151    54    55   ar
   152   165   164    1
   153   114   115    2
   154   114   116   am
   155    56    58   ar
   156    46    47    1
   157    46    48    1
   158   173   174    1
   159    80    81    1
   160    91    89   ar
   161    91    93   ar
   162    89    90   ar
   163    55    57   ar
   164    67    68    1
   165    22    21    1
   166    58    59   ar
   167    26    25    1
   168    26    27    1
   169     1     2    1
   170   164   163    1
   171   164   167    1
   172     5     2    1
   173     5     6    1
   174   174   175    1
   175    81    82    2
   176    81    83   am
   177    24    21    1
   178    24    25    1
   179    21    20    1
   180     2     3    1
   181    93    94   ar
   182   168   167    1
   183    57    59   ar
   184    90    92   ar
   185     6     7    1
   186    59    60    1
   187    27    28    2
   188    94    92   ar
   189   175   176    1
   190     3     4    2
   191    28    30    1
   192    28    29    1
   193     7     8    1
   194   176   177    1
   195    19    18   ar
   196    19    17   ar
   197     9    10    1
   198    18    16   ar
   199    17    15   ar
   200    16    14   ar
   201    10    11    1
   202    10    13    1
   203    15    14   ar
   204    14    13    1
   205    11    12    2
