@<TRIPOS>MOLECULE
tmp/3nn0A00.pdb
 125 124 0 0 0
SMALL
GASTEIGER

@<TRIPOS>ATOM
      1  N         44.0690   65.3100   24.9880 N.3    57  GLY57      -0.1225
      2  CA        43.7650   66.6310   24.4860 C.3    57  GLY57       0.1811
      3  C         44.6370   67.7110   25.0820 C.2    57  GLY57       0.2280
      4  O         44.6160   67.9450   26.2810 O.2    57  GLY57      -0.2866
      5  N         45.7450   71.0770   23.1480 N.3    59  TYR59      -0.1241
      6  CA        45.7350   72.4050   22.6390 C.3    59  TYR59       0.1605
      7  C         44.5610   73.3000   22.9760 C.2    59  TYR59       0.2264
      8  O         43.4670   72.8270   23.2490 O.2    59  TYR59      -0.2867
      9  CB        45.9090   72.3490   21.1200 C.3    59  TYR59       0.0534
     10  CG        47.0420   71.4840   20.6350 C.ar   59  TYR59      -0.0201
     11  CD1       48.3480   71.9310   20.6660 C.ar   59  TYR59      -0.0009
     12  CD2       46.7990   70.2220   20.1220 C.ar   59  TYR59      -0.0009
     13  CE1       49.3790   71.1410   20.2120 C.ar   59  TYR59       0.0417
     14  CE2       47.8230   69.4260   19.6690 C.ar   59  TYR59       0.0417
     15  CZ        49.1090   69.8880   19.7140 C.ar   59  TYR59       0.1957
     16  OH        50.1230   69.0820   19.2630 O.3    59  TYR59      -0.2866
     17  N         43.1490   64.1250   10.0890 N.3   166  ASN166     -0.1225
     18  CA        43.7170   64.4080   11.3790 C.3   166  ASN166      0.1785
     19  C         42.6330   64.8830   12.3430 C.2   166  ASN166      0.2597
     20  O         42.4850   64.3370   13.4070 O.2   166  ASN166     -0.2718
     21  CB        44.8770   65.4010   11.1750 C.3   166  ASN166      0.1169
     22  CG        45.2280   66.1770   12.3900 C.2   166  ASN166      0.2627
     23  OD1       44.3720   66.7880   12.9940 O.2   166  ASN166     -0.2716
     24  ND2       46.5000   66.2230   12.7340 N.am  166  ASN166     -0.0877
     25  N         41.8250   65.8490   11.9470 N.am  167  MET167     -0.1965
     26  CA        40.9130   66.4910   12.8710 C.3   167  MET167      0.1736
     27  C         39.6900   65.6430   13.1810 C.2   167  MET167      0.2616
     28  O         39.1520   65.6890   14.3060 O.2   167  MET167     -0.2715
     29  CB        40.4490   67.8200   12.2870 C.3   167  MET167      0.0427
     30  CG        41.5550   68.8240   12.2160 C.3   167  MET167      0.0599
     31  SD        41.8420   69.4540   13.8560 S.3   167  MET167     -0.1393
     32  CE        43.4740   70.1930   13.8060 C.3   167  MET167      0.0692
     33  N         39.1860   64.9280   12.1830 N.am  168  LEU168     -0.1977
     34  CA        37.9880   64.1080   12.4070 C.3   168  LEU168      0.1596
     35  C         38.3310   62.7360   12.9940 C.2   168  LEU168      0.2287
     36  O         37.5260   62.1200   13.6650 O.2   168  LEU168     -0.2864
     37  CB        37.1560   63.9640   11.1440 C.3   168  LEU168      0.0297
     38  CG        36.2070   65.1300   10.9250 C.3   168  LEU168      0.0022
     39  CD1       36.9370   66.4560   10.5730 C.3   168  LEU168      0.0001
     40  CD2       35.1780   64.7780    9.8720 C.3   168  LEU168      0.0001
     41  N         29.9520   66.9340    9.1680 N.3   179  TRP179     -0.1241
     42  CA        30.6240   67.1280   10.4200 C.3   179  TRP179      0.1605
     43  C         31.8340   68.0300   10.2150 C.2   179  TRP179      0.2264
     44  O         32.1390   68.8440   11.1090 O.2   179  TRP179     -0.2867
     45  CB        31.0650   65.8050   10.9610 C.3   179  TRP179      0.0550
     46  CG        31.6740   65.9050   12.2760 C.ar  179  TRP179      0.0003
     47  CD1       32.9500   65.5830   12.5940 C.ar  179  TRP179      0.0946
     48  CD2       31.0490   66.3160   13.4850 C.ar  179  TRP179      0.0152
     49  NE1       33.1740   65.7920   13.9350 N.ar  179  TRP179     -0.2442
     50  CE2       32.0110   66.2230   14.5060 C.ar  179  TRP179      0.0810
     51  CE3       29.7660   66.7320   13.8150 C.ar  179  TRP179      0.0012
     52  CZ2       31.7340   66.5470   15.8290 C.ar  179  TRP179      0.0191
     53  CZ3       29.4850   67.0620   15.1280 C.ar  179  TRP179      0.0001
     54  CH2       30.4630   66.9670   16.1250 C.ar  179  TRP179      0.0015
     55  N         32.7060   71.5470   12.1680 N.3   183  LEU183     -0.1245
     56  CA        33.9530   72.1080   12.6750 C.3   183  LEU183      0.1561
     57  C         34.2690   73.4620   12.0750 C.2   183  LEU183      0.2260
     58  O         34.6530   74.3790   12.7970 O.2   183  LEU183     -0.2867
     59  CB        35.1200   71.1790   12.5040 C.3   183  LEU183      0.0270
     60  CG        34.9330   69.8250   13.1720 C.3   183  LEU183      0.0019
     61  CD1       36.2050   69.0910   13.2150 C.3   183  LEU183      0.0001
     62  CD2       34.3490   69.8700   14.6060 C.3   183  LEU183      0.0001
     63  N         45.2640   75.0600   16.9050 N.3   198  LEU198     -0.1245
     64  CA        46.3700   74.4290   17.5890 C.3   198  LEU198      0.1561
     65  C         47.3150   75.5420   18.0450 C.2   198  LEU198      0.2260
     66  O         48.4540   75.6350   17.5700 O.2   198  LEU198     -0.2867
     67  CB        47.0860   73.4240   16.6900 C.3   198  LEU198      0.0270
     68  CG        46.2110   72.3630   16.0270 C.3   198  LEU198      0.0019
     69  CD1       47.0150   71.5230   15.0310 C.3   198  LEU198      0.0001
     70  CD2       45.5590   71.5140   17.1110 C.3   198  LEU198      0.0001
     71  N         49.0970   61.8710   13.5600 N.3   326  PHE326     -0.1241
     72  CA        47.7040   61.4740   13.5480 C.3   326  PHE326      0.1605
     73  C         47.3300   60.5560   12.3980 C.2   326  PHE326      0.2264
     74  O         47.7030   60.7910   11.2650 O.2   326  PHE326     -0.2867
     75  CB        46.8050   62.6940   13.5820 C.3   326  PHE326      0.0534
     76  CG        46.8250   63.4150   14.8850 C.ar  326  PHE326     -0.0203
     77  CD1       47.8650   64.2470   15.2120 C.ar  326  PHE326     -0.0042
     78  CD2       45.8070   63.2560   15.7840 C.ar  326  PHE326     -0.0042
     79  CE1       47.8840   64.8930   16.3990 C.ar  326  PHE326     -0.0003
     80  CE2       45.8270   63.9070   16.9700 C.ar  326  PHE326     -0.0003
     81  CZ        46.8650   64.7270   17.2770 C.ar  326  PHE326     -0.0000
     82  N         37.9940   61.3270   20.6470 N.3   371  TRP371     -0.1227
     83  CA        36.9760   62.4070   20.5890 C.3   371  TRP371      0.1737
     84  C         35.8170   62.1210   19.6210 C.2   371  TRP371      0.2595
     85  O         35.9330   61.2840   18.7440 O.2   371  TRP371     -0.2718
     86  CB        37.6180   63.7490   20.2530 C.3   371  TRP371      0.0564
     87  CG        38.1380   63.7870   18.8600 C.ar  371  TRP371      0.0003
     88  CD1       37.4710   64.1840   17.7360 C.ar  371  TRP371      0.0946
     89  CD2       39.4220   63.3550   18.4410 C.ar  371  TRP371      0.0152
     90  NE1       38.2700   64.0300   16.6460 N.ar  371  TRP371     -0.2442
     91  CE2       39.4760   63.5230   17.0390 C.ar  371  TRP371      0.0810
     92  CE3       40.5410   62.8370   19.1150 C.ar  371  TRP371      0.0012
     93  CZ2       40.6140   63.2130   16.2890 C.ar  371  TRP371      0.0191
     94  CZ3       41.6740   62.5200   18.3690 C.ar  371  TRP371      0.0001
     95  CH2       41.7060   62.7260   16.9630 C.ar  371  TRP371      0.0015
     96  N         34.6890   62.7960   19.7750 N.am  372  VAL372     -0.1980
     97  CA        33.5180   62.4100   18.9930 C.3   372  VAL372      0.1595
     98  C         33.7320   62.6890   17.5170 C.2   372  VAL372      0.2287
     99  O         34.3440   63.7310   17.1620 O.2   372  VAL372     -0.2864
    100  CB        32.2930   63.2120   19.4320 C.3   372  VAL372      0.0276
    101  CG1       32.6320   64.6950   19.5940 C.3   372  VAL372      0.0022
    102  CG2       31.1950   63.0870   18.4270 C.3   372  VAL372      0.0022
    103  N         32.4460   70.5600   19.5930 N.3   405  PRO405     -0.2102
    104  CA        32.5190   69.1080   19.7890 C.3   405  PRO405      0.1504
    105  C         33.9300   68.5750   19.5670 C.2   405  PRO405      0.2576
    106  O         34.4870   68.7370   18.4800 O.2   405  PRO405     -0.2718
    107  CB        31.5740   68.5630   18.7150 C.3   405  PRO405      0.0282
    108  CG        31.5860   69.5940   17.6400 C.3   405  PRO405      0.0208
    109  CD        31.7160   70.9050   18.3490 C.3   405  PRO405      0.0893
    110  N         34.5000   67.9490   20.5910 N.am  406  GLY406     -0.1943
    111  CA        35.8100   67.3360   20.4780 C.3   406  GLY406      0.2014
    112  C         36.8880   68.1370   21.1820 C.2   406  GLY406      0.2638
    113  O         38.0270   67.6880   21.3060 O.2   406  GLY406     -0.2714
    114  N         36.5250   69.3290   21.6460 N.am  407  TYR407     -0.1973
    115  CA        37.4590   70.1900   22.3600 C.3   407  TYR407      0.1639
    116  C         37.0380   70.3760   23.8130 C.2   407  TYR407      0.2290
    117  O         35.8640   70.2280   24.1530 O.2   407  TYR407     -0.2864
    118  CB        37.5710   71.5500   21.6670 C.3   407  TYR407      0.0560
    119  CG        37.8850   71.4600   20.1900 C.ar  407  TYR407     -0.0198
    120  CD1       38.8980   72.2250   19.6280 C.ar  407  TYR407     -0.0009
    121  CD2       37.1660   70.6110   19.3580 C.ar  407  TYR407     -0.0009
    122  CE1       39.1870   72.1450   18.2790 C.ar  407  TYR407      0.0417
    123  CE2       37.4490   70.5260   18.0080 C.ar  407  TYR407      0.0417
    124  CZ        38.4600   71.2950   17.4740 C.ar  407  TYR407      0.1957
    125  OH        38.7450   71.2140   16.1300 O.3   407  TYR407     -0.2866
@<TRIPOS>BOND
     1    41    42    1
     2    40    38    1
     3    17    18    1
     4    43    42    1
     5    43    44    2
     6    42    45    1
     7    39    38    1
     8    38    37    1
     9    45    46    1
    10    37    34    1
    11    21    18    1
    12    21    22    1
    13    74    73    2
    14    18    19    1
    15    25    19   am
    16    25    26    1
    17    57    56    1
    18    57    58    2
    19    55    56    1
    20    33    34    1
    21    33    27   am
    22    30    29    1
    23    30    31    1
    24    46    47   ar
    25    46    48   ar
    26    29    26    1
    27    19    20    2
    28    22    24   am
    29    22    23    2
    30    73    72    1
    31    34    35    1
    32    59    56    1
    33    59    60    1
    34    47    49   ar
    35    26    27    1
    36    35    36    2
    37    60    61    1
    38    60    62    1
    39    27    28    2
    40    48    51   ar
    41    48    50   ar
    42    72    71    1
    43    72    75    1
    44    75    76    1
    45    32    31    1
    46    51    53   ar
    47    49    50   ar
    48    50    52   ar
    49    76    77   ar
    50    76    78   ar
    51    69    68    1
    52    53    54   ar
    53    77    79   ar
    54    78    80   ar
    55    52    54   ar
    56    68    67    1
    57    68    70    1
    58   125   124    1
    59    93    95   ar
    60    93    91   ar
    61    79    81   ar
    62    90    91   ar
    63    90    88   ar
    64    67    64    1
    65    63    64    1
    66    95    94   ar
    67    80    81   ar
    68    91    89   ar
    69    99    98    2
    70   124   123   ar
    71   124   122   ar
    72    98    97    1
    73    66    65    2
    74    64    65    1
    75   108   109    1
    76   108   107    1
    77    88    87   ar
    78   123   121   ar
    79   122   120   ar
    80   109   103    1
    81    94    92   ar
    82   102   100    1
    83    89    87   ar
    84    89    92   ar
    85   106   105    2
    86   107   104    1
    87    85    84    2
    88    87    86    1
    89    97   100    1
    90    97    96    1
    91    16    15    1
    92   121   119   ar
    93   100   101    1
    94   105   104    1
    95   105   110   am
    96   103   104    1
    97    84    96   am
    98    84    83    1
    99   120   119   ar
   100    14    15   ar
   101    14    12   ar
   102    15    13   ar
   103    12    10   ar
   104   119   118    1
   105    13    11   ar
   106    86    83    1
   107   111   110    1
   108   111   112    1
   109    83    82    1
   110    10    11   ar
   111    10     9    1
   112     9     6    1
   113   112   113    2
   114   112   114   am
   115   114   115    1
   116   118   115    1
   117   115   116    1
   118     6     7    1
   119     6     5    1
   120     7     8    2
   121   116   117    2
   122     2     1    1
   123     2     3    1
   124     3     4    2
