@<TRIPOS>MOLECULE
tmp/3nnbA00.pdb
 130 127 0 0 0
SMALL
GASTEIGER

@<TRIPOS>ATOM
      1  N         48.7080   18.5560    0.5920 N.3    61  GLY61      -0.1210
      2  CA        48.3010   18.0530    1.9030 C.3    61  GLY61       0.1940
      3  C         46.7880   18.2460    2.0620 C.2    61  GLY61       0.2454
      4  O         46.2940   19.3920    1.9820 O.2    61  GLY61      -0.2732
      5  N         46.0230   17.1610    2.2630 N.am   62  PRO62      -0.2717
      6  CA        44.5650   17.3180    2.1500 C.3    62  PRO62       0.1535
      7  C         43.9200   18.2150    3.1930 C.2    62  PRO62       0.2599
      8  O         42.8770   18.7850    2.9160 O.2    62  PRO62      -0.2715
      9  CB        44.0460   15.9040    2.3290 C.3    62  PRO62       0.0310
     10  CG        45.1000   15.1080    1.7850 C.3    62  PRO62       0.0237
     11  CD        46.3890   15.7400    2.1910 C.3    62  PRO62       0.0939
     12  N         44.5270   18.3320    4.3800 N.am   63  TYR63      -0.1960
     13  CA        43.9190   19.1050    5.4720 C.3    63  TYR63       0.1771
     14  C         44.3830   20.5570    5.5390 C.2    63  TYR63       0.2619
     15  O         44.1860   21.2340    6.5590 O.2    63  TYR63      -0.2715
     16  CB        44.1790   18.4200    6.7960 C.3    63  TYR63       0.0574
     17  CG        43.6470   16.9980    6.8950 C.ar   63  TYR63      -0.0198
     18  CD1       42.4530   16.5930    6.3030 C.ar   63  TYR63      -0.0009
     19  CD2       44.3450   16.0630    7.6490 C.ar   63  TYR63      -0.0009
     20  CE1       41.9790   15.2620    6.4540 C.ar   63  TYR63       0.0417
     21  CE2       43.8670   14.7320    7.7890 C.ar   63  TYR63       0.0417
     22  CZ        42.6880   14.3660    7.2110 C.ar   63  TYR63       0.1957
     23  OH        42.2390   13.0510    7.3660 O.3    63  TYR63      -0.2866
     24  N         45.0240   21.0310    4.4670 N.am   64  TRP64      -0.1974
     25  CA        45.6240   22.3710    4.4550 C.3    64  TRP64       0.1640
     26  C         44.7810   23.2870    3.5760 C.2    64  TRP64       0.2290
     27  O         44.4550   22.9430    2.4290 O.2    64  TRP64      -0.2864
     28  CB        47.1160   22.2770    3.9960 C.3    64  TRP64       0.0576
     29  CG        47.9410   21.5640    5.0280 C.ar   64  TRP64       0.0006
     30  CD1       48.0410   20.1960    5.2160 C.ar   64  TRP64       0.0946
     31  CD2       48.6530   22.1610    6.1050 C.ar   64  TRP64       0.0152
     32  NE1       48.8350   19.9320    6.3030 N.ar   64  TRP64      -0.2442
     33  CE2       49.2200   21.1100    6.8760 C.ar   64  TRP64       0.0810
     34  CE3       48.9130   23.4840    6.4740 C.ar   64  TRP64       0.0012
     35  CZ2       50.0290   21.3580    8.0040 C.ar   64  TRP64       0.0191
     36  CZ3       49.7170   23.7260    7.5880 C.ar   64  TRP64       0.0001
     37  CH2       50.2690   22.6690    8.3240 C.ar   64  TRP64       0.0015
     38  N         46.2800   24.3130    8.8230 N.3    78  ARG78      -0.1245
     39  CA        45.7340   22.9720    8.9270 C.3    78  ARG78       0.1563
     40  C         44.3900   22.9300    9.6390 C.2    78  ARG78       0.2260
     41  O         44.1810   23.5850   10.6500 O.2    78  ARG78      -0.2867
     42  CB        46.7210   22.0580    9.6390 C.3    78  ARG78       0.0307
     43  CG        46.3410   20.5970    9.6180 C.3    78  ARG78       0.0489
     44  CD        47.4440   19.8690   10.3400 C.3    78  ARG78       0.2205
     45  NE        47.2420   18.4640   10.6030 N.pl3  78  ARG78      -0.0865
     46  CZ        47.0660   17.9060   11.8000 C.cat  78  ARG78       0.5346
     47  NH1       46.8990   18.6160   12.9150 N.pl3  78  ARG78       0.1354
     48  NH2       46.9720   16.5910   11.8650 N.pl3  78  ARG78       0.1354
     49  N         52.2310   15.6800   -1.4130 N.3   142  GLN142     -0.1245
     50  CA        51.7130   16.5570   -0.3460 C.3   142  GLN142      0.1566
     51  C         52.5280   17.8080   -0.0500 C.2   142  GLN142      0.2260
     52  O         52.9080   18.1120    1.0970 O.2   142  GLN142     -0.2867
     53  CB        51.3820   15.7720    0.9220 C.3   142  GLN142      0.0367
     54  CG        50.2640   14.8020    0.7110 C.3   142  GLN142      0.0905
     55  CD        49.7250   14.2270    1.9930 C.2   142  GLN142      0.2608
     56  OE1       49.7890   14.8710    3.0640 O.2   142  GLN142     -0.2717
     57  NE2       49.1760   13.0070    1.9070 N.am  142  GLN142     -0.0878
     58  N         56.6590   16.2310    1.0310 N.3   152  ARG152     -0.1245
     59  CA        57.0410   15.8300    2.3610 C.3   152  ARG152      0.1563
     60  C         56.7660   14.3380    2.5510 C.2   152  ARG152      0.2260
     61  O         56.0820   13.7290    1.7510 O.2   152  ARG152     -0.2867
     62  CB        56.3350   16.6730    3.4220 C.3   152  ARG152      0.0307
     63  CG        54.8760   16.5610    3.3600 C.3   152  ARG152      0.0489
     64  CD        54.1390   17.4570    4.3360 C.3   152  ARG152      0.2205
     65  NE        52.7220   17.2690    4.1100 N.pl3 152  ARG152     -0.0865
     66  CZ        51.7780   17.3170    5.0500 C.cat 152  ARG152      0.5346
     67  NH1       52.0930   17.6390    6.3050 N.pl3 152  ARG152      0.1354
     68  NH2       50.5150   17.0710    4.7350 N.pl3 152  ARG152      0.1354
     69  N         54.7690   12.6560    4.3210 N.3   154  ALA154     -0.1245
     70  CA        53.3400   12.3380    4.3570 C.3   154  ALA154      0.1562
     71  C         52.7700   11.9840    3.0030 C.2   154  ALA154      0.2260
     72  O         51.8020   11.2590    2.9280 O.2   154  ALA154     -0.2867
     73  CB        52.5560   13.5020    4.9870 C.3   154  ALA154      0.0290
     74  N         51.7180    8.2920    1.8460 N.3   156  ILE156     -0.1245
     75  CA        50.4240    7.6530    2.0950 C.3   156  ILE156      0.1561
     76  C         49.5580    7.6560    0.8270 C.2   156  ILE156      0.2260
     77  O         48.6690    6.8180    0.6910 O.2   156  ILE156     -0.2867
     78  CB        49.6930    8.2740    3.3410 C.3   156  ILE156      0.0252
     79  CG1       48.7290    7.2730    3.9970 C.3   156  ILE156      0.0019
     80  CG2       48.9150    9.5800    2.9700 C.3   156  ILE156      0.0019
     81  CD1       49.3970    6.1040    4.6920 C.3   156  ILE156      0.0001
     82  N         53.6340    7.8470   13.8620 N.3   205  ASN205     -0.1225
     83  CA        52.2060    7.4910   13.8440 C.3   205  ASN205      0.1785
     84  C         51.8870    6.5880   12.6580 C.2   205  ASN205      0.2597
     85  O         52.7470    5.9130   12.1110 O.2   205  ASN205     -0.2718
     86  CB        51.3230    8.7580   13.8770 C.3   205  ASN205      0.1169
     87  CG        51.3550    9.5290   12.5890 C.2   205  ASN205      0.2627
     88  OD1       52.2430    9.2980   11.7400 O.2   205  ASN205     -0.2716
     89  ND2       50.3830   10.4300   12.3920 N.am  205  ASN205     -0.0877
     90  N         50.6340    6.5750   12.2570 N.am  206  ASN206     -0.1960
     91  CA        50.1910    5.7360   11.1470 C.3   206  ASN206      0.1819
     92  C         51.0480    5.8600    9.8750 C.2   206  ASN206      0.2621
     93  O         51.1460    4.9060    9.1010 O.2   206  ASN206     -0.2715
     94  CB        48.6970    5.9560   10.8570 C.3   206  ASN206      0.1195
     95  CG        48.4040    7.2880   10.1890 C.2   206  ASN206      0.2630
     96  OD1       48.6740    7.4400    8.9890 O.2   206  ASN206     -0.2716
     97  ND2       47.8370    8.2630   10.9380 N.am  206  ASN206     -0.0877
     98  N         51.6430    7.0310    9.6490 N.am  207  HIS207     -0.1973
     99  CA        52.4500    7.2000    8.4520 C.3   207  HIS207      0.1656
    100  C         53.6350    6.2860    8.4560 C.2   207  HIS207      0.2291
    101  O         53.9510    5.6970    7.4370 O.2   207  HIS207     -0.2864
    102  CB        52.9200    8.6440    8.2810 C.3   207  HIS207      0.0771
    103  CG        51.9130    9.5430    7.6590 C.ar  207  HIS207      0.0820
    104  ND1       51.7450    9.6380    6.2970 N.ar  207  HIS207     -0.2267
    105  CD2       51.0280   10.4000    8.2110 C.ar  207  HIS207      0.1154
    106  CE1       50.8240   10.5480    6.0350 C.ar  207  HIS207      0.1986
    107  NE2       50.3410   10.9980    7.1780 N.ar  207  HIS207     -0.2212
    108  N         43.5560   12.6800   17.2420 N.3   255  ARG255     -0.1245
    109  CA        43.0480   13.2940   16.0050 C.3   255  ARG255      0.1563
    110  C         41.5790   13.6770   16.0520 C.2   255  ARG255      0.2260
    111  O         40.8090   13.1560   16.8680 O.2   255  ARG255     -0.2867
    112  CB        43.2680   12.3430   14.8330 C.3   255  ARG255      0.0307
    113  CG        44.7510   11.8840   14.6660 C.3   255  ARG255      0.0489
    114  CD        45.7210   13.0290   14.4220 C.3   255  ARG255      0.2205
    115  NE        45.4400   13.6500   13.1430 N.pl3 255  ARG255     -0.0865
    116  CZ        45.8980   13.2170   11.9750 C.cat 255  ARG255      0.5346
    117  NH1       46.6780   12.1240   11.8910 N.pl3 255  ARG255      0.1354
    118  NH2       45.5590   13.8580   10.8600 N.pl3 255  ARG255      0.1354
    119  N         41.2010    7.0580   12.4290 N.3   261  TYR261     -0.1241
    120  CA        42.6250    6.7790   12.4120 C.3   261  TYR261      0.1605
    121  C         42.9960    5.5060   13.2120 C.2   261  TYR261      0.2264
    122  O         43.9570    4.8090   12.8520 O.2   261  TYR261     -0.2867
    123  CB        43.4310    8.0020   12.8750 C.3   261  TYR261      0.0534
    124  CG        43.6730    8.9640   11.7390 C.ar  261  TYR261     -0.0201
    125  CD1       44.4910    8.6140   10.6930 C.ar  261  TYR261     -0.0009
    126  CD2       42.9650   10.1770   11.6280 C.ar  261  TYR261     -0.0009
    127  CE1       44.7000    9.4730    9.6090 C.ar  261  TYR261      0.0417
    128  CE2       43.1740   11.0380   10.5270 C.ar  261  TYR261      0.0417
    129  CZ        44.0530   10.6860    9.5460 C.ar  261  TYR261      0.1957
    130  OH        44.2260   11.5050    8.4420 O.3   261  TYR261     -0.2866
@<TRIPOS>BOND
     1    49    50    1
     2    50    51    1
     3    50    53    1
     4    51    52    2
     5     1     2    1
     6    77    76    2
     7    54    53    1
     8    54    55    1
     9    76    75    1
    10    58    59    1
    11    61    60    2
    12    10    11    1
    13    10     9    1
    14    74    75    1
    15     2     3    1
    16    57    55   am
    17     4     3    2
    18    55    56    2
    19     3     5   am
    20    75    78    1
    21     6     5    1
    22     6     9    1
    23     6     7    1
    24    11     5    1
    25    59    60    1
    26    59    62    1
    27    27    26    2
    28     8     7    2
    29    72    71    2
    30    80    78    1
    31    71    70    1
    32     7    12   am
    33    78    79    1
    34    63    62    1
    35    63    64    1
    36    26    25    1
    37    28    25    1
    38    28    29    1
    39    79    81    1
    40    65    64    1
    41    65    66    2
    42    69    70    1
    43    70    73    1
    44    12    13    1
    45    25    24    1
    46    24    14   am
    47    68    66    1
    48    29    30   ar
    49    29    31   ar
    50    66    67    1
    51    30    32   ar
    52    13    14    1
    53    13    16    1
    54    14    15    2
    55   106   104   ar
    56   106   107   ar
    57    31    34   ar
    58    31    33   ar
    59   104   103   ar
    60    32    33   ar
    61    18    20   ar
    62    18    17   ar
    63    20    22   ar
    64    34    36   ar
    65    16    17    1
    66    33    35   ar
    67    17    19   ar
    68   107   105   ar
    69    22    23    1
    70    22    21   ar
    71   101   100    2
    72    36    37   ar
    73    19    21   ar
    74   103   105   ar
    75   103   102    1
    76    35    37   ar
    77   102    99    1
    78   130   129    1
    79    99   100    1
    80    99    98    1
    81    38    39    1
    82    39    40    1
    83    39    42    1
    84    96    95    2
    85    93    92    2
    86   129   127   ar
    87   129   128   ar
    88   127   125   ar
    89    43    42    1
    90    43    44    1
    91    40    41    2
    92    98    92   am
    93    92    91    1
    94    95    94    1
    95    95    97   am
    96    44    45    1
    97   128   126   ar
    98    45    46    2
    99   125   124   ar
   100    94    91    1
   101   118   116    1
   102    91    90    1
   103   126   124   ar
   104   124   123    1
   105    88    87    2
   106    46    48    1
   107    46    47    1
   108   117   116    1
   109   116   115    2
   110    85    84    2
   111    90    84   am
   112    89    87   am
   113   120   119    1
   114   120   123    1
   115   120   121    1
   116    87    86    1
   117    84    83    1
   118   122   121    2
   119   115   114    1
   120    83    82    1
   121    83    86    1
   122   114   113    1
   123   113   112    1
   124   112   109    1
   125   109   110    1
   126   109   108    1
   127   110   111    2
