@<TRIPOS>MOLECULE
tmp/3nnfA00.pdb
 132 123 0 0 0
SMALL
GASTEIGER

@<TRIPOS>ATOM
      1  N         -6.4230  -11.5490  -18.4070 N.3    63  THR63      -0.1218
      2  CA        -7.2040  -10.9440  -17.3440 C.3    63  THR63       0.1862
      3  C         -8.0410  -12.0140  -16.6790 C.2    63  THR63       0.2287
      4  O         -8.2740  -13.0730  -17.2490 O.2    63  THR63      -0.2866
      5  CB        -8.1330   -9.8360  -17.8670 C.3    63  THR63       0.1770
      6  OG1       -8.9190  -10.3390  -18.9510 O.3    63  THR63      -0.2211
      7  CG2       -7.3280   -8.6500  -18.3450 C.3    63  THR63       0.0375
      8  N        -13.1150   -5.4800  -15.0940 N.3   103  PHE103     -0.1241
      9  CA       -11.8880   -6.1840  -15.4160 C.3   103  PHE103      0.1605
     10  C        -11.1520   -6.4310  -14.1210 C.2   103  PHE103      0.2264
     11  O        -11.1780   -5.5980  -13.2230 O.2   103  PHE103     -0.2867
     12  CB       -10.9920   -5.3510  -16.3370 C.3   103  PHE103      0.0534
     13  CG       -11.6190   -5.0110  -17.6700 C.ar  103  PHE103     -0.0203
     14  CD1      -11.7430   -5.9740  -18.6580 C.ar  103  PHE103     -0.0042
     15  CD2      -12.0540   -3.7240  -17.9430 C.ar  103  PHE103     -0.0042
     16  CE1      -12.3150   -5.6680  -19.8970 C.ar  103  PHE103     -0.0003
     17  CE2      -12.6160   -3.4080  -19.1950 C.ar  103  PHE103     -0.0003
     18  CZ       -12.7500   -4.3850  -20.1570 C.ar  103  PHE103     -0.0000
     19  N         -7.3020   -8.4240  -12.6080 N.3   105  VAL105     -0.1245
     20  CA        -6.0720   -9.1170  -12.9010 C.3   105  VAL105      0.1561
     21  C         -5.5120   -9.6960  -11.6120 C.2   105  VAL105      0.2260
     22  O         -5.6270   -9.0800  -10.5500 O.2   105  VAL105     -0.2867
     23  CB        -5.0340   -8.1680  -13.5250 C.3   105  VAL105      0.0252
     24  CG1       -5.5870   -7.5590  -14.8000 C.3   105  VAL105      0.0019
     25  CG2       -4.6730   -7.0780  -12.5820 C.3   105  VAL105      0.0019
     26  N         -4.9090   -6.5990  -20.0090 N.3   112  LEU112     -0.1245
     27  CA        -5.1130   -6.2210  -21.3980 C.3   112  LEU112      0.1561
     28  C         -3.8590   -5.5730  -21.9920 C.2   112  LEU112      0.2260
     29  O         -3.1800   -4.8050  -21.3130 O.2   112  LEU112     -0.2867
     30  CB        -6.3030   -5.2640  -21.5260 C.3   112  LEU112      0.0270
     31  CG        -7.6410   -5.7430  -20.9510 C.3   112  LEU112      0.0019
     32  CD1       -8.7110   -4.6950  -21.1850 C.3   112  LEU112      0.0001
     33  CD2       -8.0600   -7.0600  -21.5640 C.3   112  LEU112      0.0001
     34  N         -4.2910   -0.8940  -26.3360 N.3   115  HIS115     -0.1241
     35  CA        -5.4690   -0.7960  -27.1820 C.3   115  HIS115      0.1621
     36  C         -6.1330    0.5740  -27.1220 C.2   115  HIS115      0.2264
     37  O         -5.8570    1.3770  -26.2410 O.2   115  HIS115     -0.2867
     38  CB        -6.4750   -1.9140  -26.8710 C.3   115  HIS115      0.0745
     39  CG        -7.1370   -1.7920  -25.5340 C.ar  115  HIS115      0.0817
     40  ND1       -6.5300   -2.1840  -24.3630 N.ar  115  HIS115     -0.2268
     41  CD2       -8.3650   -1.3410  -25.1870 C.ar  115  HIS115      0.1154
     42  CE1       -7.3480   -1.9690  -23.3510 C.ar  115  HIS115      0.1986
     43  NE2       -8.4680   -1.4550  -23.8230 N.ar  115  HIS115     -0.2212
     44  N        -14.5650   -1.6130  -27.3710 N.3   120  SER120     -0.1217
     45  CA       -15.5630   -1.0860  -26.4430 C.3   120  SER120      0.1889
     46  C        -16.6820   -0.3000  -27.1200 C.2   120  SER120      0.2288
     47  O        -17.8400   -0.3930  -26.7350 O.2   120  SER120     -0.2866
     48  CB       -14.8890   -0.1990  -25.3970 C.3   120  SER120      0.2089
     49  OG       -13.8370   -0.8820  -24.7480 O.3   120  SER120     -0.2183
     50  N        -12.7840    4.8780  -15.5040 N.3   134  TRP134     -0.1241
     51  CA       -12.1740    3.6560  -15.0200 C.3   134  TRP134      0.1605
     52  C        -12.0600    3.8200  -13.5180 C.2   134  TRP134      0.2264
     53  O        -11.3420    4.6990  -13.0570 O.2   134  TRP134     -0.2867
     54  CB       -10.7800    3.5050  -15.6540 C.3   134  TRP134      0.0550
     55  CG        -9.9810    2.2710  -15.2680 C.ar  134  TRP134      0.0003
     56  CD1      -10.1290    1.0130  -15.7670 C.ar  134  TRP134      0.0946
     57  CD2       -8.8750    2.2080  -14.3440 C.ar  134  TRP134      0.0152
     58  NE1       -9.1990    0.1660  -15.2060 N.ar  134  TRP134     -0.2442
     59  CE2       -8.4150    0.8760  -14.3340 C.ar  134  TRP134      0.0810
     60  CE3       -8.2310    3.1480  -13.5310 C.ar  134  TRP134      0.0012
     61  CZ2       -7.3550    0.4570  -13.5250 C.ar  134  TRP134      0.0191
     62  CZ3       -7.1690    2.7350  -12.7450 C.ar  134  TRP134      0.0001
     63  CH2       -6.7480    1.4000  -12.7400 C.ar  134  TRP134      0.0015
     64  N         -2.9570    0.9050  -14.8370 N.3   148  MET148     -0.1245
     65  CA        -2.9000    1.1060  -16.2770 C.3   148  MET148      0.1570
     66  C         -1.8360    2.1050  -16.6860 C.2   148  MET148      0.2261
     67  O         -1.4600    2.9720  -15.9100 O.2   148  MET148     -0.2867
     68  CB        -4.2180    1.6420  -16.8110 C.3   148  MET148      0.0387
     69  CG        -5.3220    0.6360  -16.9620 C.3   148  MET148      0.0595
     70  SD        -6.5030    1.4710  -18.0380 S.3   148  MET148     -0.1393
     71  CE        -7.8050    0.3470  -17.9590 C.3   148  MET148      0.0692
     72  N        -11.0390    8.9660  -19.7510 N.3   222  PHE222     -0.1241
     73  CA       -10.3150    8.9880  -21.0320 C.3   222  PHE222      0.1605
     74  C        -11.2190    8.7380  -22.2050 C.2   222  PHE222      0.2264
     75  O        -12.1340    7.9180  -22.1240 O.2   222  PHE222     -0.2867
     76  CB        -9.1760    7.9620  -21.0440 C.3   222  PHE222      0.0534
     77  CG        -9.6350    6.5290  -20.8880 C.ar  222  PHE222     -0.0203
     78  CD1      -10.0800    6.0500  -19.6470 C.ar  222  PHE222     -0.0042
     79  CD2       -9.5830    5.6540  -21.9610 C.ar  222  PHE222     -0.0042
     80  CE1      -10.4890    4.7460  -19.5010 C.ar  222  PHE222     -0.0003
     81  CE2       -9.9900    4.3330  -21.8190 C.ar  222  PHE222     -0.0003
     82  CZ       -10.4440    3.8750  -20.5960 C.ar  222  PHE222     -0.0000
     83  N         -4.0920    2.6490  -24.3560 N.3   228  HIS228     -0.1241
     84  CA        -3.9130    2.3060  -22.9510 C.3   228  HIS228      0.1621
     85  C         -3.7590    0.8020  -22.7990 C.2   228  HIS228      0.2264
     86  O         -4.1050    0.0460  -23.7210 O.2   228  HIS228     -0.2867
     87  CB        -5.1000    2.8460  -22.1200 C.3   228  HIS228      0.0745
     88  CG        -6.4220    2.2240  -22.4590 C.ar  228  HIS228      0.0817
     89  ND1       -7.1290    2.5400  -23.5990 N.ar  228  HIS228     -0.2268
     90  CD2       -7.1760    1.3170  -21.7950 C.ar  228  HIS228      0.1154
     91  CE1       -8.2510    1.8470  -23.6300 C.ar  228  HIS228      0.1986
     92  NE2       -8.3080    1.1000  -22.5440 N.ar  228  HIS228     -0.2212
     93  N         -3.3080   -2.5320  -19.3970 N.3   230  SER230     -0.1217
     94  CA        -3.0850   -2.9740  -18.0320 C.3   230  SER230      0.1889
     95  C         -1.6020   -3.1400  -17.7680 C.2   230  SER230      0.2288
     96  O         -0.8380   -3.4430  -18.6750 O.2   230  SER230     -0.2866
     97  CB        -3.7570   -4.3240  -17.7770 C.3   230  SER230      0.2089
     98  OG        -5.0830   -4.3620  -18.2500 O.3   230  SER230     -0.2183
     99  N         -7.0510   -7.5440   -8.3540 N.3   241  ARG241     -0.1245
    100  CA        -7.3640   -6.1270   -8.4660 C.3   241  ARG241      0.1563
    101  C         -8.4790   -5.9520   -9.4830 C.2   241  ARG241      0.2260
    102  O         -8.4030   -6.4640  -10.5930 O.2   241  ARG241     -0.2867
    103  CB        -6.1320   -5.3100   -8.8400 C.3   241  ARG241      0.0307
    104  CG        -5.9760   -5.0350  -10.3140 C.3   241  ARG241      0.0489
    105  CD        -6.5820   -3.7020  -10.7020 C.3   241  ARG241      0.2205
    106  NE        -5.9870   -3.2080  -11.9370 N.pl3 241  ARG241     -0.0865
    107  CZ        -6.5220   -3.3650  -13.1400 C.cat 241  ARG241      0.5346
    108  NH1       -7.6780   -3.9910  -13.2760 N.pl3 241  ARG241      0.1354
    109  NH2       -5.9040   -2.8870  -14.2050 N.pl3 241  ARG241      0.1354
    110  N        -11.4090   -3.3890  -11.4730 N.3   243  ALA243     -0.1245
    111  CA       -11.7380   -2.0390  -11.8650 C.3   243  ALA243      0.1562
    112  C        -13.0840   -2.0880  -12.5460 C.2   243  ALA243      0.2260
    113  O        -13.3740   -2.9930  -13.3380 O.2   243  ALA243     -0.2867
    114  CB       -10.6910   -1.4610  -12.7770 C.3   243  ALA243      0.0290
    115  N        -15.6890   -0.0950  -15.0280 N.3   245  VAL245     -0.1245
    116  CA       -15.5110    0.8530  -16.1110 C.3   245  VAL245      0.1561
    117  C        -16.8530    1.2440  -16.6900 C.2   245  VAL245      0.2260
    118  O        -17.6230    0.3840  -17.1020 O.2   245  VAL245     -0.2867
    119  CB       -14.6420    0.2290  -17.2520 C.3   245  VAL245      0.0252
    120  CG1      -14.2970    1.2770  -18.3000 C.3   245  VAL245      0.0019
    121  CG2      -13.3730   -0.3560  -16.6710 C.3   245  VAL245      0.0019
    122  N        -18.8080    3.1610  -19.7580 N.3   247  ARG247     -0.1245
    123  CA       -18.6770    3.7490  -21.0920 C.3   247  ARG247      0.1563
    124  C        -19.7550    4.7860  -21.3300 C.2   247  ARG247      0.2260
    125  O        -20.9390    4.5210  -21.1370 O.2   247  ARG247     -0.2867
    126  CB       -18.7490    2.6790  -22.1890 C.3   247  ARG247      0.0307
    127  CG       -17.9290    1.4510  -21.8710 C.3   247  ARG247      0.0489
    128  CD       -16.4370    1.7470  -21.8670 C.3   247  ARG247      0.2205
    129  NE       -15.7020    0.4910  -21.8390 N.pl3 247  ARG247     -0.0865
    130  CZ       -14.3840    0.3800  -21.7650 C.cat 247  ARG247      0.5346
    131  NH1      -13.6240    1.4660  -21.7170 N.pl3 247  ARG247      0.1354
    132  NH2      -13.8320   -0.8280  -21.7460 N.pl3 247  ARG247      0.1354
@<TRIPOS>BOND
     1    44    45    1
     2    35    36    1
     3    35    38    1
     4    35    34    1
     5    36    37    2
     6    46    47    2
     7    46    45    1
     8    38    39    1
     9    45    48    1
    10    39    41   ar
    11    39    40   ar
    12    48    49    1
    13    41    43   ar
    14    40    42   ar
    15    83    84    1
    16    43    42   ar
    17    86    85    2
    18    91    89   ar
    19    91    92   ar
    20    89    88   ar
    21    84    85    1
    22    84    87    1
    23    92    90   ar
    24    88    87    1
    25    88    90   ar
    26    74    75    2
    27    74    73    1
    28   126   127    1
    29   126   123    1
    30    28    27    1
    31    28    29    2
    32    79    81   ar
    33    79    77   ar
    34   127   128    1
    35   128   129    1
    36   129   130    2
    37    81    82   ar
    38   130   132    1
    39   130   131    1
    40    33    31    1
    41    30    27    1
    42    30    31    1
    43    27    26    1
    44   124   125    2
    45   124   123    1
    46    32    31    1
    47   123   122    1
    48    76    73    1
    49    76    77    1
    50    73    72    1
    51    77    78   ar
    52    82    80   ar
    53    18    16   ar
    54    18    17   ar
    55    16    14   ar
    56    78    80   ar
    57    93    94    1
    58    17    15   ar
    59     6     5    1
    60    96    95    2
    61    14    13   ar
    62     1     2    1
    63     7     5    1
    64   120   119    1
    65    98    97    1
    66    70    71    1
    67    70    69    1
    68    94    97    1
    69    94    95    1
    70    15    13   ar
    71     5     2    1
    72    13    12    1
    73     2     3    1
    74   119   121    1
    75   119   116    1
    76     4     3    2
    77   118   117    2
    78    69    68    1
    79    68    65    1
    80   117   116    1
    81    66    65    1
    82    66    67    2
    83    12     9    1
    84    65    64    1
    85   116   115    1
    86    56    55   ar
    87    56    58   ar
    88    54    55    1
    89    54    51    1
    90    50    51    1
    91     9     8    1
    92     9    10    1
    93    55    57   ar
    94    58    59   ar
    95    51    52    1
    96    24    23    1
    97    57    59   ar
    98    57    60   ar
    99    59    61   ar
   100   109   107    1
   101    10    11    2
   102    60    62   ar
   103    23    20    1
   104    23    25    1
   105    61    63   ar
   106    52    53    2
   107   113   112    2
   108   108   107    1
   109   107   106    2
   110    20    19    1
   111    20    21    1
   112   114   111    1
   113    62    63   ar
   114   112   111    1
   115   106   105    1
   116   111   110    1
   117    21    22    2
   118   105   104    1
   119   102   101    2
   120   104   103    1
   121   101   100    1
   122   103   100    1
   123   100    99    1
