@<TRIPOS>MOLECULE
tmp/3nnuA00.pdb
 186 176 0 0 0
SMALL
GASTEIGER

@<TRIPOS>ATOM
      1  N         19.4060   12.8980   38.0700 N.3    34  VAL34      -0.1245
      2  CA        19.2560   11.6200   37.4070 C.3    34  VAL34       0.1561
      3  C         19.8500   10.5640   38.3300 C.2    34  VAL34       0.2260
      4  O         20.8060   10.8590   39.0530 O.2    34  VAL34      -0.2867
      5  CB        19.9830   11.6300   36.0250 C.3    34  VAL34       0.0252
      6  CG1       19.7200   10.3680   35.2490 C.3    34  VAL34       0.0019
      7  CG2       19.5640   12.8460   35.2050 C.3    34  VAL34       0.0019
      8  N         17.9090    4.9190   33.5230 N.3    47  ALA47      -0.1231
      9  CA        18.0990    6.2390   34.1380 C.3    47  ALA47       0.1694
     10  C         16.7400    6.8450   34.4670 C.2    47  ALA47       0.2592
     11  O         15.7910    6.6950   33.7040 O.2    47  ALA47      -0.2718
     12  CB        18.9190    7.1530   33.2360 C.3    47  ALA47       0.0304
     13  N         16.6460    7.4960   35.6230 N.am   48  VAL48      -0.1966
     14  CA        15.4160    8.1470   36.0660 C.3    48  VAL48       0.1727
     15  C         15.7450    9.5870   36.4060 C.2    48  VAL48       0.2616
     16  O         16.5310    9.8420   37.3100 O.2    48  VAL48      -0.2715
     17  CB        14.7550    7.4830   37.3650 C.3    48  VAL48       0.0290
     18  CG1       13.3410    7.9930   37.5660 C.3    48  VAL48       0.0023
     19  CG2       14.7350    5.9400   37.3180 C.3    48  VAL48       0.0023
     20  N         15.1250   10.5200   35.6850 N.am   49  LYS49      -0.1977
     21  CA        15.3150   11.9530   35.8920 C.3    49  LYS49       0.1596
     22  C         14.1620   12.5180   36.6880 C.2    49  LYS49       0.2287
     23  O         13.0090   12.4340   36.2770 O.2    49  LYS49      -0.2864
     24  CB        15.3960   12.6460   34.5430 C.3    49  LYS49       0.0298
     25  CG        15.7670   14.1310   34.5300 C.3    49  LYS49       0.0038
     26  CD        15.7860   14.6360   33.0620 C.3    49  LYS49       0.0206
     27  CE        15.7980   16.1500   32.9510 C.3    49  LYS49       0.1093
     28  NZ        16.0250   16.6100   31.5040 N.3    49  LYS49      -0.1314
     29  N          8.8550   23.9810   29.6770 N.3    63  ARG63      -0.1245
     30  CA        10.0490   23.1670   29.4700 C.3    63  ARG63       0.1563
     31  C          9.7930   21.7040   29.8420 C.2    63  ARG63       0.2260
     32  O         10.3100   20.7900   29.1750 O.2    63  ARG63      -0.2867
     33  CB        11.1710   23.7300   30.3420 C.3    63  ARG63       0.0307
     34  CG        12.5770   23.4880   29.8500 C.3    63  ARG63       0.0489
     35  CD        13.4960   24.5000   30.5110 C.3    63  ARG63       0.2205
     36  NE        14.7610   24.6370   29.7920 N.pl3  63  ARG63      -0.0865
     37  CZ        15.7030   23.6970   29.7720 C.cat  63  ARG63       0.5346
     38  NH1       15.5190   22.5480   30.4300 N.pl3  63  ARG63       0.1354
     39  NH2       16.8250   23.8970   29.0940 N.pl3  63  ARG63       0.1354
     40  N          7.4430   20.4900   27.2960 N.3    66  ARG66      -0.1231
     41  CA         8.2520   20.2490   26.0880 C.3    66  ARG66       0.1694
     42  C          9.0470   18.9390   26.1130 C.2    66  ARG66       0.2591
     43  O          8.9230   18.1410   25.1840 O.2    66  ARG66      -0.2718
     44  CB         9.1880   21.4320   25.7900 C.3    66  ARG66       0.0321
     45  CG         9.9280   21.3440   24.4500 C.3    66  ARG66       0.0489
     46  CD        10.8180   22.5530   24.2950 C.3    66  ARG66       0.2205
     47  NE        10.0700   23.7910   24.0880 N.pl3  66  ARG66      -0.0865
     48  CZ         9.9920   24.7940   24.9650 C.cat  66  ARG66       0.5346
     49  NH1       10.6270   24.7340   26.1170 N.pl3  66  ARG66       0.1354
     50  NH2        9.2750   25.8730   24.6770 N.pl3  66  ARG66       0.1354
     51  N          9.8410   18.7070   27.1670 N.am   67  GLU67      -0.1979
     52  CA        10.6340   17.4670   27.2710 C.3    67  GLU67       0.1602
     53  C          9.7710   16.2200   27.1870 C.2    67  GLU67       0.2287
     54  O         10.0790   15.2920   26.4510 O.2    67  GLU67      -0.2864
     55  CB        11.4950   17.4150   28.5340 C.3    67  GLU67       0.0415
     56  CG        12.3690   16.1620   28.5800 C.3    67  GLU67       0.1163
     57  CD        13.4930   16.2610   29.6010 C.2    67  GLU67       0.3649
     58  OE1       13.3460   17.0100   30.5720 O.co2  67  GLU67      -0.2457
     59  OE2       14.5290   15.5930   29.4420 O.co2  67  GLU67      -0.2457
     60  N          8.5020   15.7300   23.7110 N.3    70  LEU70      -0.1231
     61  CA         9.6030   15.2480   22.8850 C.3    70  LEU70       0.1693
     62  C          9.8700   13.7820   23.1250 C.2    70  LEU70       0.2591
     63  O          9.9920   13.0010   22.1820 O.2    70  LEU70      -0.2718
     64  CB        10.9030   16.0460   23.1110 C.3    70  LEU70       0.0284
     65  CG        11.1020   17.3090   22.2620 C.3    70  LEU70       0.0019
     66  CD1       12.3000   18.1070   22.7980 C.3    70  LEU70       0.0001
     67  CD2       11.2640   16.9870   20.7770 C.3    70  LEU70       0.0001
     68  N          9.9590   13.4280   24.4000 N.am   71  LEU71      -0.1980
     69  CA        10.3780   12.1040   24.7890 C.3    71  LEU71       0.1596
     70  C          9.3300   11.0720   24.4340 C.2    71  LEU71       0.2287
     71  O          9.6620   10.0230   23.9190 O.2    71  LEU71      -0.2864
     72  CB        10.7630   12.0670   26.2740 C.3    71  LEU71       0.0297
     73  CG        12.1440   12.6530   26.6250 C.3    71  LEU71       0.0022
     74  CD1       12.4140   12.5860   28.1460 C.3    71  LEU71       0.0001
     75  CD2       13.2410   11.9380   25.8170 C.3    71  LEU71       0.0001
     76  N          9.7110   10.4170   20.5140 N.3    74  MET74      -0.1245
     77  CA        10.9020    9.7800   19.9210 C.3    74  MET74       0.1570
     78  C         10.8340    8.2760   19.9770 C.2    74  MET74       0.2261
     79  O         10.9250    7.7160   21.0700 O.2    74  MET74      -0.2867
     80  CB        12.1850   10.1970   20.6340 C.3    74  MET74       0.0387
     81  CG        12.4730   11.6800   20.6660 C.3    74  MET74       0.0595
     82  SD        12.5210   12.3270   19.0060 S.3    74  MET74      -0.1393
     83  CE        10.9820   13.2400   18.8820 C.3    74  MET74       0.0692
     84  N         17.8150    7.3000   18.9300 N.3    79  VAL79      -0.1231
     85  CA        17.3790    8.4410   19.7420 C.3    79  VAL79       0.1692
     86  C         16.8300    7.9330   21.0640 C.2    79  VAL79       0.2591
     87  O         16.1470    6.9160   21.1190 O.2    79  VAL79      -0.2718
     88  CB        16.2700    9.3100   19.0460 C.3    79  VAL79       0.0266
     89  CG1       15.9360   10.5780   19.8840 C.3    79  VAL79       0.0020
     90  CG2       16.6480    9.6760   17.5670 C.3    79  VAL79       0.0020
     91  N         17.1020    8.6680   22.1310 N.am   80  ILE80      -0.1980
     92  CA        16.5950    8.2910   23.4020 C.3    80  ILE80       0.1595
     93  C         15.0630    8.1070   23.2790 C.2    80  ILE80       0.2287
     94  O         14.3940    8.9350   22.6970 O.2    80  ILE80      -0.2864
     95  CB        17.0100    9.3140   24.5050 C.3    80  ILE80       0.0276
     96  CG1       16.5340    8.8250   25.8840 C.3    80  ILE80       0.0022
     97  CG2       16.4570   10.7640   24.2210 C.3    80  ILE80       0.0022
     98  CD1       17.1200    9.6010   27.0560 C.3    80  ILE80       0.0001
     99  N         11.0510   10.8320   34.7560 N.3   100  LEU100     -0.1245
    100  CA        11.1960   10.2810   33.4120 C.3   100  LEU100      0.1561
    101  C         12.1690    9.1190   33.4370 C.2   100  LEU100      0.2260
    102  O         13.2280    9.2140   34.0480 O.2   100  LEU100     -0.2867
    103  CB        11.7200   11.3650   32.4640 C.3   100  LEU100      0.0270
    104  CG        10.8690   12.6290   32.3800 C.3   100  LEU100      0.0019
    105  CD1       11.6740   13.7670   31.8370 C.3   100  LEU100      0.0001
    106  CD2        9.5980   12.4210   31.5410 C.3   100  LEU100      0.0001
    107  N         14.3760    6.3210   31.1830 N.3   102  THR102     -0.1218
    108  CA        14.9520    5.8960   29.9190 C.3   102  THR102      0.1862
    109  C         15.9560    4.7710   30.2060 C.2   102  THR102      0.2287
    110  O         16.3180    4.5480   31.3740 O.2   102  THR102     -0.2866
    111  CB        15.6850    7.0880   29.2170 C.3   102  THR102      0.1770
    112  OG1       16.9140    7.3950   29.9120 O.3   102  THR102     -0.2211
    113  CG2       14.8170    8.3520   29.2180 C.3   102  THR102      0.0375
    114  N         14.7780   12.8120   13.6120 N.3   137  ILE137     -0.1245
    115  CA        14.4820   14.0200   14.3730 C.3   137  ILE137      0.1561
    116  C         14.0670   15.1730   13.4340 C.2   137  ILE137      0.2260
    117  O         13.0410   15.7970   13.6300 O.2   137  ILE137     -0.2867
    118  CB        15.7090   14.3880   15.2690 C.3   137  ILE137      0.0252
    119  CG1       15.8870   13.3780   16.4160 C.3   137  ILE137      0.0019
    120  CG2       15.6240   15.7800   15.8580 C.3   137  ILE137      0.0019
    121  CD1       17.3860   13.2300   16.8720 C.3   137  ILE137      0.0001
    122  N         12.0490   18.6930   14.3760 N.3   142  ILE142     -0.1231
    123  CA        12.6890   18.8560   15.6640 C.3   142  ILE142      0.1692
    124  C         14.1660   19.1110   15.4430 C.2   142  ILE142      0.2592
    125  O         14.8320   18.3780   14.6970 O.2   142  ILE142     -0.2718
    126  CB        12.4990   17.6540   16.5990 C.3   142  ILE142      0.0266
    127  CG1       11.0260   17.5100   16.9540 C.3   142  ILE142      0.0019
    128  CG2       13.3300   17.8670   17.8760 C.3   142  ILE142      0.0020
    129  CD1       10.6300   16.1140   17.1870 C.3   142  ILE142      0.0001
    130  N         14.6560   20.1710   16.0860 N.am  143  ILE143     -0.1966
    131  CA        16.0480   20.5470   15.9990 C.3   143  ILE143      0.1727
    132  C         16.7000   20.2590   17.3400 C.2   143  ILE143      0.2616
    133  O         16.1960   20.6640   18.3650 O.2   143  ILE143     -0.2715
    134  CB        16.1830   22.0270   15.6730 C.3   143  ILE143      0.0290
    135  CG1       15.4710   22.3340   14.3420 C.3   143  ILE143      0.0022
    136  CG2       17.6550   22.4170   15.6200 C.3   143  ILE143      0.0023
    137  CD1       15.1030   23.8430   14.1490 C.3   143  ILE143      0.0001
    138  N         17.8170   19.5490   17.3410 N.am  144  HIS144     -0.1973
    139  CA        18.4520   19.2720   18.5920 C.3   144  HIS144      0.1656
    140  C         19.0370   20.5530   19.1990 C.2   144  HIS144      0.2291
    141  O         18.7190   20.8980   20.3460 O.2   144  HIS144     -0.2864
    142  CB        19.5020   18.1830   18.4410 C.3   144  HIS144      0.0771
    143  CG        19.9820   17.6650   19.7450 C.ar  144  HIS144      0.0820
    144  ND1       20.7120   18.4410   20.6200 N.ar  144  HIS144     -0.2267
    145  CD2       19.7780   16.4810   20.3670 C.ar  144  HIS144      0.1154
    146  CE1       20.9740   17.7410   21.7100 C.ar  144  HIS144      0.1986
    147  NE2       20.4180   16.5480   21.5830 N.ar  144  HIS144     -0.2212
    148  N         21.2260    9.5890   20.3420 N.3   162  ILE162     -0.1231
    149  CA        21.1620   11.0070   20.6300 C.3   162  ILE162      0.1692
    150  C         20.2120   11.2550   21.8070 C.2   162  ILE162      0.2592
    151  O         19.1030   10.6990   21.8670 O.2   162  ILE162     -0.2718
    152  CB        20.6690   11.7860   19.3830 C.3   162  ILE162      0.0266
    153  CG1       21.6830   11.6150   18.2200 C.3   162  ILE162      0.0019
    154  CG2       20.3360   13.2600   19.7410 C.3   162  ILE162      0.0020
    155  CD1       21.1490   11.8710   16.8320 C.3   162  ILE162      0.0001
    156  N         20.6650   12.0760   22.7440 N.am  163  LEU163     -0.1966
    157  CA        19.8470   12.5580   23.8510 C.3   163  LEU163      0.1728
    158  C         20.2360   13.9950   24.1710 C.2   163  LEU163      0.2616
    159  O         21.1070   14.5730   23.5150 O.2   163  LEU163     -0.2715
    160  CB        20.0340   11.6630   25.0960 C.3   163  LEU163      0.0311
    161  CG        21.4460   11.2250   25.5190 C.3   163  LEU163      0.0022
    162  CD1       22.1910   12.2920   26.2680 C.3   163  LEU163      0.0001
    163  CD2       21.2900   10.0920   26.4090 C.3   163  LEU163      0.0001
    164  N         19.5770   14.5650   25.1710 N.am  164  ASP164     -0.1957
    165  CA        19.9910   15.8240   25.7490 C.3   164  ASP164      0.1840
    166  C         19.9450   15.6930   27.2420 C.2   164  ASP164      0.2622
    167  O         18.8700   15.6220   27.8450 O.2   164  ASP164     -0.2715
    168  CB        19.1160   16.9850   25.3000 C.3   164  ASP164      0.1450
    169  CG        19.7640   18.3310   25.5450 C.2   164  ASP164      0.3671
    170  OD1       20.4940   18.5240   26.5400 O.co2 164  ASP164     -0.2456
    171  OD2       19.5430   19.2240   24.7240 O.co2 164  ASP164     -0.2456
    172  N         21.1470   15.6850   27.8090 N.am  165  PHE165     -0.1960
    173  CA        21.4130   15.4270   29.2060 C.3   165  PHE165      0.1771
    174  C         21.5960   16.7330   29.9790 C.2   165  PHE165      0.2620
    175  O         22.1470   16.7210   31.0980 O.2   165  PHE165     -0.2715
    176  CB        22.7140   14.6360   29.3230 C.3   165  PHE165      0.0574
    177  CG        22.6970   13.5930   30.3900 C.ar  165  PHE165     -0.0200
    178  CD1       22.3450   13.9140   31.7010 C.ar  165  PHE165     -0.0042
    179  CD2       23.0580   12.2810   30.0860 C.ar  165  PHE165     -0.0042
    180  CE1       22.3490   12.9380   32.7080 C.ar  165  PHE165     -0.0003
    181  CE2       23.0550   11.2940   31.0670 C.ar  165  PHE165     -0.0003
    182  CZ        22.6980   11.6240   32.3920 C.ar  165  PHE165     -0.0000
    183  N         21.1600   17.8500   29.3920 N.am  166  GLY166     -0.1954
    184  CA        21.2720   19.1530   30.0420 C.3   166  GLY166      0.1869
    185  C         20.3760   19.3040   31.2670 C.2   166  GLY166      0.2309
    186  O         19.1440   19.2660   31.1850 O.2   166  GLY166     -0.2863
@<TRIPOS>BOND
     1   116   117    2
     2   116   115    1
     3   114   115    1
     4   137   135    1
     5   135   134    1
     6   115   118    1
     7   122   123    1
     8   125   124    2
     9   118   120    1
    10   118   119    1
    11   124   123    1
    12   124   130   am
    13   136   134    1
    14   123   126    1
    15   134   131    1
    16   131   130    1
    17   131   132    1
    18   119   121    1
    19   126   127    1
    20   126   128    1
    21   155   153    1
    22   127   129    1
    23   132   138   am
    24   132   133    2
    25   138   139    1
    26    90    88    1
    27   153   152    1
    28   142   139    1
    29   142   143    1
    30   139   140    1
    31    83    82    1
    32    84    85    1
    33    82    81    1
    34    88    85    1
    35    88    89    1
    36   140   141    2
    37   152   154    1
    38   152   149    1
    39    85    86    1
    40   143   145   ar
    41   143   144   ar
    42    77    78    1
    43    77    76    1
    44    77    80    1
    45    78    79    2
    46   148   149    1
    47   145   147   ar
    48   144   146   ar
    49   149   150    1
    50    80    81    1
    51    67    65    1
    52    86    87    2
    53    86    91   am
    54   147   146   ar
    55   150   151    2
    56   150   156   am
    57    91    92    1
    58    63    62    2
    59    65    66    1
    60    65    64    1
    61    94    93    2
    62   156   157    1
    63    61    64    1
    64    61    62    1
    65    61    60    1
    66    62    68   am
    67    93    92    1
    68    92    95    1
    69   159   158    2
    70   157   158    1
    71   157   160    1
    72    71    70    2
    73    47    46    1
    74    47    48    2
    75   158   164   am
    76    97    95    1
    77    46    45    1
    78    68    69    1
    79    70    69    1
    80    45    44    1
    81    95    96    1
    82    50    48    1
    83   171   169   ar
    84    69    72    1
    85    48    49    1
    86   160   161    1
    87   164   165    1
    88    43    42    2
    89   168   169    1
    90   168   165    1
    91   161   162    1
    92   161   163    1
    93   169   170   ar
    94   165   166    1
    95    44    41    1
    96    75    73    1
    97    96    98    1
    98    41    42    1
    99    41    40    1
   100    42    51   am
   101    72    73    1
   102    54    53    2
   103    73    74    1
   104    51    52    1
   105    53    52    1
   106   166   172   am
   107   166   167    2
   108    52    55    1
   109   172   173    1
   110    55    56    1
   111    56    57    1
   112    39    37    1
   113    32    31    2
   114   173   176    1
   115   173   174    1
   116   111   113    1
   117   111   112    1
   118   111   108    1
   119   176   177    1
   120   183   174   am
   121   183   184    1
   122    59    57   ar
   123    30    29    1
   124    30    31    1
   125    30    33    1
   126    57    58   ar
   127    37    36    2
   128    37    38    1
   129    36    35    1
   130    34    33    1
   131    34    35    1
   132   108   109    1
   133   108   107    1
   134   174   175    2
   135   184   185    1
   136   179   177   ar
   137   179   181   ar
   138   109   110    2
   139   177   178   ar
   140   181   182   ar
   141   186   185    2
   142    28    27    1
   143   106   104    1
   144   178   180   ar
   145   105   104    1
   146   104   103    1
   147   182   180   ar
   148   103   100    1
   149    27    26    1
   150    26    25    1
   151    12     9    1
   152   100   101    1
   153   100    99    1
   154   101   102    2
   155     8     9    1
   156    11    10    2
   157     9    10    1
   158    10    13   am
   159    25    24    1
   160    24    21    1
   161     7     5    1
   162     6     5    1
   163    13    14    1
   164    20    21    1
   165    20    15   am
   166    21    22    1
   167     5     2    1
   168    14    15    1
   169    14    17    1
   170    23    22    2
   171    15    16    2
   172    19    17    1
   173    17    18    1
   174     2     1    1
   175     2     3    1
   176     3     4    2
