@<TRIPOS>MOLECULE
tmp/3nnwA00.pdb
 197 187 0 0 0
SMALL
GASTEIGER

@<TRIPOS>ATOM
      1  N         19.3950   12.9580   37.8320 N.3    35  VAL35      -0.1245
      2  CA        19.2490   11.6550   37.2360 C.3    35  VAL35       0.1561
      3  C         19.9140   10.5850   38.1170 C.2    35  VAL35       0.2260
      4  O         21.0080   10.8280   38.6550 O.2    35  VAL35      -0.2867
      5  CB        19.8870   11.6630   35.8520 C.3    35  VAL35       0.0252
      6  CG1       19.8140   10.2840   35.2090 C.3    35  VAL35       0.0019
      7  CG2       19.1870   12.7510   34.9590 C.3    35  VAL35       0.0019
      8  N         17.8440    4.8840   33.4420 N.3    48  ALA48      -0.1231
      9  CA        18.1090    6.1740   34.0220 C.3    48  ALA48       0.1694
     10  C         16.7620    6.7490   34.4090 C.2    48  ALA48       0.2592
     11  O         15.8130    6.6690   33.6530 O.2    48  ALA48      -0.2718
     12  CB        18.8310    7.0720   33.0370 C.3    48  ALA48       0.0304
     13  N         16.6870    7.3260   35.5910 N.am   49  VAL49      -0.1966
     14  CA        15.4900    7.9880   36.0500 C.3    49  VAL49       0.1727
     15  C         15.8110    9.4540   36.2920 C.2    49  VAL49       0.2616
     16  O         16.6910    9.7790   37.1200 O.2    49  VAL49      -0.2715
     17  CB        14.9430    7.3600   37.3280 C.3    49  VAL49       0.0290
     18  CG1       13.5870    8.0080   37.6850 C.3    49  VAL49       0.0023
     19  CG2       14.8260    5.8050   37.1810 C.3    49  VAL49       0.0023
     20  N         15.1160   10.3360   35.5610 N.am   50  LYS50      -0.1977
     21  CA        15.2680   11.7980   35.7080 C.3    50  LYS50       0.1596
     22  C         14.1180   12.3990   36.4980 C.2    50  LYS50       0.2287
     23  O         12.9410   12.2930   36.1180 O.2    50  LYS50      -0.2864
     24  CB        15.4450   12.4780   34.3300 C.3    50  LYS50       0.0298
     25  CG        15.6270   13.9920   34.3420 C.3    50  LYS50       0.0038
     26  CD        15.6170   14.5040   32.8480 C.3    50  LYS50       0.0206
     27  CE        15.7980   15.9780   32.7720 C.3    50  LYS50       0.1093
     28  NZ        15.9300   16.4150   31.3400 N.3    50  LYS50      -0.1314
     29  N          8.7730   23.8080   29.6070 N.3    64  ARG64      -0.1245
     30  CA         9.9170   22.9380   29.3990 C.3    64  ARG64       0.1563
     31  C          9.6440   21.4810   29.8040 C.2    64  ARG64       0.2260
     32  O         10.0370   20.5370   29.1080 O.2    64  ARG64      -0.2867
     33  CB        11.1250   23.4810   30.1710 C.3    64  ARG64       0.0307
     34  CG        12.3540   22.6540   29.9620 C.3    64  ARG64       0.0489
     35  CD        13.5450   23.2710   30.6550 C.3    64  ARG64       0.2205
     36  NE        14.7370   22.4570   30.4600 N.pl3  64  ARG64      -0.0865
     37  CZ        15.6790   22.7120   29.5600 C.cat  64  ARG64       0.5346
     38  NH1       16.7130   21.8760   29.4570 N.pl3  64  ARG64       0.1354
     39  NH2       15.6000   23.7890   28.7800 N.pl3  64  ARG64       0.1354
     40  N          7.2240   20.1890   27.2630 N.3    67  ARG67      -0.1231
     41  CA         7.9930   19.9590   26.0330 C.3    67  ARG67       0.1694
     42  C          8.8280   18.6760   26.0820 C.2    67  ARG67       0.2591
     43  O          8.8360   17.8880   25.1310 O.2    67  ARG67      -0.2718
     44  CB         8.9090   21.1500   25.7270 C.3    67  ARG67       0.0321
     45  CG         9.6900   21.0360   24.4070 C.3    67  ARG67       0.0489
     46  CD        10.6490   22.2100   24.1950 C.3    67  ARG67       0.2205
     47  NE         9.9550   23.5080   24.1220 N.pl3  67  ARG67      -0.0865
     48  CZ         9.9520   24.4540   25.0510 C.cat  67  ARG67       0.5346
     49  NH1       10.6200   24.3510   26.1810 N.pl3  67  ARG67       0.1354
     50  NH2        9.2590   25.5620   24.8440 N.pl3  67  ARG67       0.1354
     51  N          9.5650   18.4700   27.1650 N.am   68  GLU68      -0.1979
     52  CA        10.4030   17.2580   27.2390 C.3    68  GLU68       0.1602
     53  C          9.5240   15.9970   27.2180 C.2    68  GLU68       0.2287
     54  O          9.8410   15.0200   26.5450 O.2    68  GLU68      -0.2864
     55  CB        11.3520   17.2490   28.4380 C.3    68  GLU68       0.0415
     56  CG        12.3110   16.0430   28.4150 C.3    68  GLU68       0.1163
     57  CD        13.3140   16.0180   29.5510 C.2    68  GLU68       0.3649
     58  OE1       13.1470   16.7400   30.5570 O.co2  68  GLU68      -0.2457
     59  OE2       14.3010   15.2790   29.4360 O.co2  68  GLU68      -0.2457
     60  N          8.2810   15.4690   23.6450 N.3    71  LEU71      -0.1231
     61  CA         9.3440   14.9430   22.8090 C.3    71  LEU71       0.1693
     62  C          9.6580   13.4690   23.0590 C.2    71  LEU71       0.2591
     63  O          9.7040   12.6670   22.1250 O.2    71  LEU71      -0.2718
     64  CB        10.6290   15.7710   22.9660 C.3    71  LEU71       0.0284
     65  CG        10.5760   17.1900   22.4070 C.3    71  LEU71       0.0019
     66  CD1       11.6730   18.0560   23.0590 C.3    71  LEU71       0.0001
     67  CD2       10.6720   17.1360   20.8390 C.3    71  LEU71       0.0001
     68  N          9.9370   13.1340   24.3140 N.am   72  LEU72      -0.1980
     69  CA        10.2910   11.7650   24.6630 C.3    72  LEU72       0.1596
     70  C          9.1850   10.7590   24.3530 C.2    72  LEU72       0.2287
     71  O          9.4800    9.6700   23.8710 O.2    72  LEU72      -0.2864
     72  CB        10.7240   11.6730   26.1240 C.3    72  LEU72       0.0297
     73  CG        12.0860   12.3010   26.4100 C.3    72  LEU72       0.0022
     74  CD1       12.3270   12.3700   27.9470 C.3    72  LEU72       0.0001
     75  CD2       13.2470   11.6220   25.6200 C.3    72  LEU72       0.0001
     76  N          9.4860   10.0350   20.4890 N.3    75  MET75      -0.1245
     77  CA        10.7190    9.5170   19.9080 C.3    75  MET75       0.1570
     78  C         10.7130    7.9870   19.9710 C.2    75  MET75       0.2261
     79  O         10.8460    7.4080   21.0420 O.2    75  MET75      -0.2867
     80  CB        11.9490   10.0640   20.6460 C.3    75  MET75       0.0387
     81  CG        12.2660   11.5500   20.4800 C.3    75  MET75       0.0595
     82  SD        12.5460   12.1170   18.8010 S.3    75  MET75      -0.1393
     83  CE        10.8830   12.5920   18.3020 C.3    75  MET75       0.0692
     84  N         17.7040    7.1120   18.8470 N.3    80  VAL80      -0.1231
     85  CA        17.2330    8.2590   19.6220 C.3    80  VAL80       0.1692
     86  C         16.6880    7.6860   20.9270 C.2    80  VAL80       0.2591
     87  O         16.0630    6.6050   20.9290 O.2    80  VAL80      -0.2718
     88  CB        16.1300    9.0760   18.9050 C.3    80  VAL80       0.0266
     89  CG1       15.7500   10.3160   19.7780 C.3    80  VAL80       0.0020
     90  CG2       16.5910    9.4820   17.4700 C.3    80  VAL80       0.0020
     91  N         16.9770    8.3900   22.0150 N.am   81  ILE81      -0.1980
     92  CA        16.4760    8.0250   23.3270 C.3    81  ILE81       0.1595
     93  C         14.9440    7.9460   23.2520 C.2    81  ILE81       0.2287
     94  O         14.2910    8.7650   22.5730 O.2    81  ILE81      -0.2864
     95  CB        16.9480    9.0160   24.4270 C.3    81  ILE81       0.0276
     96  CG1       16.6750    8.4660   25.8330 C.3    81  ILE81       0.0022
     97  CG2       16.2960   10.4270   24.2430 C.3    81  ILE81       0.0022
     98  CD1       17.4950    9.1900   26.9570 C.3    81  ILE81       0.0001
     99  N         10.9930   10.7480   34.7500 N.3   101  LEU101     -0.1245
    100  CA        11.1530   10.1840   33.3960 C.3   101  LEU101      0.1561
    101  C         12.1530    9.0160   33.4470 C.2   101  LEU101      0.2260
    102  O         13.2100    9.1200   34.0820 O.2   101  LEU101     -0.2867
    103  CB        11.6370   11.2880   32.4260 C.3   101  LEU101      0.0270
    104  CG        10.7950   12.5680   32.3030 C.3   101  LEU101      0.0019
    105  CD1       11.6140   13.6640   31.6210 C.3   101  LEU101      0.0001
    106  CD2        9.4970   12.3340   31.5050 C.3   101  LEU101      0.0001
    107  N         14.3040    6.1300   31.1240 N.3   103  THR103     -0.1218
    108  CA        14.8470    5.6740   29.8810 C.3   103  THR103      0.1862
    109  C         15.8630    4.5350   30.1200 C.2   103  THR103      0.2287
    110  O         16.2850    4.2530   31.2620 O.2   103  THR103     -0.2866
    111  CB        15.5940    6.8530   29.1520 C.3   103  THR103      0.1770
    112  OG1       16.8230    7.1120   29.8330 O.3   103  THR103     -0.2211
    113  CG2       14.7970    8.1640   29.1180 C.3   103  THR103      0.0375
    114  N         14.6400   12.7100   13.7080 N.3   138  ILE138     -0.1245
    115  CA        14.3380   13.8580   14.5240 C.3   138  ILE138      0.1561
    116  C         13.9150   15.0360   13.6580 C.2   138  ILE138      0.2260
    117  O         12.8820   15.6760   13.9260 O.2   138  ILE138     -0.2867
    118  CB        15.5670   14.2420   15.4130 C.3   138  ILE138      0.0252
    119  CG1       15.8350   13.1610   16.4880 C.3   138  ILE138      0.0019
    120  CG2       15.3800   15.6260   16.0770 C.3   138  ILE138      0.0019
    121  CD1       17.1860   13.3260   17.2260 C.3   138  ILE138      0.0001
    122  N         11.8550   18.7330   14.5700 N.3   143  ILE143     -0.1231
    123  CA        12.5090   18.9310   15.8430 C.3   143  ILE143      0.1692
    124  C         13.9690   19.3210   15.5530 C.2   143  ILE143      0.2592
    125  O         14.6020   18.7400   14.6550 O.2   143  ILE143     -0.2718
    126  CB        12.4280   17.6740   16.7400 C.3   143  ILE143      0.0266
    127  CG1       10.9630   17.2860   16.9690 C.3   143  ILE143      0.0019
    128  CG2       13.2130   17.9230   18.0730 C.3   143  ILE143      0.0020
    129  CD1       10.7090   15.8860   17.5560 C.3   143  ILE143      0.0001
    130  N         14.4620   20.3430   16.2490 N.am  144  ILE144     -0.1966
    131  CA        15.8710   20.7270   16.1370 C.3   144  ILE144      0.1727
    132  C         16.5060   20.3790   17.4790 C.2   144  ILE144      0.2616
    133  O         16.0000   20.7470   18.5470 O.2   144  ILE144     -0.2715
    134  CB        16.0880   22.1960   15.8220 C.3   144  ILE144      0.0290
    135  CG1       15.3040   22.6160   14.5550 C.3   144  ILE144      0.0022
    136  CG2       17.5940   22.4890   15.6560 C.3   144  ILE144      0.0023
    137  CD1       15.2620   24.1420   14.3280 C.3   144  ILE144      0.0001
    138  N         17.6040   19.6390   17.4360 N.am  145  HIS145     -0.1959
    139  CA        18.2780   19.2630   18.6870 C.3   145  HIS145      0.1787
    140  C         18.9300   20.5190   19.2920 C.2   145  HIS145      0.2620
    141  O         18.6710   20.8670   20.4510 O.2   145  HIS145     -0.2715
    142  CB        19.3250   18.1600   18.4520 C.3   145  HIS145      0.0785
    143  CG        19.8680   17.5790   19.7190 C.ar  145  HIS145      0.0821
    144  ND1       20.6000   18.3210   20.6210 N.ar  145  HIS145     -0.2267
    145  CD2       19.7320   16.3480   20.2730 C.ar  145  HIS145      0.1154
    146  CE1       20.9180   17.5690   21.6550 C.ar  145  HIS145      0.1986
    147  NE2       20.3950   16.3730   21.4760 N.ar  145  HIS145     -0.2212
    148  N         19.7590   21.2010   18.4960 N.am  146  ARG146     -0.1977
    149  CA        20.4670   22.4310   18.8780 C.3   146  ARG146      0.1597
    150  C         21.6660   22.2840   19.8250 C.2   146  ARG146      0.2287
    151  O         22.3810   23.2550   20.0260 O.2   146  ARG146     -0.2864
    152  CB        19.5380   23.4780   19.5140 C.3   146  ARG146      0.0334
    153  CG        18.2730   23.8000   18.7350 C.3   146  ARG146      0.0492
    154  CD        17.4370   24.8090   19.5310 C.3   146  ARG146      0.2205
    155  NE        16.2600   25.2700   18.7790 N.pl3 146  ARG146     -0.0865
    156  CZ        15.1200   24.5980   18.6330 C.cat 146  ARG146      0.5346
    157  NH1       14.9400   23.4170   19.2160 N.pl3 146  ARG146      0.1354
    158  NH2       14.1460   25.1450   17.9070 N.pl3 146  ARG146      0.1354
    159  N         21.0390    9.3030   20.2900 N.3   163  ILE163     -0.1231
    160  CA        20.9980   10.7270   20.5340 C.3   163  ILE163      0.1692
    161  C         20.0710   10.9950   21.7300 C.2   163  ILE163      0.2592
    162  O         18.9270   10.5040   21.7940 O.2   163  ILE163     -0.2718
    163  CB        20.4370   11.4840   19.2920 C.3   163  ILE163      0.0266
    164  CG1       21.3030   11.2490   18.0270 C.3   163  ILE163      0.0019
    165  CG2       20.2470   12.9680   19.6310 C.3   163  ILE163      0.0020
    166  CD1       20.6580   11.7410   16.6880 C.3   163  ILE163      0.0001
    167  N         20.5340   11.8340   22.6400 N.am  164  LEU164     -0.1966
    168  CA        19.7340   12.2900   23.7330 C.3   164  LEU164      0.1728
    169  C         20.0600   13.7540   24.0430 C.2   164  LEU164      0.2616
    170  O         20.8000   14.4200   23.2950 O.2   164  LEU164     -0.2715
    171  CB        19.9590   11.3610   24.9520 C.3   164  LEU164      0.0311
    172  CG        21.4060   11.1260   25.3790 C.3   164  LEU164      0.0022
    173  CD1       21.9020   12.2770   26.1750 C.3   164  LEU164      0.0001
    174  CD2       21.4720    9.8700   26.2380 C.3   164  LEU164      0.0001
    175  N         19.4660   14.2640   25.1180 N.am  165  ASP165     -0.1957
    176  CA        19.8630   15.5420   25.6680 C.3   165  ASP165      0.1840
    177  C         19.8050   15.4570   27.1880 C.2   165  ASP165      0.2622
    178  O         18.7430   15.4990   27.8010 O.2   165  ASP165     -0.2715
    179  CB        19.0550   16.7250   25.1260 C.3   165  ASP165      0.1450
    180  CG        19.6810   18.0650   25.4770 C.2   165  ASP165      0.3671
    181  OD1       20.3650   18.1540   26.5340 O.co2 165  ASP165     -0.2456
    182  OD2       19.5270   19.0350   24.6650 O.co2 165  ASP165     -0.2456
    183  N         20.9960   15.3420   27.7450 N.am  166  PHE166     -0.1960
    184  CA        21.2650   15.1950   29.1770 C.3   166  PHE166      0.1771
    185  C         21.2760   16.5290   29.8660 C.2   166  PHE166      0.2620
    186  O         21.8130   16.6330   31.0010 O.2   166  PHE166     -0.2715
    187  CB        22.6820   14.6380   29.3560 C.3   166  PHE166      0.0574
    188  CG        22.7430   13.4240   30.1390 C.ar  166  PHE166     -0.0200
    189  CD1       23.4470   12.3210   29.6570 C.ar  166  PHE166     -0.0042
    190  CD2       22.0890   13.3360   31.3530 C.ar  166  PHE166     -0.0042
    191  CE1       23.5090   11.1410   30.4000 C.ar  166  PHE166     -0.0003
    192  CE2       22.1560   12.1730   32.0940 C.ar  166  PHE166     -0.0003
    193  CZ        22.8640   11.0710   31.6040 C.ar  166  PHE166     -0.0000
    194  N         20.7130   17.5460   29.2050 N.am  167  GLY167     -0.1954
    195  CA        20.7120   18.8940   29.7350 C.3   167  GLY167      0.1869
    196  C         19.9260   19.1310   31.0170 C.2   167  GLY167      0.2309
    197  O         18.7030   19.2780   31.0340 O.2   167  GLY167     -0.2863
@<TRIPOS>BOND
     1   116   117    2
     2   116   115    1
     3   114   115    1
     4   137   135    1
     5   115   118    1
     6   135   134    1
     7   122   123    1
     8   125   124    2
     9   118   120    1
    10   118   119    1
    11   124   123    1
    12   124   130   am
    13   136   134    1
    14   134   131    1
    15   123   126    1
    16   131   130    1
    17   131   132    1
    18   119   121    1
    19   166   164    1
    20   126   127    1
    21   126   128    1
    22   127   129    1
    23   138   132   am
    24   138   139    1
    25    90    88    1
    26   132   133    2
    27   158   156    1
    28   164   163    1
    29    83    82    1
    30   142   139    1
    31   142   143    1
    32   148   149    1
    33   148   140   am
    34   156   155    2
    35   156   157    1
    36   139   140    1
    37   153   152    1
    38   153   154    1
    39   155   154    1
    40    82    81    1
    41    84    85    1
    42   149   152    1
    43   149   150    1
    44    88    85    1
    45    88    89    1
    46   140   141    2
    47   163   165    1
    48   163   160    1
    49    85    86    1
    50   143   145   ar
    51   143   144   ar
    52   150   151    2
    53    77    78    1
    54    77    76    1
    55    77    80    1
    56    78    79    2
    57   145   147   ar
    58   159   160    1
    59    81    80    1
    60   160   161    1
    61   144   146   ar
    62    67    65    1
    63    86    87    2
    64    86    91   am
    65   147   146   ar
    66   161   162    2
    67   161   167   am
    68    91    92    1
    69    63    62    2
    70    65    64    1
    71    65    66    1
    72    94    93    2
    73   167   168    1
    74    61    64    1
    75    61    62    1
    76    61    60    1
    77    62    68   am
    78    93    92    1
    79   170   169    2
    80    92    95    1
    81   168   169    1
    82   168   171    1
    83    71    70    2
    84   169   175   am
    85    47    46    1
    86    47    48    2
    87    46    45    1
    88    97    95    1
    89    68    69    1
    90    70    69    1
    91    45    44    1
    92    95    96    1
    93    69    72    1
    94   182   180   ar
    95    50    48    1
    96   171   172    1
    97    48    49    1
    98   175   176    1
    99   179   180    1
   100   179   176    1
   101    43    42    2
   102   172   173    1
   103   172   174    1
   104   180   181   ar
   105    75    73    1
   106   176   177    1
   107    44    41    1
   108    96    98    1
   109    41    42    1
   110    41    40    1
   111    42    51   am
   112    72    73    1
   113    73    74    1
   114    54    53    2
   115    51    52    1
   116   177   183   am
   117   177   178    2
   118    53    52    1
   119    52    55    1
   120   183   184    1
   121    56    55    1
   122    56    57    1
   123    39    37    1
   124    32    31    2
   125   113   111    1
   126   111   112    1
   127   111   108    1
   128   184   187    1
   129   184   185    1
   130   194   195    1
   131   194   185   am
   132   187   188    1
   133    30    29    1
   134    30    31    1
   135    30    33    1
   136    59    57   ar
   137    38    37    1
   138    57    58   ar
   139    37    36    2
   140   189   188   ar
   141   189   191   ar
   142   195   196    1
   143   185   186    2
   144   108   109    1
   145   108   107    1
   146    34    33    1
   147    34    35    1
   148   109   110    2
   149   188   190   ar
   150   191   193   ar
   151    36    35    1
   152   196   197    2
   153    28    27    1
   154   190   192   ar
   155   106   104    1
   156   193   192   ar
   157   105   104    1
   158   104   103    1
   159   103   100    1
   160    27    26    1
   161    26    25    1
   162    12     9    1
   163   100   101    1
   164   100    99    1
   165     8     9    1
   166   101   102    2
   167    11    10    2
   168     9    10    1
   169    24    25    1
   170    24    21    1
   171    10    13   am
   172     7     5    1
   173     6     5    1
   174    20    21    1
   175    20    15   am
   176    13    14    1
   177    21    22    1
   178     5     2    1
   179    14    15    1
   180    14    17    1
   181    23    22    2
   182    15    16    2
   183    19    17    1
   184     2     1    1
   185     2     3    1
   186    17    18    1
   187     3     4    2
