@<TRIPOS>MOLECULE
tmp/3nnyA02.pdb
 181 176 0 0 0
SMALL
GASTEIGER

@<TRIPOS>ATOM
      1  N          2.8500    9.0800   34.6440 N.3    38  MET38      -0.1230
      2  CA         3.2960    8.7070   33.3000 C.3    38  MET38       0.1702
      3  C          3.1310    9.8330   32.2640 C.2    38  MET38       0.2592
      4  O          4.0240   10.0310   31.4470 O.2    38  MET38      -0.2718
      5  CB         2.6250    7.4200   32.8270 C.3    38  MET38       0.0401
      6  CG         3.2310    6.1590   33.4490 C.3    38  MET38       0.0596
      7  SD         2.8660    4.6220   32.5640 S.3    38  MET38      -0.1393
      8  CE         3.9210    4.8320   31.1260 C.3    38  MET38       0.0692
      9  N          2.0190   10.5700   32.3350 N.am   39  LEU39      -0.1980
     10  CA         1.7530   11.7320   31.4780 C.3    39  LEU39       0.1596
     11  C          1.4420   12.9820   32.3310 C.2    39  LEU39       0.2287
     12  O          0.2780   13.2590   32.6100 O.2    39  LEU39      -0.2864
     13  CB         0.5480   11.4420   30.5630 C.3    39  LEU39       0.0297
     14  CG         0.3800   10.0270   29.9840 C.3    39  LEU39       0.0022
     15  CD1       -1.0170    9.7670   29.4680 C.3    39  LEU39       0.0001
     16  CD2        1.4020    9.7600   28.9090 C.3    39  LEU39       0.0001
     17  N         14.2660    9.6740   30.0070 N.3   105  ARG105     -0.1245
     18  CA        13.8310    8.3240   30.3350 C.3   105  ARG105      0.1563
     19  C         14.6340    7.2050   29.6700 C.2   105  ARG105      0.2260
     20  O         14.3280    6.0320   29.9180 O.2   105  ARG105     -0.2867
     21  CB        12.3310    8.1560   30.0050 C.3   105  ARG105      0.0307
     22  CG        11.4570    9.0320   30.9020 C.3   105  ARG105      0.0489
     23  CD         9.9990    8.9650   30.5090 C.3   105  ARG105      0.2205
     24  NE         9.1510    9.4870   31.5610 N.pl3 105  ARG105     -0.0865
     25  CZ         7.8560    9.7410   31.4160 C.cat 105  ARG105      0.5346
     26  NH1        7.2580    9.5390   30.2450 N.pl3 105  ARG105      0.1354
     27  NH2        7.1520   10.1910   32.4440 N.pl3 105  ARG105      0.1354
     28  N          4.5180    0.6890   18.0660 N.3   169  GLN169     -0.1245
     29  CA         5.8530    0.2510   17.6560 C.3   169  GLN169      0.1566
     30  C          5.6950   -0.3810   16.2710 C.2   169  GLN169      0.2260
     31  O          4.6350   -0.9440   15.9560 O.2   169  GLN169     -0.2867
     32  CB         6.4410   -0.7990   18.6110 C.3   169  GLN169      0.0367
     33  CG         6.8010   -0.3510   20.0350 C.3   169  GLN169      0.0905
     34  CD         7.2390   -1.5470   20.8880 C.2   169  GLN169      0.2608
     35  OE1        7.9970   -2.4210   20.4200 O.2   169  GLN169     -0.2717
     36  NE2        6.7330   -1.6210   22.1120 N.am  169  GLN169     -0.0878
     37  N          4.8920   -5.3980   16.5740 N.3   172  ARG172     -0.1245
     38  CA         4.1760   -5.7950   17.8040 C.3   172  ARG172      0.1563
     39  C          3.1980   -6.9430   17.4940 C.2   172  ARG172      0.2260
     40  O          2.7170   -7.0520   16.3760 O.2   172  ARG172     -0.2867
     41  CB         3.3720   -4.6330   18.3860 C.3   172  ARG172      0.0307
     42  CG         4.1720   -3.5850   19.1260 C.3   172  ARG172      0.0489
     43  CD         3.3120   -2.8130   20.1160 C.3   172  ARG172      0.2205
     44  NE         3.4780   -3.3260   21.4680 N.pl3 172  ARG172     -0.0865
     45  CZ         2.8670   -2.8270   22.5420 C.cat 172  ARG172      0.5346
     46  NH1        2.0210   -1.8070   22.4350 N.pl3 172  ARG172      0.1354
     47  NH2        3.0920   -3.3560   23.7340 N.pl3 172  ARG172      0.1354
     48  N         13.2750   -3.2880   18.5600 N.3   256  PRO256     -0.2116
     49  CA        12.3530   -2.3760   19.2160 C.3   256  PRO256      0.1372
     50  C         12.3320   -1.0480   18.4780 C.2   256  PRO256      0.2244
     51  O         13.3840   -0.4380   18.2610 O.2   256  PRO256     -0.2868
     52  CB        12.9610   -2.2050   20.6060 C.3   256  PRO256      0.0268
     53  CG        14.4470   -2.3550   20.3830 C.3   256  PRO256      0.0207
     54  CD        14.5870   -3.3430   19.2380 C.3   256  PRO256      0.0892
     55  N         10.0460    2.4610   18.3190 N.3   258  VAL258     -0.1245
     56  CA         8.9820    3.2970   18.8180 C.3   258  VAL258      0.1561
     57  C          8.4800    4.1990   17.7120 C.2   258  VAL258      0.2260
     58  O          9.2570    4.9560   17.1370 O.2   258  VAL258     -0.2867
     59  CB         9.4580    4.1150   20.0760 C.3   258  VAL258      0.0252
     60  CG1        8.4150    5.1680   20.4820 C.3   258  VAL258      0.0019
     61  CG2        9.7180    3.1530   21.2670 C.3   258  VAL258      0.0019
     62  N          5.2120    6.0150   17.8250 N.3   260  ASN260     -0.1225
     63  CA         4.0910    6.8710   18.1840 C.3   260  ASN260      0.1785
     64  C          4.4880    8.2030   18.8070 C.2   260  ASN260      0.2597
     65  O          3.6250    8.9280   19.2740 O.2   260  ASN260     -0.2718
     66  CB         3.0630    6.1330   19.0750 C.3   260  ASN260      0.1169
     67  CG         3.6450    5.6810   20.4290 C.2   260  ASN260      0.2627
     68  OD1        2.9250    5.1260   21.2610 O.2   260  ASN260     -0.2716
     69  ND2        4.9270    5.9090   20.6460 N.am  260  ASN260     -0.0877
     70  N          5.7700    8.5510   18.7870 N.am  261  MET261     -0.1979
     71  CA         6.1840    9.8150   19.4010 C.3   261  MET261      0.1605
     72  C          6.3200   10.9970   18.4400 C.2   261  MET261      0.2287
     73  O          6.2590   10.8270   17.2120 O.2   261  MET261     -0.2864
     74  CB         7.4120    9.6070   20.2710 C.3   261  MET261      0.0413
     75  CG         7.0080    8.8100   21.5030 C.3   261  MET261      0.0598
     76  SD         8.3150    8.5920   22.6620 S.3   261  MET261     -0.1393
     77  CE         8.0620   10.0290   23.7330 C.3   261  MET261      0.0692
     78  N         11.6540    5.4460   15.4220 N.3   275  PHE275     -0.1227
     79  CA        13.0840    5.2050   15.7310 C.3   275  PHE275      0.1736
     80  C         13.2660    3.8610   16.4150 C.2   275  PHE275      0.2596
     81  O         12.3030    3.2840   16.9370 O.2   275  PHE275     -0.2718
     82  CB        13.6650    6.3240   16.5930 C.3   275  PHE275      0.0547
     83  CG        12.9660    6.5150   17.9230 C.ar  275  PHE275     -0.0202
     84  CD1       13.3230    5.7490   19.0390 C.ar  275  PHE275     -0.0042
     85  CD2       11.9480    7.4570   18.0610 C.ar  275  PHE275     -0.0042
     86  CE1       12.6990    5.9450   20.2710 C.ar  275  PHE275     -0.0003
     87  CE2       11.3200    7.6640   19.2870 C.ar  275  PHE275     -0.0003
     88  CZ        11.6900    6.9170   20.4010 C.ar  275  PHE275     -0.0000
     89  N         14.5000    3.3670   16.4110 N.am  276  SER276     -0.1938
     90  CA        14.7890    2.0480   16.8810 C.3   276  SER276      0.2055
     91  C         16.2460    1.9680   17.3510 C.2   276  SER276      0.2644
     92  O         17.0990    2.7180   16.8750 O.2   276  SER276     -0.2714
     93  CB        14.4880    0.9960   15.7810 C.3   276  SER276      0.2130
     94  OG        15.4080    1.0450   14.6910 O.3   276  SER276     -0.2179
     95  N         16.5060    1.0810   18.3140 N.am  277  GLY277     -0.1939
     96  CA        17.8670    0.7900   18.7660 C.3   277  GLY277      0.2014
     97  C         18.0010   -0.7150   18.9120 C.2   277  GLY277      0.2639
     98  O         17.9720   -1.4570   17.9310 O.2   277  GLY277     -0.2714
     99  N         18.1550   -1.1590   20.1450 N.am  278  TRP278     -0.1959
    100  CA        18.1240   -2.5770   20.4880 C.3   278  TRP278      0.1771
    101  C         17.6860   -2.7520   21.9430 C.2   278  TRP278      0.2619
    102  O         17.7790   -1.8310   22.7640 O.2   278  TRP278     -0.2715
    103  CB        19.4850   -3.2350   20.2530 C.3   278  TRP278      0.0590
    104  CG        20.6170   -2.5970   21.0040 C.ar  278  TRP278      0.0006
    105  CD1       20.9230   -2.7470   22.3460 C.ar  278  TRP278      0.0946
    106  CD2       21.6080   -1.7310   20.4630 C.ar  278  TRP278      0.0152
    107  NE1       22.0360   -2.0140   22.6580 N.ar  278  TRP278     -0.2442
    108  CE2       22.4800   -1.3770   21.5240 C.ar  278  TRP278      0.0810
    109  CE3       21.8470   -1.2080   19.1840 C.ar  278  TRP278      0.0012
    110  CZ2       23.5890   -0.5330   21.3350 C.ar  278  TRP278      0.0191
    111  CZ3       22.9460   -0.3670   18.9990 C.ar  278  TRP278      0.0001
    112  CH2       23.8000   -0.0410   20.0650 C.ar  278  TRP278      0.0015
    113  N         17.2110   -3.9470   22.2500 N.am  279  TYR279     -0.1974
    114  CA        16.5780   -4.2310   23.5300 C.3   279  TYR279      0.1639
    115  C         17.5340   -4.3130   24.7080 C.2   279  TYR279      0.2290
    116  O         18.6650   -4.8280   24.6050 O.2   279  TYR279     -0.2864
    117  CB        15.8330   -5.5580   23.4410 C.3   279  TYR279      0.0560
    118  CG        14.3790   -5.4480   23.0580 C.ar  279  TYR279     -0.0198
    119  CD1       13.8750   -6.1230   21.9370 C.ar  279  TYR279     -0.0009
    120  CD2       13.5030   -4.6920   23.8160 C.ar  279  TYR279     -0.0009
    121  CE1       12.5300   -6.0490   21.5990 C.ar  279  TYR279      0.0417
    122  CE2       12.1580   -4.6040   23.4780 C.ar  279  TYR279      0.0417
    123  CZ        11.6800   -5.2950   22.3760 C.ar  279  TYR279      0.1957
    124  OH        10.3390   -5.2030   22.0590 O.3   279  TYR279     -0.2866
    125  N         13.0950   -5.4220   29.3490 N.3   283  GLU283     -0.1245
    126  CA        11.8820   -4.9760   28.6570 C.3   283  GLU283      0.1567
    127  C         11.0230   -6.1780   28.2350 C.2   283  GLU283      0.2260
    128  O          9.8080   -6.2180   28.4820 O.2   283  GLU283     -0.2867
    129  CB        12.2160   -4.1330   27.4210 C.3   283  GLU283      0.0388
    130  CG        13.0060   -2.8560   27.6860 C.3   283  GLU283      0.1160
    131  CD        13.3850   -2.1080   26.3790 C.2   283  GLU283      0.3649
    132  OE1       12.4600   -1.4700   25.8170 O.co2 283  GLU283     -0.2457
    133  OE2       14.5850   -2.1510   25.9220 O.co2 283  GLU283     -0.2457
    134  N          8.9000   -7.0650   31.7140 N.3   287  ARG287     -0.1245
    135  CA         7.6660   -6.3430   31.3830 C.3   287  ARG287      0.1563
    136  C          6.7470   -7.0900   30.4050 C.2   287  ARG287      0.2260
    137  O          5.6030   -7.3380   30.7360 O.2   287  ARG287     -0.2867
    138  CB         7.9670   -4.9180   30.8750 C.3   287  ARG287      0.0307
    139  CG         8.8480   -4.0680   31.8390 C.3   287  ARG287      0.0489
    140  CD         8.2390   -3.8670   33.2550 C.3   287  ARG287      0.2205
    141  NE         6.8420   -3.4450   33.1910 N.pl3 287  ARG287     -0.0865
    142  CZ         6.4360   -2.2070   32.8960 C.cat 287  ARG287      0.5346
    143  NH1        7.3290   -1.2240   32.6770 N.pl3 287  ARG287      0.1354
    144  NH2        5.1270   -1.9530   32.8390 N.pl3 287  ARG287      0.1354
    145  N          0.0780   -8.0880   30.7310 N.3   294  ARG294     -0.1245
    146  CA         0.7850   -8.4750   29.4990 C.3   294  ARG294      0.1563
    147  C          0.7020   -9.9920   29.2620 C.2   294  ARG294      0.2260
    148  O         -0.3800  -10.5610   29.4300 O.2   294  ARG294     -0.2867
    149  CB         2.2220   -7.9370   29.4810 C.3   294  ARG294      0.0307
    150  CG         2.3200   -6.4100   29.4680 C.3   294  ARG294      0.0489
    151  CD         1.7080   -5.7460   28.2290 C.3   294  ARG294      0.2205
    152  NE         2.3770   -6.0930   26.9710 N.pl3 294  ARG294     -0.0865
    153  CZ         3.5820   -5.6520   26.5970 C.cat 294  ARG294      0.5346
    154  NH1        4.2890   -4.8440   27.3870 N.pl3 294  ARG294      0.1354
    155  NH2        4.0910   -6.0290   25.4290 N.pl3 294  ARG294      0.1354
    156  N         12.1910    5.7250   35.5270 N.3   369  TRP369     -0.1241
    157  CA        12.3240    4.9570   34.2880 C.3   369  TRP369      0.1605
    158  C         13.7220    4.3550   34.0780 C.2   369  TRP369      0.2264
    159  O         13.8550    3.2930   33.4660 O.2   369  TRP369     -0.2867
    160  CB        11.9670    5.8490   33.1040 C.3   369  TRP369      0.0550
    161  CG        10.4800    6.0610   32.9610 C.ar  369  TRP369      0.0003
    162  CD1        9.6060    6.6250   33.8810 C.ar  369  TRP369      0.0946
    163  CD2        9.7080    5.7260   31.8210 C.ar  369  TRP369      0.0152
    164  NE1        8.3360    6.6570   33.3540 N.ar  369  TRP369     -0.2442
    165  CE2        8.3700    6.1190   32.0880 C.ar  369  TRP369      0.0810
    166  CE3       10.0220    5.1680   30.5770 C.ar  369  TRP369      0.0012
    167  CZ2        7.3410    5.9430   31.1630 C.ar  369  TRP369      0.0191
    168  CZ3        8.9940    4.9860   29.6460 C.ar  369  TRP369      0.0001
    169  CH2        7.6610    5.3720   29.9570 C.ar  369  TRP369      0.0015
    170  N          5.3450   12.5230   24.0040 N.3   397  TYR397     -0.1241
    171  CA         4.2510   11.6060   23.8590 C.3   397  TYR397      0.1605
    172  C          3.1220   12.3090   23.1150 C.2   397  TYR397      0.2264
    173  O          2.9460   13.5180   23.2300 O.2   397  TYR397     -0.2867
    174  CB         3.7780   11.1360   25.2380 C.3   397  TYR397      0.0534
    175  CG         2.7370   10.0390   25.1700 C.ar  397  TYR397     -0.0201
    176  CD1        3.1060    8.7170   24.8540 C.ar  397  TYR397     -0.0009
    177  CD2        1.3830   10.3210   25.3880 C.ar  397  TYR397     -0.0009
    178  CE1        2.1390    7.6920   24.7760 C.ar  397  TYR397      0.0417
    179  CE2        0.4120    9.3120   25.3180 C.ar  397  TYR397      0.0417
    180  CZ         0.8020    8.0000   25.0170 C.ar  397  TYR397      0.1957
    181  OH        -0.1400    6.9970   24.9480 O.3   397  TYR397     -0.2866
@<TRIPOS>BOND
     1    94    93    1
     2    78    79    1
     3    79    80    1
     4    79    82    1
     5    93    90    1
     6    31    30    2
     7    30    29    1
     8    40    39    2
     9    89    80   am
    10    89    90    1
    11    80    81    2
    12    37    38    1
    13    82    83    1
    14    92    91    2
    15    90    91    1
    16    58    57    2
    17    73    72    2
    18    91    95   am
    19    39    38    1
    20    29    28    1
    21    29    32    1
    22    57    56    1
    23    38    41    1
    24    62    63    1
    25    83    85   ar
    26    83    84   ar
    27    98    97    2
    28    85    87   ar
    29    63    64    1
    30    63    66    1
    31    51    50    2
    32    95    96    1
    33    55    56    1
    34    41    42    1
    35    72    71    1
    36    50    49    1
    37    48    49    1
    38    48    54    1
    39    32    33    1
    40    96    97    1
    41    70    64   am
    42    70    71    1
    43    64    65    2
    44    56    59    1
    45    97    99   am
    46   111   109   ar
    47   111   112   ar
    48    84    86   ar
    49    66    67    1
    50    42    43    1
    51   109   106   ar
    52    49    52    1
    53    54    53    1
    54    87    88   ar
    55    71    74    1
    56    33    34    1
    57   112   110   ar
    58    59    60    1
    59    59    61    1
    60    43    44    1
    61    99   100    1
    62   103   100    1
    63   103   104    1
    64    86    88   ar
    65    74    75    1
    66    53    52    1
    67    35    34    2
    68    67    69   am
    69    67    68    2
    70   106   104   ar
    71   106   108   ar
    72   100   101    1
    73    34    36   am
    74   104   105   ar
    75   110   108   ar
    76    44    45    2
    77    75    76    1
    78   108   107   ar
    79   121   119   ar
    80   121   123   ar
    81   119   118   ar
    82   101   113   am
    83   101   102    2
    84   124   123    1
    85   113   114    1
    86   105   107   ar
    87   123   122   ar
    88    46    45    1
    89    45    47    1
    90    76    77    1
    91   118   117    1
    92   118   120   ar
    93   172   173    2
    94   172   171    1
    95   117   114    1
    96   122   120   ar
    97   114   115    1
    98   171   170    1
    99   171   174    1
   100   116   115    2
   101   178   176   ar
   102   178   180   ar
   103   176   175   ar
   104   181   180    1
   105   180   179   ar
   106   175   174    1
   107   175   177   ar
   108   179   177   ar
   109   155   153    1
   110   132   131   ar
   111   133   131   ar
   112   131   130    1
   113   153   152    2
   114   153   154    1
   115   152   151    1
   116   129   130    1
   117   129   126    1
   118   151   150    1
   119   127   128    2
   120   127   126    1
   121   126   125    1
   122    16    14    1
   123   147   148    2
   124   147   146    1
   125    15    14    1
   126   150   149    1
   127   149   146    1
   128   146   145    1
   129   168   169   ar
   130   168   166   ar
   131    19    20    2
   132    19    18    1
   133   169   167   ar
   134    14    13    1
   135    21    18    1
   136    21    22    1
   137    17    18    1
   138    26    25    1
   139   136   137    2
   140   136   135    1
   141    23    22    1
   142    23    24    1
   143    13    10    1
   144   166   163   ar
   145   138   135    1
   146   138   139    1
   147     8     7    1
   148   167   165   ar
   149   135   134    1
   150    25    24    2
   151    25    27    1
   152     4     3    2
   153    10    11    1
   154    10     9    1
   155   163   165   ar
   156   163   161   ar
   157   139   140    1
   158   165   164   ar
   159     3     9   am
   160     3     2    1
   161    11    12    2
   162     7     6    1
   163   143   142    1
   164     5     2    1
   165     5     6    1
   166   144   142    1
   167   142   141    2
   168   161   160    1
   169   161   162   ar
   170   160   157    1
   171   141   140    1
   172     2     1    1
   173   164   162   ar
   174   159   158    2
   175   158   157    1
   176   157   156    1
