@<TRIPOS>MOLECULE
tmp/3no2A02.pdb
 104 98 0 0 0
SMALL
GASTEIGER

@<TRIPOS>ATOM
      1  N         30.3050    9.0450   24.7740 N.3   174  LEU174     -0.1245
      2  CA        31.4810    9.2850   25.5860 C.3   174  LEU174      0.1561
      3  C         32.3010   10.3610   24.8960 C.2   174  LEU174      0.2260
      4  O         32.4610   10.3000   23.6650 O.2   174  LEU174     -0.2867
      5  CB        32.3500    8.0640   25.7260 C.3   174  LEU174      0.0270
      6  CG        31.7200    6.8390   26.3820 C.3   174  LEU174      0.0019
      7  CD1       32.7400    5.6710   26.4710 C.3   174  LEU174      0.0001
      8  CD2       31.2590    7.1800   27.7850 C.3   174  LEU174      0.0001
      9  N         37.4380   11.1570   30.6840 N.3   183  PHE183     -0.1241
     10  CA        36.3680   11.2480   29.7220 C.3   183  PHE183      0.1605
     11  C         35.0320   11.3950   30.4080 C.2   183  PHE183      0.2264
     12  O         34.9260   11.1290   31.6340 O.2   183  PHE183     -0.2867
     13  CB        36.3780   10.0580   28.7510 C.3   183  PHE183      0.0534
     14  CG        36.1460    8.7070   29.3550 C.ar  183  PHE183     -0.0203
     15  CD1       34.8640    8.1730   29.4270 C.ar  183  PHE183     -0.0042
     16  CD2       37.2120    7.9210   29.7270 C.ar  183  PHE183     -0.0042
     17  CE1       34.6750    6.8820   29.8900 C.ar  183  PHE183     -0.0003
     18  CE2       37.0090    6.6290   30.1930 C.ar  183  PHE183     -0.0003
     19  CZ        35.7610    6.1340   30.2700 C.ar  183  PHE183     -0.0000
     20  N         28.2920   11.1680   33.8350 N.3   195  ARG195     -0.1245
     21  CA        29.3840   10.5360   34.5280 C.3   195  ARG195      0.1563
     22  C         30.7080   11.1130   34.0310 C.2   195  ARG195      0.2260
     23  O         30.8100   11.4100   32.8400 O.2   195  ARG195     -0.2867
     24  CB        29.3640    9.0490   34.2270 C.3   195  ARG195      0.0307
     25  CG        30.3070    8.3260   35.0320 C.3   195  ARG195      0.0489
     26  CD        30.2230    6.8840   34.7460 C.3   195  ARG195      0.2205
     27  NE        31.0860    6.1910   35.6790 N.pl3 195  ARG195     -0.0865
     28  CZ        31.4400    4.9240   35.5480 C.cat 195  ARG195      0.5346
     29  NH1       30.9990    4.2220   34.5030 N.pl3 195  ARG195      0.1354
     30  NH2       32.2350    4.3810   36.4570 N.pl3 195  ARG195      0.1354
     31  N         34.7840   10.0130   34.2290 N.3   197  VAL197     -0.1245
     32  CA        35.6570    8.9200   34.4990 C.3   197  VAL197      0.1561
     33  C         37.0890    9.3720   34.4240 C.2   197  VAL197      0.2260
     34  O         37.5530    9.8840   33.3930 O.2   197  VAL197     -0.2867
     35  CB        35.4340    7.7500   33.5060 C.3   197  VAL197      0.0252
     36  CG1       36.3170    6.5710   33.8140 C.3   197  VAL197      0.0019
     37  CG2       33.9290    7.3820   33.4830 C.3   197  VAL197      0.0019
     38  N         38.7920    6.0170   38.7820 N.3   201  ASP201     -0.1225
     39  CA        37.6560    5.1140   38.5090 C.3   201  ASP201      0.1805
     40  C         38.0930    3.8460   37.7900 C.2   201  ASP201      0.2597
     41  O         37.2620    2.9460   37.5380 O.2   201  ASP201     -0.2718
     42  CB        36.5950    5.8240   37.6500 C.3   201  ASP201      0.1424
     43  CG        36.0940    7.0980   38.2880 C.2   201  ASP201      0.3668
     44  OD1       35.4370    7.0020   39.3450 O.co2 201  ASP201     -0.2456
     45  OD2       36.3700    8.2160   37.7960 O.co2 201  ASP201     -0.2456
     46  N         39.3680    3.8240   37.4000 N.am  202  ILE202     -0.1980
     47  CA        39.9450    2.7250   36.5780 C.3   202  ILE202      0.1595
     48  C         41.0530    2.0850   37.3830 C.2   202  ILE202      0.2287
     49  O         41.7140    2.7400   38.1770 O.2   202  ILE202     -0.2864
     50  CB        40.5220    3.2470   35.2170 C.3   202  ILE202      0.0276
     51  CG1       39.3850    3.7560   34.3280 C.3   202  ILE202      0.0022
     52  CG2       41.3100    2.1150   34.4920 C.3   202  ILE202      0.0022
     53  CD1       39.9180    4.5090   33.0380 C.3   202  ILE202      0.0001
     54  N         31.0130   -4.3840   26.4250 N.3   219  GLY219     -0.1210
     55  CA        30.7940   -3.3800   27.5040 C.3   219  GLY219      0.1956
     56  C         32.1410   -2.6840   27.8630 C.2   219  GLY219      0.2612
     57  O         32.2390   -1.7670   28.6840 O.2   219  GLY219     -0.2717
     58  N         33.1600   -3.1910   27.2380 N.am  220  GLY220     -0.1942
     59  CA        34.4800   -2.6810   27.4520 C.3   220  GLY220      0.2014
     60  C         34.7830   -1.4800   26.5670 C.2   220  GLY220      0.2638
     61  O         33.9450   -0.9790   25.8340 O.2   220  GLY220     -0.2714
     62  N         36.0280   -1.0660   26.6200 N.am  221  LEU221     -0.1977
     63  CA        36.4290    0.1660   25.9440 C.3   221  LEU221      0.1596
     64  C         37.9400    0.1670   25.6830 C.2   221  LEU221      0.2287
     65  O         38.7110   -0.0950   26.6070 O.2   221  LEU221     -0.2864
     66  CB        36.0950    1.3530   26.8910 C.3   221  LEU221      0.0297
     67  CG        36.2760    2.7690   26.3890 C.3   221  LEU221      0.0022
     68  CD1       35.2610    3.0470   25.2580 C.3   221  LEU221      0.0001
     69  CD2       36.0910    3.8040   27.4990 C.3   221  LEU221      0.0001
     70  N         39.7760   -1.5740   28.8240 N.3   244  ILE244     -0.1231
     71  CA        39.1490   -1.7100   30.1240 C.3   244  ILE244      0.1692
     72  C         37.8680   -2.5050   29.9230 C.2   244  ILE244      0.2592
     73  O         37.1880   -2.4220   28.8940 O.2   244  ILE244     -0.2718
     74  CB        38.9180   -0.3820   30.8840 C.3   244  ILE244      0.0266
     75  CG1       38.0270    0.5710   30.1060 C.3   244  ILE244      0.0019
     76  CG2       40.2900    0.2760   31.2770 C.3   244  ILE244      0.0020
     77  CD1       37.4580    1.7040   30.9750 C.3   244  ILE244      0.0001
     78  N         37.5120   -3.2730   30.9390 N.am  245  ASP245     -0.1960
     79  CA        36.2450   -3.9890   30.9550 C.3   245  ASP245      0.1840
     80  C         35.1700   -3.0810   31.5510 C.2   245  ASP245      0.2623
     81  O         35.4280   -1.9350   31.9340 O.2   245  ASP245     -0.2715
     82  CB        36.3840   -5.3540   31.6830 C.3   245  ASP245      0.1450
     83  CG        36.6330   -5.2640   33.1390 C.2   245  ASP245      0.3671
     84  OD1       36.5770   -4.2040   33.7670 O.co2 245  ASP245     -0.2456
     85  OD2       36.9380   -6.3700   33.6980 O.co2 245  ASP245     -0.2456
     86  N         33.9710   -3.6480   31.6930 N.am  246  SER246     -0.1936
     87  CA        32.8300   -2.8500   32.1810 C.3   246  SER246      0.2055
     88  C         32.9650   -2.4080   33.6470 C.2   246  SER246      0.2643
     89  O         32.3110   -1.4610   34.0620 O.2   246  SER246     -0.2714
     90  CB        31.5110   -3.6090   31.9930 C.3   246  SER246      0.2130
     91  OG        31.4840   -4.7790   32.7880 O.3   246  SER246     -0.2179
     92  N         33.8380   -3.0620   34.4160 N.am  247  GLU247     -0.1963
     93  CA        34.1280   -2.6900   35.7920 C.3   247  GLU247      0.1733
     94  C         35.2790   -1.7000   35.9040 C.2   247  GLU247      0.2616
     95  O         35.6380   -1.2660   37.0010 O.2   247  GLU247     -0.2715
     96  CB        34.4650   -3.9370   36.6150 C.3   247  GLU247      0.0429
     97  CG        33.2720   -4.8740   36.8470 C.3   247  GLU247      0.1163
     98  CD        33.6460   -6.1240   37.6580 C.2   247  GLU247      0.3649
     99  OE1       34.7800   -6.1880   38.2130 O.co2 247  GLU247     -0.2457
    100  OE2       32.8030   -7.0510   37.7320 O.co2 247  GLU247     -0.2457
    101  N         35.8720   -1.3210   34.7750 N.am  248  GLY248     -0.1955
    102  CA        36.9670   -0.3790   34.8000 C.3   248  GLY248      0.1869
    103  C         38.3480   -0.9640   35.0220 C.2   248  GLY248      0.2309
    104  O         39.2770   -0.2140   35.2630 O.2   248  GLY248     -0.2863
@<TRIPOS>BOND
     1     4     3    2
     2     1     2    1
     3     3     2    1
     4    68    67    1
     5     2     5    1
     6    64    63    1
     7    64    65    2
     8     5     6    1
     9    61    60    2
    10    63    62    1
    11    63    66    1
    12     6     7    1
    13     6     8    1
    14    67    66    1
    15    67    69    1
    16    54    55    1
    17    60    62   am
    18    60    59    1
    19    58    59    1
    20    58    56   am
    21    55    56    1
    22    56    57    2
    23    13    14    1
    24    13    10    1
    25    70    71    1
    26    73    72    2
    27    14    15   ar
    28    14    16   ar
    29    15    17   ar
    30    10    11    1
    31    10     9    1
    32    16    18   ar
    33    17    19   ar
    34    72    71    1
    35    72    78   am
    36    75    74    1
    37    75    77    1
    38    71    74    1
    39    18    19   ar
    40    11    12    2
    41    74    76    1
    42    78    79    1
    43    79    80    1
    44    79    82    1
    45    80    86   am
    46    80    81    2
    47    82    83    1
    48    86    87    1
    49    90    87    1
    50    90    91    1
    51    87    88    1
    52    23    22    2
    53    53    51    1
    54    83    85   ar
    55    83    84   ar
    56    34    33    2
    57    37    35    1
    58    35    36    1
    59    35    32    1
    60    88    89    2
    61    88    92   am
    62    20    21    1
    63    22    21    1
    64    24    21    1
    65    24    25    1
    66    31    32    1
    67    51    50    1
    68    92    93    1
    69    33    32    1
    70    52    50    1
    71    29    28    1
    72    26    25    1
    73    26    27    1
    74   101   102    1
    75   101    94   am
    76   102   103    1
    77   103   104    2
    78    50    47    1
    79    28    27    2
    80    28    30    1
    81    93    94    1
    82    93    96    1
    83    94    95    2
    84    47    48    1
    85    47    46    1
    86    96    97    1
    87    97    98    1
    88    48    49    2
    89    46    40   am
    90    41    40    2
    91    42    43    1
    92    42    39    1
    93    98   100   ar
    94    98    99   ar
    95    40    39    1
    96    45    43   ar
    97    43    44   ar
    98    39    38    1
