@<TRIPOS>MOLECULE
tmp/3no2A00.pdb
 107 103 0 0 0
SMALL
GASTEIGER

@<TRIPOS>ATOM
      1  N         49.5090   11.2530   16.7390 N.3    10  SER10      -0.1217
      2  CA        50.3120   12.4260   16.5820 C.3    10  SER10       0.1889
      3  C         51.7110   12.1180   17.0920 C.2    10  SER10       0.2288
      4  O         51.8770   11.5360   18.1770 O.2    10  SER10      -0.2866
      5  CB        49.6870   13.5540   17.3850 C.3    10  SER10       0.2089
      6  OG        50.4560   14.7280   17.2560 O.3    10  SER10      -0.2183
      7  N         50.4730   14.7550   10.3610 N.3    36  GLU36      -0.1245
      8  CA        50.0730   14.4530   11.7140 C.3    36  GLU36       0.1567
      9  C         48.8050   13.6440   11.6120 C.2    36  GLU36       0.2260
     10  O         47.8090   14.1660   11.0770 O.2    36  GLU36      -0.2867
     11  CB        49.8010   15.7140   12.5440 C.3    36  GLU36       0.0388
     12  CG        49.4400   15.4310   13.9890 C.3    36  GLU36       0.1160
     13  CD        48.8610   16.5650   14.7750 C.2    36  GLU36       0.3649
     14  OE1       48.3630   17.5690   14.2050 O.co2  36  GLU36      -0.2457
     15  OE2       48.8260   16.4160   16.0340 O.co2  36  GLU36      -0.2457
     16  N         45.7970   11.9070   13.5200 N.3    38  ASN38      -0.1240
     17  CA        44.9190   11.7250   14.6940 C.3    38  ASN38       0.1653
     18  C         43.6610   10.9350   14.4290 C.2    38  ASN38       0.2266
     19  O         42.8670   10.8000   15.3510 O.2    38  ASN38      -0.2867
     20  CB        44.5730   13.0830   15.3160 C.3    38  ASN38       0.1155
     21  CG        45.7590   13.7000   16.0490 C.2    38  ASN38       0.2627
     22  OD1       46.2610   13.1040   17.0460 O.2    38  ASN38      -0.2716
     23  ND2       46.2050   14.8840   15.6200 N.am   38  ASN38      -0.0877
     24  N         44.7020   24.5050   14.6060 N.3   119  HIS119     -0.1241
     25  CA        45.1330   23.4310   15.4480 C.3   119  HIS119      0.1621
     26  C         44.3760   23.4030   16.8030 C.2   119  HIS119      0.2264
     27  O         44.3430   22.3640   17.4370 O.2   119  HIS119     -0.2867
     28  CB        46.6530   23.5500   15.7440 C.3   119  HIS119      0.0745
     29  CG        47.3060   22.2990   16.1640 C.ar  119  HIS119      0.0817
     30  ND1       47.3610   21.1870   15.3540 N.ar  119  HIS119     -0.2268
     31  CD2       48.0190   21.9860   17.2720 C.ar  119  HIS119      0.1154
     32  CE1       48.0630   20.2420   15.9580 C.ar  119  HIS119      0.1986
     33  NE2       48.4980   20.7080   17.1220 N.ar  119  HIS119     -0.2212
     34  N         39.7030   17.6120   16.6870 N.3   123  ARG123     -0.1245
     35  CA        40.3610   16.4340   16.1520 C.3   123  ARG123      0.1563
     36  C         39.2940   15.5560   15.4980 C.2   123  ARG123      0.2260
     37  O         39.1330   15.6380   14.2560 O.2   123  ARG123     -0.2867
     38  CB        41.2070   15.7330   17.2060 C.3   123  ARG123      0.0307
     39  CG        42.3460   16.6100   17.6940 C.3   123  ARG123      0.0489
     40  CD        43.4090   16.8630   16.6260 C.3   123  ARG123      0.2205
     41  NE        44.4730   17.7510   17.1160 N.pl3 123  ARG123     -0.0865
     42  CZ        44.4490   19.0630   17.1230 C.cat 123  ARG123      0.5346
     43  NH1       43.4450   19.7300   16.6090 N.pl3 123  ARG123      0.1354
     44  NH2       45.4340   19.7210   17.7350 N.pl3 123  ARG123      0.1354
     45  N         39.1020   22.1130   21.3780 N.3   138  PHE138     -0.1241
     46  CA        40.1850   22.2910   22.3380 C.3   138  PHE138      0.1605
     47  C         40.1300   23.6510   23.0350 C.2   138  PHE138      0.2264
     48  O         40.0760   23.7290   24.2590 O.2   138  PHE138     -0.2867
     49  CB        41.5550   22.2120   21.6740 C.3   138  PHE138      0.0534
     50  CG        42.1050   20.8240   21.3730 C.ar  138  PHE138     -0.0203
     51  CD1       41.3410   19.6920   21.2780 C.ar  138  PHE138     -0.0042
     52  CD2       43.4750   20.7080   21.1950 C.ar  138  PHE138     -0.0042
     53  CE1       41.9580   18.4620   20.9990 C.ar  138  PHE138     -0.0003
     54  CE2       44.0640   19.4910   20.9020 C.ar  138  PHE138     -0.0003
     55  CZ        43.2920   18.3860   20.7800 C.ar  138  PHE138     -0.0000
     56  N         38.6990   15.6940   22.4220 N.3   163  PHE163     -0.1241
     57  CA        39.3640   15.0700   21.2820 C.3   163  PHE163      0.1605
     58  C         38.4470   14.2910   20.3420 C.2   163  PHE163      0.2264
     59  O         38.7140   14.2420   19.1300 O.2   163  PHE163     -0.2867
     60  CB        40.4930   14.1690   21.8260 C.3   163  PHE163      0.0534
     61  CG        41.2350   13.3990   20.7620 C.ar  163  PHE163     -0.0203
     62  CD1       42.3410   13.9450   20.1320 C.ar  163  PHE163     -0.0042
     63  CD2       40.8350   12.1430   20.3650 C.ar  163  PHE163     -0.0042
     64  CE1       43.0260   13.2640   19.1240 C.ar  163  PHE163     -0.0003
     65  CE2       41.5080   11.4840   19.3600 C.ar  163  PHE163     -0.0003
     66  CZ        42.5750   12.0560   18.7310 C.ar  163  PHE163     -0.0000
     67  N         46.9650   12.0660   27.9830 N.3   209  PHE209     -0.1241
     68  CA        45.9880   12.7450   27.1230 C.3   209  PHE209      0.1605
     69  C         45.0180   11.6770   26.6800 C.2   209  PHE209      0.2264
     70  O         45.3960   10.7320   25.9750 O.2   209  PHE209     -0.2867
     71  CB        46.7260   13.3690   25.9280 C.3   209  PHE209      0.0534
     72  CG        45.8510   14.0820   24.9330 C.ar  209  PHE209     -0.0203
     73  CD1       45.0950   13.3630   24.0320 C.ar  209  PHE209     -0.0042
     74  CD2       45.8020   15.4660   24.9120 C.ar  209  PHE209     -0.0042
     75  CE1       44.2850   14.0210   23.1290 C.ar  209  PHE209     -0.0003
     76  CE2       45.0200   16.1220   23.9960 C.ar  209  PHE209     -0.0003
     77  CZ        44.2480   15.4350   23.1160 C.ar  209  PHE209     -0.0000
     78  N         47.5830    8.8710   25.1470 N.3   226  TRP226     -0.1241
     79  CA        48.6380    9.5300   24.3890 C.3   226  TRP226      0.1605
     80  C         49.5180   10.3520   25.3350 C.2   226  TRP226      0.2264
     81  O         49.0180   11.1670   26.1360 O.2   226  TRP226     -0.2867
     82  CB        47.9720   10.4000   23.3080 C.3   226  TRP226      0.0550
     83  CG        48.9240   11.0430   22.3260 C.ar  226  TRP226      0.0003
     84  CD1       49.4600   10.4780   21.2020 C.ar  226  TRP226      0.0946
     85  CD2       49.4400   12.3750   22.3640 C.ar  226  TRP226      0.0152
     86  NE1       50.2630   11.3600   20.5560 N.ar  226  TRP226     -0.2442
     87  CE2       50.2630   12.5370   21.2340 C.ar  226  TRP226      0.0810
     88  CE3       49.2450   13.4500   23.2100 C.ar  226  TRP226      0.0012
     89  CZ2       50.8970   13.7280   20.9520 C.ar  226  TRP226      0.0191
     90  CZ3       49.9060   14.6670   22.9220 C.ar  226  TRP226      0.0001
     91  CH2       50.7090   14.7760   21.8320 C.ar  226  TRP226      0.0015
     92  N         52.2540   15.0590   25.8400 N.3   229  HIS229     -0.1241
     93  CA        52.2570   16.2850   26.6070 C.3   229  HIS229      0.1621
     94  C         52.8600   16.0950   27.9850 C.2   229  HIS229      0.2264
     95  O         52.8340   17.0530   28.7950 O.2   229  HIS229     -0.2867
     96  CB        50.8340   16.8710   26.7470 C.3   229  HIS229      0.0745
     97  CG        50.2740   17.4670   25.4970 C.ar  229  HIS229      0.0817
     98  ND1       48.9520   17.8160   25.3670 N.ar  229  HIS229     -0.2268
     99  CD2       50.8560   17.7530   24.3030 C.ar  229  HIS229      0.1154
    100  CE1       48.7460   18.3220   24.1570 C.ar  229  HIS229      0.1986
    101  NE2       49.8760   18.2700   23.4940 N.ar  229  HIS229     -0.2212
    102  N         46.9940    7.8680   19.2190 N.3   263  SER263     -0.1217
    103  CA        45.8360    8.6990   19.5350 C.3   263  SER263      0.1889
    104  C         44.5640    8.2120   18.8630 C.2   263  SER263      0.2288
    105  O         43.4920    8.7230   19.1710 O.2   263  SER263     -0.2866
    106  CB        46.0480   10.1750   19.2250 C.3   263  SER263      0.2089
    107  OG        46.3060   10.3630   17.8460 O.3   263  SER263     -0.2183
@<TRIPOS>BOND
     1     7     8    1
     2    10     9    2
     3     9     8    1
     4     8    11    1
     5    11    12    1
     6    16    17    1
     7    12    13    1
     8    14    13   ar
     9    37    36    2
    10    18    17    1
    11    18    19    2
    12    24    25    1
    13    17    20    1
    14    13    15   ar
    15    20    21    1
    16    30    32   ar
    17    30    29   ar
    18    25    28    1
    19    25    26    1
    20    36    35    1
    21    23    21   am
    22    28    29    1
    23    32    33   ar
    24    21    22    2
    25    35    34    1
    26    35    38    1
    27    29    31   ar
    28     2     1    1
    29     2     3    1
    30     2     5    1
    31    43    42    1
    32    40    41    1
    33    40    39    1
    34    26    27    2
    35     3     4    2
    36    41    42    2
    37    33    31   ar
    38    42    44    1
    39    38    39    1
    40     6     5    1
    41   107   106    1
    42    66    64   ar
    43    66    65   ar
    44   104   105    2
    45   104   103    1
    46    64    62   ar
    47    59    58    2
    48   102   103    1
    49   106   103    1
    50    65    63   ar
    51    62    61   ar
    52    58    57    1
    53    63    61   ar
    54    86    84   ar
    55    86    87   ar
    56    61    60    1
    57    55    54   ar
    58    55    53   ar
    59    54    52   ar
    60    89    87   ar
    61    89    91   ar
    62    53    51   ar
    63    52    50   ar
    64    84    83   ar
    65    87    85   ar
    66    51    50   ar
    67    57    60    1
    68    57    56    1
    69    50    49    1
    70    45    46    1
    71    49    46    1
    72    91    90   ar
    73    83    85   ar
    74    83    82    1
    75    46    47    1
    76    85    88   ar
    77    90    88   ar
    78    47    48    2
    79    77    75   ar
    80    77    76   ar
    81    75    73   ar
    82    82    79    1
    83   101   100   ar
    84   101    99   ar
    85    76    74   ar
    86    73    72   ar
    87   100    98   ar
    88    99    97   ar
    89    79    78    1
    90    79    80    1
    91    74    72   ar
    92    72    71    1
    93    80    81    2
    94    98    97   ar
    95    97    96    1
    96    92    93    1
    97    71    68    1
    98    70    69    2
    99    93    96    1
   100    93    94    1
   101    69    68    1
   102    68    67    1
   103    94    95    2
