@<TRIPOS>MOLECULE
tmp/3no6B00.pdb
 144 140 0 0 0
SMALL
GASTEIGER

@<TRIPOS>ATOM
      1  N         66.2780  -14.8190   61.8620 N.3    39  TYR39      -0.1241
      2  CA        65.1510  -15.3210   62.6350 C.3    39  TYR39       0.1605
      3  C         65.6210  -15.9080   63.9940 C.2    39  TYR39       0.2264
      4  O         65.0830  -15.5020   65.0320 O.2    39  TYR39      -0.2867
      5  CB        64.3600  -16.3820   61.8280 C.3    39  TYR39       0.0534
      6  CG        63.3540  -17.1050   62.6920 C.ar   39  TYR39      -0.0201
      7  CD1       62.1460  -16.4830   63.0310 C.ar   39  TYR39      -0.0009
      8  CD2       63.6190  -18.3820   63.1940 C.ar   39  TYR39      -0.0009
      9  CE1       61.2090  -17.1290   63.8300 C.ar   39  TYR39       0.0417
     10  CE2       62.6890  -19.0280   64.0320 C.ar   39  TYR39       0.0417
     11  CZ        61.5040  -18.3750   64.3410 C.ar   39  TYR39       0.1957
     12  OH        60.6130  -19.0360   65.1380 O.3    39  TYR39      -0.2866
     13  N         64.5500  -14.2590   67.3850 N.3    43  ASP43      -0.1239
     14  CA        63.6570  -15.1420   68.1360 C.3    43  ASP43       0.1674
     15  C         64.1420  -15.2370   69.5790 C.2    43  ASP43       0.2266
     16  O         63.3460  -15.0390   70.4940 O.2    43  ASP43      -0.2867
     17  CB        63.5700  -16.5160   67.4550 C.3    43  ASP43       0.1410
     18  CG        62.6480  -17.4780   68.1590 C.2    43  ASP43       0.3668
     19  OD1       61.4510  -17.1670   68.2400 O.co2  43  ASP43      -0.2456
     20  OD2       63.1100  -18.5620   68.5710 O.co2  43  ASP43      -0.2456
     21  N         62.0910  -14.1870   72.8330 N.3    47  LEU47      -0.1245
     22  CA        61.8080  -15.2230   73.8340 C.3    47  LEU47       0.1561
     23  C         62.2980  -14.8540   75.2410 C.2    47  LEU47       0.2260
     24  O         61.6340  -15.1600   76.2400 O.2    47  LEU47      -0.2867
     25  CB        62.3280  -16.5840   73.3680 C.3    47  LEU47       0.0270
     26  CG        61.5940  -17.1760   72.1650 C.3    47  LEU47       0.0019
     27  CD1       62.2140  -18.5100   71.8190 C.3    47  LEU47       0.0001
     28  CD2       60.1040  -17.3630   72.3990 C.3    47  LEU47       0.0001
     29  N         59.5710  -12.5700   76.4320 N.3    50  PHE50      -0.1241
     30  CA        58.3530  -13.3870   76.7040 C.3    50  PHE50       0.1605
     31  C         58.4320  -13.9850   78.1420 C.2    50  PHE50       0.2264
     32  O         57.4350  -14.0120   78.8620 O.2    50  PHE50      -0.2867
     33  CB        58.2580  -14.4760   75.6440 C.3    50  PHE50       0.0534
     34  CG        56.8880  -15.0570   75.4210 C.ar   50  PHE50      -0.0203
     35  CD1       56.0660  -14.5260   74.4420 C.ar   50  PHE50      -0.0042
     36  CD2       56.4810  -16.2100   76.0640 C.ar   50  PHE50      -0.0042
     37  CE1       54.8370  -15.0880   74.1580 C.ar   50  PHE50      -0.0003
     38  CE2       55.2320  -16.7800   75.7790 C.ar   50  PHE50      -0.0003
     39  CZ        54.4210  -16.2320   74.8200 C.ar   50  PHE50      -0.0000
     40  N         56.1580  -13.2860   81.4900 N.3    54  TYR54      -0.1241
     41  CA        55.5820  -14.2860   82.3940 C.3    54  TYR54       0.1605
     42  C         55.7970  -13.9550   83.8840 C.2    54  TYR54       0.2264
     43  O         54.8610  -14.0670   84.7040 O.2    54  TYR54      -0.2867
     44  CB        56.1740  -15.6940   82.1320 C.3    54  TYR54       0.0534
     45  CG        55.6320  -16.4940   80.9910 C.ar   54  TYR54      -0.0201
     46  CD1       54.2760  -16.7920   80.8940 C.ar   54  TYR54      -0.0009
     47  CD2       56.4850  -17.1060   80.0790 C.ar   54  TYR54      -0.0009
     48  CE1       53.7690  -17.6040   79.8650 C.ar   54  TYR54       0.0417
     49  CE2       55.9890  -17.9200   79.0580 C.ar   54  TYR54       0.0417
     50  CZ        54.6410  -18.1800   78.9670 C.ar   54  TYR54       0.1957
     51  OH        54.2060  -19.0000   77.9570 O.3    54  TYR54      -0.2866
     52  N         56.2390  -22.4030   83.2340 N.3    70  GLN70      -0.1245
     53  CA        56.6000  -21.8460   81.9280 C.3    70  GLN70       0.1566
     54  C         57.9780  -21.2080   81.9210 C.2    70  GLN70       0.2260
     55  O         58.7310  -21.3900   80.9800 O.2    70  GLN70      -0.2867
     56  CB        55.5370  -20.8580   81.4030 C.3    70  GLN70       0.0367
     57  CG        54.3240  -21.5350   80.8450 C.3    70  GLN70       0.0905
     58  CD        54.6350  -22.3050   79.5500 C.2    70  GLN70       0.2608
     59  OE1       54.4620  -23.5050   79.5080 O.2    70  GLN70      -0.2717
     60  NE2       55.1330  -21.6110   78.5240 N.am   70  GLN70      -0.0878
     61  N         60.5490  -23.9920   81.9410 N.3    73  PHE73      -0.1241
     62  CA        60.6140  -24.6020   80.6040 C.3    73  PHE73       0.1605
     63  C         61.4340  -23.7030   79.6530 C.2    73  PHE73       0.2264
     64  O         62.2700  -24.2030   78.9000 O.2    73  PHE73      -0.2867
     65  CB        59.2030  -24.8530   80.0370 C.3    73  PHE73       0.0534
     66  CG        59.1560  -25.4650   78.6540 C.ar   73  PHE73      -0.0203
     67  CD1       59.7590  -26.6570   78.3650 C.ar   73  PHE73      -0.0042
     68  CD2       58.4510  -24.8570   77.6470 C.ar   73  PHE73      -0.0042
     69  CE1       59.6700  -27.2820   77.1380 C.ar   73  PHE73      -0.0003
     70  CE2       58.3240  -25.4700   76.3750 C.ar   73  PHE73      -0.0003
     71  CZ        58.9650  -26.6400   76.1510 C.ar   73  PHE73      -0.0000
     72  N         65.2780  -26.0270   72.3950 N.3    78  VAL78      -0.1245
     73  CA        64.0060  -26.3280   71.6740 C.3    78  VAL78       0.1561
     74  C         64.3620  -27.0790   70.3950 C.2    78  VAL78       0.2260
     75  O         65.1730  -26.5750   69.6120 O.2    78  VAL78      -0.2867
     76  CB        63.2360  -25.0390   71.2940 C.3    78  VAL78       0.0252
     77  CG1       61.9330  -25.3550   70.5190 C.3    78  VAL78       0.0019
     78  CG2       62.9520  -24.1830   72.5400 C.3    78  VAL78       0.0019
     79  N         64.6570  -25.1590   67.0440 N.3    81  HIS81      -0.1241
     80  CA        65.8610  -24.3340   66.8320 C.3    81  HIS81       0.1621
     81  C         67.0110  -25.1780   66.3020 C.2    81  HIS81       0.2264
     82  O         67.7250  -24.7240   65.4040 O.2    81  HIS81      -0.2867
     83  CB        66.3370  -23.6160   68.0930 C.3    81  HIS81       0.0745
     84  CG        65.3280  -22.6940   68.6910 C.ar   81  HIS81       0.0817
     85  ND1       65.2790  -22.4340   70.0440 N.ar   81  HIS81      -0.2268
     86  CD2       64.2980  -22.0080   68.1350 C.ar   81  HIS81       0.1154
     87  CE1       64.2760  -21.6080   70.2920 C.ar   81  HIS81       0.1986
     88  NE2       63.6630  -21.3380   69.1500 N.ar   81  HIS81      -0.2212
     89  N         51.4120  -16.0180   69.8090 N.3   130  CYS130     -0.1221
     90  CA        52.6400  -16.7600   69.5120 C.3   130  CYS130      0.1794
     91  C         52.4300  -18.2860   69.4040 C.2   130  CYS130      0.2443
     92  O         52.5760  -18.8600   68.3150 O.2   130  CYS130     -0.2733
     93  CB        53.7600  -16.3650   70.4760 C.3   130  CYS130      0.0970
     94  SG        55.1980  -17.3570   70.2300 S.3   130  CYS130     -0.0800
     95  N         51.9930  -18.9720   70.4720 N.am  131  PRO131     -0.2729
     96  CA        51.7960  -20.4010   70.2750 C.3   131  PRO131      0.1401
     97  C         50.6410  -20.7730   69.3100 C.2   131  PRO131      0.2269
     98  O         50.7260  -21.7950   68.6350 O.2   131  PRO131     -0.2865
     99  CB        51.4710  -20.8970   71.7000 C.3   131  PRO131      0.0296
    100  CG        51.0680  -19.7020   72.4440 C.3   131  PRO131      0.0237
    101  CD        51.8450  -18.5830   71.8900 C.3   131  PRO131      0.0939
    102  N         51.9260  -20.4580   65.5950 N.3   134  TYR134     -0.1241
    103  CA        52.8240  -21.5700   65.2910 C.3   134  TYR134      0.1605
    104  C         52.0850  -22.9060   65.1460 C.2   134  TYR134      0.2264
    105  O         52.3970  -23.7100   64.2670 O.2   134  TYR134     -0.2867
    106  CB        53.9710  -21.6500   66.3090 C.3   134  TYR134      0.0534
    107  CG        55.0940  -20.6450   66.0720 C.ar  134  TYR134     -0.0201
    108  CD1       54.8930  -19.2830   66.1770 C.ar  134  TYR134     -0.0009
    109  CD2       56.3820  -21.0940   65.7360 C.ar  134  TYR134     -0.0009
    110  CE1       55.9650  -18.3540   65.9660 C.ar  134  TYR134      0.0417
    111  CE2       57.4400  -20.1890   65.5350 C.ar  134  TYR134      0.0417
    112  CZ        57.2310  -18.8450   65.6730 C.ar  134  TYR134      0.1957
    113  OH        58.2380  -17.9600   65.4680 O.3   134  TYR134     -0.2866
    114  N         57.1620  -30.3550   64.6710 N.3   158  PHE158     -0.1227
    115  CA        57.2760  -29.8850   66.0650 C.3   158  PHE158      0.1736
    116  C         56.1110  -28.9570   66.4880 C.2   158  PHE158      0.2595
    117  O         55.4210  -29.2050   67.4820 O.2   158  PHE158     -0.2718
    118  CB        58.6520  -29.2040   66.2910 C.3   158  PHE158      0.0547
    119  CG        58.8840  -28.7380   67.6990 C.ar  158  PHE158     -0.0202
    120  CD1       59.4380  -29.6040   68.6520 C.ar  158  PHE158     -0.0042
    121  CD2       58.5570  -27.4400   68.0950 C.ar  158  PHE158     -0.0042
    122  CE1       59.6470  -29.1730   69.9820 C.ar  158  PHE158     -0.0003
    123  CE2       58.7650  -26.9930   69.4080 C.ar  158  PHE158     -0.0003
    124  CZ        59.3080  -27.8700   70.3630 C.ar  158  PHE158     -0.0000
    125  N         55.8920  -27.8870   65.7440 N.am  159  TYR159     -0.1976
    126  CA        54.8280  -26.9180   66.0830 C.3   159  TYR159      0.1639
    127  C         53.3780  -27.4260   65.9010 C.2   159  TYR159      0.2290
    128  O         52.4540  -26.8700   66.5020 O.2   159  TYR159     -0.2864
    129  CB        55.0810  -25.5780   65.3560 C.3   159  TYR159      0.0560
    130  CG        56.2970  -24.8870   65.9280 C.ar  159  TYR159     -0.0198
    131  CD1       56.2880  -24.4190   67.2470 C.ar  159  TYR159     -0.0009
    132  CD2       57.4830  -24.7230   65.1820 C.ar  159  TYR159     -0.0009
    133  CE1       57.4140  -23.7770   67.8230 C.ar  159  TYR159      0.0417
    134  CE2       58.6160  -24.0600   65.7490 C.ar  159  TYR159      0.0417
    135  CZ        58.5780  -23.6240   67.0650 C.ar  159  TYR159      0.1957
    136  OH        59.6600  -23.0060   67.6250 O.3   159  TYR159     -0.2866
    137  N         49.8070  -25.3360   75.6850 N.3   165  LEU165     -0.1245
    138  CA        49.9040  -23.9230   76.0300 C.3   165  LEU165      0.1561
    139  C         48.7250  -23.1230   75.4360 C.2   165  LEU165      0.2260
    140  O         48.1860  -22.2520   76.0960 O.2   165  LEU165     -0.2867
    141  CB        51.2680  -23.3330   75.6120 C.3   165  LEU165      0.0270
    142  CG        51.5940  -21.8720   75.9420 C.3   165  LEU165      0.0019
    143  CD1       51.4750  -21.5550   77.4350 C.3   165  LEU165      0.0001
    144  CD2       53.0250  -21.4650   75.4190 C.3   165  LEU165      0.0001
@<TRIPOS>BOND
     1     5     2    1
     2     5     6    1
     3     1     2    1
     4     2     3    1
     5     6     7   ar
     6     6     8   ar
     7     7     9   ar
     8     8    10   ar
     9     9    11   ar
    10     3     4    2
    11    10    11   ar
    12   105   104    2
    13    11    12    1
    14   114   115    1
    15   104   103    1
    16   132   134   ar
    17   132   130   ar
    18   103   102    1
    19   103   106    1
    20   129   130    1
    21   129   126    1
    22    82    81    2
    23   113   112    1
    24   111   112   ar
    25   111   109   ar
    26   112   110   ar
    27   109   107   ar
    28   125   126    1
    29   125   116   am
    30   134   135   ar
    31   127   126    1
    32   127   128    2
    33   130   131   ar
    34   110   108   ar
    35   115   118    1
    36   115   116    1
    37   107   108   ar
    38   107   106    1
    39   118   119    1
    40    81    80    1
    41   116   117    2
    42    80    79    1
    43    80    83    1
    44   135   136    1
    45   135   133   ar
    46   131   133   ar
    47    13    14    1
    48    17    14    1
    49    17    18    1
    50   119   121   ar
    51   119   120   ar
    52    83    84    1
    53   121   123   ar
    54    86    84   ar
    55    86    88   ar
    56    14    15    1
    57    18    19   ar
    58    18    20   ar
    59    92    91    2
    60    98    97    2
    61   120   122   ar
    62    84    85   ar
    63    88    87   ar
    64    97    96    1
    65    91    90    1
    66    91    95   am
    67   123   124   ar
    68    90    89    1
    69    90    93    1
    70    15    16    2
    71    75    74    2
    72   122   124   ar
    73    85    87   ar
    74    94    93    1
    75    96    95    1
    76    96    99    1
    77    74    73    1
    78    95   101    1
    79    77    76    1
    80    76    73    1
    81    76    78    1
    82    73    72    1
    83    99   100    1
    84    27    26    1
    85   101   100    1
    86    26    28    1
    87    26    25    1
    88    21    22    1
    89    25    22    1
    90    22    23    1
    91    37    35   ar
    92    37    39   ar
    93    35    34   ar
    94    39    38   ar
    95    23    24    2
    96   144   142    1
    97    34    33    1
    98    34    36   ar
    99   139   138    1
   100   139   140    2
   101   141   142    1
   102   141   138    1
   103    33    30    1
   104   137   138    1
   105    38    36   ar
   106   142   143    1
   107    71    70   ar
   108    71    69   ar
   109    70    68   ar
   110    29    30    1
   111    30    31    1
   112    69    67   ar
   113    68    66   ar
   114    51    50    1
   115    31    32    2
   116    67    66   ar
   117    60    58   am
   118    66    65    1
   119    64    63    2
   120    50    49   ar
   121    50    48   ar
   122    49    47   ar
   123    59    58    2
   124    58    57    1
   125    63    62    1
   126    48    46   ar
   127    65    62    1
   128    47    45   ar
   129    62    61    1
   130    57    56    1
   131    46    45   ar
   132    55    54    2
   133    45    44    1
   134    56    53    1
   135    40    41    1
   136    54    53    1
   137    53    52    1
   138    44    41    1
   139    41    42    1
   140    42    43    2
