@<TRIPOS>MOLECULE
tmp/3nodA02.pdb
 151 150 0 0 0
SMALL
GASTEIGER

@<TRIPOS>ATOM
      1  N        119.5630  108.3500   27.0530 N.3   112  CYS112     -0.1235
      2  CA       120.4070  109.5030   26.6970 C.3   112  CYS112      0.1677
      3  C        120.0940  110.1040   25.3270 C.2   112  CYS112      0.2270
      4  O        120.0600  109.3910   24.3210 O.2   112  CYS112     -0.2867
      5  CB       121.8930  109.1270   26.7580 C.3   112  CYS112      0.0956
      6  SG       123.0270  110.3380   26.0090 S.3   112  CYS112     -0.0801
      7  N        126.9540  111.6150   40.9320 N.3   175  GLN175     -0.1245
      8  CA       127.7420  112.0900   39.8170 C.3   175  GLN175      0.1566
      9  C        128.9840  112.7550   40.3740 C.2   175  GLN175      0.2260
     10  O        129.0380  113.0470   41.5680 O.2   175  GLN175     -0.2867
     11  CB       126.9210  113.0480   38.9620 C.3   175  GLN175      0.0367
     12  CG       125.9380  113.8880   39.7240 C.3   175  GLN175      0.0905
     13  CD       125.0350  114.6480   38.7910 C.2   175  GLN175      0.2608
     14  OE1      125.5050  115.4430   37.9780 O.2   175  GLN175     -0.2717
     15  NE2      123.7350  114.3950   38.8830 N.am  175  GLN175     -0.0878
     16  N        125.2470  126.8700   39.1220 N.3   258  TRP258     -0.1227
     17  CA       125.2000  125.4280   39.0000 C.3   258  TRP258      0.1737
     18  C        126.5020  124.9830   38.3840 C.2   258  TRP258      0.2595
     19  O        127.1590  125.7730   37.7140 O.2   258  TRP258     -0.2718
     20  CB       124.0280  125.0020   38.1150 C.3   258  TRP258      0.0564
     21  CG       123.6750  123.5590   38.2830 C.ar  258  TRP258      0.0003
     22  CD1      123.9980  122.5350   37.4450 C.ar  258  TRP258      0.0946
     23  CD2      122.9750  122.9710   39.3850 C.ar  258  TRP258      0.0152
     24  NE1      123.5540  121.3460   37.9580 N.ar  258  TRP258     -0.2442
     25  CE2      122.9220  121.5820   39.1510 C.ar  258  TRP258      0.0810
     26  CE3      122.3880  123.4840   40.5510 C.ar  258  TRP258      0.0012
     27  CZ2      122.3050  120.6880   40.0460 C.ar  258  TRP258      0.0191
     28  CZ3      121.7740  122.5980   41.4380 C.ar  258  TRP258      0.0001
     29  CH2      121.7390  121.2140   41.1780 C.ar  258  TRP258      0.0015
     30  N        126.9130  123.7500   38.6680 N.am  259  TYR259     -0.1976
     31  CA       128.1480  123.2290   38.0880 C.3   259  TYR259      0.1639
     32  C        127.9870  123.0260   36.5860 C.2   259  TYR259      0.2290
     33  O        126.8880  122.7560   36.0840 O.2   259  TYR259     -0.2864
     34  CB       128.6110  121.9360   38.7740 C.3   259  TYR259      0.0560
     35  CG       127.5300  120.9170   39.0620 C.ar  259  TYR259     -0.0198
     36  CD1      126.7870  120.9830   40.2420 C.ar  259  TYR259     -0.0009
     37  CD2      127.2870  119.8550   38.1870 C.ar  259  TYR259     -0.0009
     38  CE1      125.8310  120.0190   40.5480 C.ar  259  TYR259      0.0417
     39  CE2      126.3340  118.8850   38.4840 C.ar  259  TYR259      0.0417
     40  CZ       125.6090  118.9750   39.6680 C.ar  259  TYR259      0.1957
     41  OH       124.6580  118.0300   39.9740 O.3   259  TYR259     -0.2866
     42  N        128.2720  117.6770   33.9480 N.3   262  PRO262     -0.2116
     43  CA       127.3170  116.6060   34.2160 C.3   262  PRO262      0.1372
     44  C        128.1250  115.3230   34.0130 C.2   262  PRO262      0.2244
     45  O        128.5000  114.9640   32.8870 O.2   262  PRO262     -0.2868
     46  CB       126.2740  116.8200   33.1290 C.3   262  PRO262      0.0268
     47  CG       127.1120  117.2170   31.9520 C.3   262  PRO262      0.0207
     48  CD       128.1900  118.1180   32.5390 C.3   262  PRO262      0.0892
     49  N        128.0060  111.4540   35.3300 N.3   264  VAL264     -0.1245
     50  CA       127.3940  110.3530   36.0720 C.3   264  VAL264      0.1561
     51  C        128.4820  109.4270   36.5950 C.2   264  VAL264      0.2260
     52  O        129.3030  108.9120   35.8260 O.2   264  VAL264     -0.2867
     53  CB       126.4140  109.5590   35.2000 C.3   264  VAL264      0.0252
     54  CG1      125.6630  108.5380   36.0510 C.3   264  VAL264      0.0019
     55  CG2      125.4490  110.5100   34.5070 C.3   264  VAL264      0.0019
     56  N        131.4210  108.8480   33.5900 N.3   281  PHE281     -0.1227
     57  CA       131.4880  109.4770   32.2800 C.3   281  PHE281      0.1736
     58  C        130.8090  110.8200   32.3730 C.2   281  PHE281      0.2595
     59  O        130.1370  111.1180   33.3670 O.2   281  PHE281     -0.2718
     60  CB       130.7560  108.6200   31.2430 C.3   281  PHE281      0.0547
     61  CG       129.3520  108.2500   31.6460 C.ar  281  PHE281     -0.0202
     62  CD1      128.2830  109.0830   31.3450 C.ar  281  PHE281     -0.0042
     63  CD2      129.1050  107.0840   32.3640 C.ar  281  PHE281     -0.0042
     64  CE1      126.9950  108.7620   31.7530 C.ar  281  PHE281     -0.0003
     65  CE2      127.8190  106.7550   32.7750 C.ar  281  PHE281     -0.0003
     66  CZ       126.7630  107.5950   32.4720 C.ar  281  PHE281     -0.0000
     67  N        130.9290  111.5970   31.3030 N.am  282  ASN282     -0.1960
     68  CA       130.3200  112.9170   31.2500 C.3   282  ASN282      0.1819
     69  C        130.0410  113.3420   29.8180 C.2   282  ASN282      0.2622
     70  O        130.7410  112.9530   28.8780 O.2   282  ASN282     -0.2715
     71  CB       131.2540  113.9600   31.8660 C.3   282  ASN282      0.1195
     72  CG       132.3920  114.3310   30.9330 C.2   282  ASN282      0.2630
     73  OD1      133.3390  113.5680   30.7590 O.2   282  ASN282     -0.2716
     74  ND2      132.2650  115.4720   30.2730 N.am  282  ASN282     -0.0877
     75  N        129.0160  114.1660   29.6780 N.am  283  GLY283     -0.1940
     76  CA       128.6650  114.7150   28.3890 C.3   283  GLY283      0.2014
     77  C        128.6320  116.1870   28.7160 C.2   283  GLY283      0.2639
     78  O        129.5080  116.6860   29.4250 O.2   283  GLY283     -0.2714
     79  N        127.6160  116.8850   28.2310 N.am  284  TRP284     -0.1959
     80  CA       127.4660  118.2950   28.5360 C.3   284  TRP284      0.1771
     81  C        125.9970  118.5830   28.7200 C.2   284  TRP284      0.2620
     82  O        125.1510  118.0070   28.0380 O.2   284  TRP284     -0.2715
     83  CB       128.0730  119.1830   27.4590 C.3   284  TRP284      0.0590
     84  CG       127.5690  118.9350   26.1000 C.ar  284  TRP284      0.0006
     85  CD1      126.3030  119.1540   25.6360 C.ar  284  TRP284      0.0946
     86  CD2      128.3290  118.4600   24.9910 C.ar  284  TRP284      0.0152
     87  NE1      126.2290  118.8490   24.2970 N.ar  284  TRP284     -0.2442
     88  CE2      127.4610  118.4200   23.8750 C.ar  284  TRP284      0.0810
     89  CE3      129.6640  118.0680   24.8260 C.ar  284  TRP284      0.0012
     90  CZ2      127.8860  118.0000   22.6090 C.ar  284  TRP284      0.0191
     91  CZ3      130.0870  117.6500   23.5660 C.ar  284  TRP284      0.0001
     92  CH2      129.1980  117.6210   22.4760 C.ar  284  TRP284      0.0015
     93  N        125.7030  119.4590   29.6690 N.am  285  TYR285     -0.1960
     94  CA       124.3380  119.8270   29.9940 C.3   285  TYR285      0.1771
     95  C        123.3850  120.2060   28.8650 C.2   285  TYR285      0.2619
     96  O        123.7840  120.6880   27.8000 O.2   285  TYR285     -0.2715
     97  CB       124.3400  120.9530   31.0140 C.3   285  TYR285      0.0574
     98  CG       124.3410  120.4740   32.4240 C.ar  285  TYR285     -0.0198
     99  CD1      123.2100  119.8820   32.9680 C.ar  285  TYR285     -0.0009
    100  CD2      125.4600  120.6350   33.2300 C.ar  285  TYR285     -0.0009
    101  CE1      123.1910  119.4640   34.2890 C.ar  285  TYR285      0.0417
    102  CE2      125.4530  120.2220   34.5550 C.ar  285  TYR285      0.0417
    103  CZ       124.3170  119.6390   35.0750 C.ar  285  TYR285      0.1957
    104  OH       124.3080  119.2430   36.3770 O.3   285  TYR285     -0.2866
    105  N        122.1160  119.9130   29.1170 N.am  286  MET286     -0.1977
    106  CA       121.0220  120.2560   28.2300 C.3   286  MET286      0.1605
    107  C        120.1710  121.1260   29.1550 C.2   286  MET286      0.2287
    108  O        119.7220  120.6660   30.2190 O.2   286  MET286     -0.2864
    109  CB       120.2300  119.0250   27.7930 C.3   286  MET286      0.0413
    110  CG       119.1420  119.3640   26.7730 C.3   286  MET286      0.0598
    111  SD       117.6860  118.3160   26.8730 S.3   286  MET286     -0.1393
    112  CE       117.9640  117.2520   25.5400 C.3   286  MET286      0.0692
    113  N        117.7100  120.2410   32.1460 N.3   289  GLU289     -0.1245
    114  CA       118.1740  119.4560   33.2830 C.3   289  GLU289      0.1567
    115  C        118.3160  120.3450   34.5080 C.2   289  GLU289      0.2260
    116  O        117.8880  119.9890   35.6060 O.2   289  GLU289     -0.2867
    117  CB       119.5190  118.8120   32.9760 C.3   289  GLU289      0.0388
    118  CG       119.4880  117.8190   31.8590 C.3   289  GLU289      0.1160
    119  CD       120.8400  117.2030   31.6340 C.2   289  GLU289      0.3649
    120  OE1      121.1700  116.2340   32.3370 O.co2 289  GLU289     -0.2457
    121  OE2      121.5820  117.6940   30.7610 O.co2 289  GLU289     -0.2457
    122  N        114.4220  120.5320   35.8580 N.3   293  ARG293     -0.1231
    123  CA       114.5660  119.5090   36.8830 C.3   293  ARG293      0.1694
    124  C        115.2320  120.0130   38.1490 C.2   293  ARG293      0.2592
    125  O        114.5820  120.1370   39.1800 O.2   293  ARG293     -0.2718
    126  CB       115.3150  118.3010   36.3200 C.3   293  ARG293      0.0321
    127  CG       114.7160  117.7620   35.0310 C.3   293  ARG293      0.0489
    128  CD       113.2770  117.3100   35.2220 C.3   293  ARG293      0.2205
    129  NE       113.1760  115.8750   35.4870 N.pl3 293  ARG293     -0.0865
    130  CZ       113.1970  115.3350   36.6990 C.cat 293  ARG293      0.5346
    131  NH1      113.3210  116.1120   37.7580 N.pl3 293  ARG293      0.1354
    132  NH2      113.0780  114.0240   36.8540 N.pl3 293  ARG293      0.1354
    133  N        116.5070  120.3670   38.0390 N.am  294  ASP294     -0.1974
    134  CA       117.3040  120.8430   39.1650 C.3   294  ASP294      0.1709
    135  C        116.7700  122.0340   39.9450 C.2   294  ASP294      0.2293
    136  O        116.7580  122.0190   41.1850 O.2   294  ASP294     -0.2864
    137  CB       118.7130  121.1660   38.6940 C.3   294  ASP294      0.1436
    138  CG       119.4410  119.9570   38.1740 C.2   294  ASP294      0.3671
    139  OD1      119.0950  118.8280   38.5670 O.co2 294  ASP294     -0.2456
    140  OD2      120.3660  120.1380   37.3660 O.co2 294  ASP294     -0.2456
    141  N        114.0320  119.2290   44.6370 N.3   300  ARG300     -0.1245
    142  CA       115.3350  119.8370   44.3930 C.3   300  ARG300      0.1563
    143  C        115.3410  121.2610   44.9650 C.2   300  ARG300      0.2260
    144  O        114.7880  121.5050   46.0480 O.2   300  ARG300     -0.2867
    145  CB       115.6610  119.8330   42.8910 C.3   300  ARG300      0.0307
    146  CG       115.6130  118.4520   42.2420 C.3   300  ARG300      0.0489
    147  CD       116.6250  117.4820   42.8390 C.3   300  ARG300      0.2205
    148  NE       117.9980  117.8640   42.5270 N.pl3 300  ARG300     -0.0865
    149  CZ       118.5520  117.7540   41.3230 C.cat 300  ARG300      0.5346
    150  NH1      117.8510  117.2650   40.3120 N.pl3 300  ARG300      0.1354
    151  NH2      119.8020  118.1510   41.1220 N.pl3 300  ARG300      0.1354
@<TRIPOS>BOND
     1    92    90   ar
     2    92    91   ar
     3    90    88   ar
     4    91    89   ar
     5    88    87   ar
     6    88    86   ar
     7    87    85   ar
     8     4     3    2
     9    89    86   ar
    10    86    84   ar
    11     3     2    1
    12   112   111    1
    13    85    84   ar
    14     6     5    1
    15    84    83    1
    16     2     5    1
    17     2     1    1
    18   110   111    1
    19   110   109    1
    20    83    80    1
    21   109   106    1
    22    96    95    2
    23    82    81    2
    24   106   105    1
    25   106   107    1
    26    79    80    1
    27    79    77   am
    28    76    77    1
    29    76    75    1
    30    80    81    1
    31    77    78    2
    32    81    93   am
    33    95   105   am
    34    95    94    1
    35    70    69    2
    36   107   108    2
    37    93    94    1
    38    75    69   am
    39    69    68    1
    40    94    97    1
    41    74    72   am
    42    73    72    2
    43   121   119   ar
    44    72    71    1
    45    97    98    1
    46    60    61    1
    47    60    57    1
    48    68    67    1
    49    68    71    1
    50    67    58   am
    51    62    61   ar
    52    62    64   ar
    53   119   118    1
    54   119   120   ar
    55    61    63   ar
    56    64    66   ar
    57   118   117    1
    58    47    48    1
    59    47    46    1
    60   113   114    1
    61    57    58    1
    62    57    56    1
    63    63    65   ar
    64    58    59    2
    65    98    99   ar
    66    98   100   ar
    67    66    65   ar
    68    48    42    1
    69    45    44    2
    70    99   101   ar
    71   117   114    1
    72    46    43    1
    73   100   102   ar
    74   114   115    1
    75    42    43    1
    76    44    43    1
    77   101   103   ar
    78    55    53    1
    79   115   116    2
    80   102   103   ar
    81   127   128    1
    82   127   126    1
    83   103   104    1
    84    53    54    1
    85    53    50    1
    86   128   129    1
    87    49    50    1
    88   129   130    2
    89    52    51    2
    90   122   123    1
    91    50    51    1
    92    33    32    2
    93   126   123    1
    94    32    31    1
    95   130   132    1
    96   130   131    1
    97   123   124    1
    98   140   138   ar
    99    22    24   ar
   100    22    21   ar
   101    19    18    2
   102    24    25   ar
   103    14    13    2
   104   133   124   am
   105   133   134    1
   106    31    30    1
   107    31    34    1
   108    20    21    1
   109    20    17    1
   110   124   125    2
   111   138   139   ar
   112   138   137    1
   113    37    39   ar
   114    37    35   ar
   115    21    23   ar
   116    18    30   am
   117    18    17    1
   118    39    40   ar
   119   137   134    1
   120    34    35    1
   121    13    15   am
   122    13    12    1
   123    11    12    1
   124    11     8    1
   125    17    16    1
   126    35    36   ar
   127    25    23   ar
   128    25    27   ar
   129   134   135    1
   130    23    26   ar
   131    40    41    1
   132    40    38   ar
   133     8     9    1
   134     8     7    1
   135   135   136    2
   136    27    29   ar
   137    36    38   ar
   138   150   149    1
   139     9    10    2
   140    26    28   ar
   141   151   149    1
   142    29    28   ar
   143   149   148    2
   144   146   147    1
   145   146   145    1
   146   148   147    1
   147   145   142    1
   148   142   141    1
   149   142   143    1
   150   143   144    2
