@<TRIPOS>MOLECULE
tmp/3nojA01.pdb
 83 80 0 0 0
SMALL
GASTEIGER

@<TRIPOS>ATOM
      1  N          8.9260   -2.2820   62.1310 N.3    46  LYS46      -0.1245
      2  CA         8.2020   -1.0080   62.0070 C.3    46  LYS46       0.1561
      3  C          8.8290   -0.0120   61.0050 C.2    46  LYS46       0.2260
      4  O          8.2050    0.9920   60.6500 O.2    46  LYS46      -0.2867
      5  CB         8.0540   -0.3670   63.3890 C.3    46  LYS46       0.0271
      6  CG         7.3090   -1.2690   64.3620 C.3    46  LYS46       0.0035
      7  CD         7.1160   -0.6500   65.7240 C.3    46  LYS46       0.0206
      8  CE         6.3230   -1.5800   66.6230 C.3    46  LYS46       0.1093
      9  NZ         5.9130   -0.9310   67.8960 N.3    46  LYS46      -0.1314
     10  N          9.3450    0.7260   57.5430 N.3    48  ARG48      -0.1231
     11  CA         8.6240    0.2630   56.3490 C.3    48  ARG48       0.1679
     12  C          8.9070    1.1140   55.1290 C.2    48  ARG48       0.2434
     13  O          9.0680    2.3260   55.2570 O.2    48  ARG48      -0.2733
     14  CB         7.1250    0.2970   56.6090 C.3    48  ARG48       0.0321
     15  CG         6.7060   -0.3950   57.8820 C.3    48  ARG48       0.0489
     16  CD         6.1280   -1.7220   57.6540 C.3    48  ARG48       0.2205
     17  NE         7.0500   -2.6330   56.9870 N.pl3  48  ARG48      -0.0865
     18  CZ         6.8570   -3.1740   55.7850 C.cat  48  ARG48       0.5346
     19  NH1        7.7680   -4.0170   55.3020 N.pl3  48  ARG48       0.1354
     20  NH2        5.7770   -2.8820   55.0570 N.pl3  48  ARG48       0.1354
     21  N          8.9010    0.4890   53.9350 N.am   49  PRO49      -0.2718
     22  CA         9.0830    1.2400   52.7050 C.3    49  PRO49       0.1535
     23  C          7.8590    2.0790   52.3530 C.2    49  PRO49       0.2598
     24  O          6.7160    1.6570   52.5980 O.2    49  PRO49      -0.2715
     25  CB         9.2960    0.1430   51.6590 C.3    49  PRO49       0.0310
     26  CG         8.5340   -0.9970   52.1730 C.3    49  PRO49       0.0237
     27  CD         8.7050   -0.9480   53.6650 C.3    49  PRO49       0.0939
     28  N          8.0970    3.2530   51.7750 N.am   50  ILE50      -0.1978
     29  CA         7.0060    4.0710   51.2660 C.3    50  ILE50       0.1596
     30  C          6.6580    3.7320   49.8110 C.2    50  ILE50       0.2287
     31  O          5.7500    4.3250   49.2410 O.2    50  ILE50      -0.2864
     32  CB         7.2870    5.5800   51.4160 C.3    50  ILE50       0.0276
     33  CG1        8.3600    6.0570   50.4330 C.3    50  ILE50       0.0022
     34  CG2        7.6740    5.8980   52.8700 C.3    50  ILE50       0.0022
     35  CD1        8.4750    7.5870   50.3580 C.3    50  ILE50       0.0001
     36  N          7.8900    9.2110   45.6780 N.3   128  ARG128     -0.1245
     37  CA         7.6100    8.1110   44.7450 C.3   128  ARG128      0.1563
     38  C          7.7330    8.5490   43.2770 C.2   128  ARG128      0.2260
     39  O          8.2970    7.8230   42.4490 O.2   128  ARG128     -0.2867
     40  CB         6.2230    7.5180   45.0080 C.3   128  ARG128      0.0307
     41  CG         6.1660    6.6300   46.2380 C.3   128  ARG128      0.0489
     42  CD         4.8550    5.8690   46.2990 C.3   128  ARG128      0.2205
     43  NE         3.7570    6.7580   46.6490 N.pl3 128  ARG128     -0.0865
     44  CZ         3.4200    7.1010   47.8920 C.cat 128  ARG128      0.5346
     45  NH1        2.4020    7.9340   48.0980 N.pl3 128  ARG128      0.1354
     46  NH2        4.0850    6.6100   48.9370 N.pl3 128  ARG128      0.1354
     47  N         10.8360    4.2480   56.4610 N.3   136  ALA136     -0.1231
     48  CA        10.5320    5.1550   57.5660 C.3   136  ALA136      0.1694
     49  C          9.6250    4.5080   58.6090 C.2   136  ALA136      0.2592
     50  O          8.9170    3.5250   58.3290 O.2   136  ALA136     -0.2718
     51  CB         9.8710    6.4210   57.0340 C.3   136  ALA136      0.0304
     52  N          9.6410    5.0770   59.8090 N.am  137  ARG137     -0.1966
     53  CA         8.7640    4.6370   60.8900 C.3   137  ARG137      0.1729
     54  C          7.3480    5.2130   60.7630 C.2   137  ARG137      0.2616
     55  O          6.3960    4.6770   61.3420 O.2   137  ARG137     -0.2715
     56  CB         9.3560    5.0250   62.2580 C.3   137  ARG137      0.0348
     57  CG         8.5600    4.4990   63.4400 C.3   137  ARG137      0.0492
     58  CD         9.2430    4.6840   64.8120 C.3   137  ARG137      0.2205
     59  NE        10.4520    3.8740   64.9690 N.pl3 137  ARG137     -0.0865
     60  CZ        10.4770    2.5670   65.2530 C.cat 137  ARG137      0.5346
     61  NH1       11.6410    1.9340   65.3560 N.pl3 137  ARG137      0.1354
     62  NH2        9.3560    1.8800   65.4460 N.pl3 137  ARG137      0.1354
     63  N          7.2080    6.3070   60.0220 N.am  138  ALA138     -0.1963
     64  CA         5.9310    7.0060   59.9630 C.3   138  ALA138      0.1728
     65  C          5.8760    7.8970   58.7500 C.2   138  ALA138      0.2616
     66  O          6.9090    8.3170   58.2450 O.2   138  ALA138     -0.2715
     67  CB         5.7360    7.8420   61.2240 C.3   138  ALA138      0.0334
     68  N          4.6560    8.1650   58.2890 N.am  139  ILE139     -0.1963
     69  CA         4.3990    9.2130   57.3210 C.3   139  ILE139      0.1727
     70  C          3.6950   10.3220   58.0970 C.2   139  ILE139      0.2616
     71  O          2.6480   10.0950   58.7150 O.2   139  ILE139     -0.2715
     72  CB         3.5440    8.7020   56.1510 C.3   139  ILE139      0.0290
     73  CG1        4.3480    7.6730   55.3400 C.3   139  ILE139      0.0022
     74  CG2        3.1230    9.8740   55.2640 C.3   139  ILE139      0.0023
     75  CD1        3.5510    6.9460   54.2850 C.3   139  ILE139      0.0001
     76  N          4.2980   11.5020   58.1140 N.am  140  ASN140     -0.1972
     77  CA         3.8090   12.5810   58.9720 C.3   140  ASN140      0.1688
     78  C          4.2180   13.9180   58.3970 C.2   140  ASN140      0.2292
     79  O          5.4070   14.1800   58.2310 O.2   140  ASN140     -0.2864
     80  CB         4.3780   12.4190   60.3840 C.3   140  ASN140      0.1181
     81  CG         3.7290   13.3480   61.4050 C.2   140  ASN140      0.2629
     82  OD1        2.9740   14.2590   61.0600 O.2   140  ASN140     -0.2716
     83  ND2        4.0140   13.1000   62.6810 N.am  140  ASN140     -0.0877
@<TRIPOS>BOND
     1    39    38    2
     2    38    37    1
     3    37    40    1
     4    37    36    1
     5    40    41    1
     6    41    42    1
     7    42    43    1
     8    43    44    2
     9    44    45    1
    10    44    46    1
    11    31    30    2
    12    30    29    1
    13    35    33    1
    14    33    32    1
    15    29    32    1
    16    29    28    1
    17    32    34    1
    18    25    26    1
    19    25    22    1
    20    28    23   am
    21    26    27    1
    22    23    24    2
    23    23    22    1
    24    22    21    1
    25    27    21    1
    26    21    12   am
    27    75    73    1
    28    20    18    1
    29    12    13    2
    30    12    11    1
    31    74    72    1
    32    19    18    1
    33    73    72    1
    34    18    17    2
    35    72    69    1
    36    11    14    1
    37    11    10    1
    38    47    48    1
    39    14    15    1
    40    17    16    1
    41    51    48    1
    42    69    70    1
    43    69    68    1
    44    48    49    1
    45    16    15    1
    46    70    76   am
    47    70    71    2
    48    76    77    1
    49    79    78    2
    50    66    65    2
    51    68    65   am
    52    50    49    2
    53    78    77    1
    54    49    52   am
    55    65    64    1
    56    77    80    1
    57    52    53    1
    58    64    63    1
    59    64    67    1
    60    63    54   am
    61    80    81    1
    62     4     3    2
    63    54    53    1
    64    54    55    2
    65    53    56    1
    66     3     2    1
    67    82    81    2
    68    81    83   am
    69     2     1    1
    70     2     5    1
    71    56    57    1
    72     5     6    1
    73    57    58    1
    74     6     7    1
    75    58    59    1
    76    59    60    2
    77    60    61    1
    78    60    62    1
    79     7     8    1
    80     8     9    1
