@<TRIPOS>MOLECULE
tmp/3nokA00.pdb
 105 103 0 0 0
SMALL
GASTEIGER

@<TRIPOS>ATOM
      1  N         -9.9820    4.9650   16.1300 N.3    27  VAL27      -0.1231
      2  CA       -11.2470    5.3260   15.4680 C.3    27  VAL27       0.1692
      3  C        -12.1990    4.1490   15.7100 C.2    27  VAL27       0.2592
      4  O        -11.7340    3.0140   15.8550 O.2    27  VAL27      -0.2718
      5  CB       -11.0330    5.5890   13.9410 C.3    27  VAL27       0.0266
      6  CG1      -10.8120    4.2150   13.2150 C.3    27  VAL27       0.0020
      7  CG2      -12.2230    6.4240   13.2360 C.3    27  VAL27       0.0020
      8  N        -13.4910    4.4360   15.6660 N.am   28  PHE28      -0.1976
      9  CA       -14.5120    3.3790   15.7020 C.3    28  PHE28       0.1639
     10  C        -14.8170    3.0200   14.2650 C.2    28  PHE28       0.2290
     11  O        -14.7740    3.8500   13.3890 O.2    28  PHE28      -0.2864
     12  CB       -15.7610    3.8290   16.4510 C.3    28  PHE28       0.0560
     13  CG       -15.5980    3.7920   17.9570 C.ar   28  PHE28      -0.0200
     14  CD1      -15.9260    2.6330   18.6970 C.ar   28  PHE28      -0.0042
     15  CD2      -15.0510    4.8830   18.6160 C.ar   28  PHE28      -0.0042
     16  CE1      -15.7210    2.6160   20.0590 C.ar   28  PHE28      -0.0003
     17  CE2      -14.8690    4.9070   19.9940 C.ar   28  PHE28      -0.0003
     18  CZ       -15.1590    3.7520   20.7450 C.ar   28  PHE28      -0.0000
     19  N         -5.4170    6.9920   11.4620 N.3    67  LEU67      -0.1231
     20  CA        -6.3890    5.9360   10.9990 C.3    67  LEU67       0.1693
     21  C         -7.7320    6.5740   10.9280 C.2    67  LEU67       0.2592
     22  O         -8.1790    7.1340   11.9290 O.2    67  LEU67      -0.2718
     23  CB        -6.3870    4.8720   12.1170 C.3    67  LEU67       0.0284
     24  CG        -7.2390    3.5890   11.8530 C.3    67  LEU67       0.0019
     25  CD1       -6.7150    2.7910   10.6640 C.3    67  LEU67       0.0001
     26  CD2       -7.3490    2.7010   13.1150 C.3    67  LEU67       0.0001
     27  N         -8.3530    6.4800    9.7400 N.am   68  ALA68      -0.1966
     28  CA        -9.6650    7.0470    9.4810 C.3    68  ALA68       0.1728
     29  C        -10.6500    5.9710    9.0310 C.2    68  ALA68       0.2616
     30  O        -10.2510    4.9300    8.4370 O.2    68  ALA68      -0.2715
     31  CB        -9.5370    8.1410    8.4250 C.3    68  ALA68       0.0334
     32  N        -11.9130    6.2400    9.2410 N.am   69  SER69      -0.1950
     33  CA       -12.9840    5.2980    8.7640 C.3    69  SER69       0.1924
     34  C        -13.9790    6.1080    7.9670 C.2    69  SER69       0.2314
     35  O        -14.3890    7.2130    8.4320 O.2    69  SER69      -0.2863
     36  CB       -13.7290    4.6870    9.9610 C.3    69  SER69       0.2116
     37  OG       -14.8490    3.9500    9.4880 O.3    69  SER69      -0.2180
     38  N         -5.1660   11.3720   10.6540 N.3   107  LEU107     -0.1231
     39  CA        -6.0520   11.2050    9.5340 C.3   107  LEU107      0.1693
     40  C         -7.4990   11.0810    9.9760 C.2   107  LEU107      0.2592
     41  O         -7.8110   10.4030   10.9460 O.2   107  LEU107     -0.2718
     42  CB        -5.6800    9.9430    8.7270 C.3   107  LEU107      0.0284
     43  CG        -6.2960    9.8120    7.3300 C.3   107  LEU107      0.0019
     44  CD1       -5.6860   10.8290    6.3740 C.3   107  LEU107      0.0001
     45  CD2       -6.0700    8.3430    6.7720 C.3   107  LEU107      0.0001
     46  N         -8.3990   11.7580    9.2800 N.am  108  CYS108     -0.1956
     47  CA        -9.8270   11.5230    9.5320 C.3   108  CYS108      0.1843
     48  C        -10.6090   11.7330    8.2190 C.2   108  CYS108      0.2625
     49  O        -10.0230   12.0570    7.1900 O.2   108  CYS108     -0.2714
     50  CB       -10.3500   12.3540   10.7430 C.3   108  CYS108      0.0997
     51  SG       -10.3950   14.1370   10.4220 S.3   108  CYS108     -0.0797
     52  N        -11.9040   11.3950    8.2220 N.am  109  TYR109     -0.1974
     53  CA       -12.7300   11.4690    7.0180 C.3   109  TYR109      0.1639
     54  C        -13.8360   12.4970    7.1590 C.2   109  TYR109      0.2290
     55  O        -14.6510   12.3760    8.0920 O.2   109  TYR109     -0.2864
     56  CB       -13.3160   10.0490    6.7660 C.3   109  TYR109      0.0560
     57  CG       -14.1490    9.9160    5.5340 C.ar  109  TYR109     -0.0198
     58  CD1      -13.5390    9.7560    4.2890 C.ar  109  TYR109     -0.0009
     59  CD2      -15.5190    9.9260    5.6240 C.ar  109  TYR109     -0.0009
     60  CE1      -14.3340    9.6270    3.1320 C.ar  109  TYR109      0.0417
     61  CE2      -16.3470    9.8180    4.4530 C.ar  109  TYR109      0.0417
     62  CZ       -15.7140    9.6620    3.2290 C.ar  109  TYR109      0.1957
     63  OH       -16.4330    9.4830    2.0350 O.3   109  TYR109     -0.2866
     64  N         -6.2640   12.7850   14.5770 N.3   152  LEU152     -0.1231
     65  CA        -7.4700   13.5220   14.2350 C.3   152  LEU152      0.1693
     66  C         -8.7060   12.7360   14.5380 C.2   152  LEU152      0.2592
     67  O         -8.6600   11.5230   14.6810 O.2   152  LEU152     -0.2718
     68  CB        -7.4730   13.9240   12.7440 C.3   152  LEU152      0.0284
     69  CG        -6.2500   14.6960   12.2540 C.3   152  LEU152      0.0019
     70  CD1       -6.4100   15.0250   10.7760 C.3   152  LEU152      0.0001
     71  CD2       -6.0990   16.0340   13.1190 C.3   152  LEU152      0.0001
     72  N         -9.8200   13.4390   14.6170 N.am  153  GLU153     -0.1966
     73  CA       -11.1350   12.7740   14.7450 C.3   153  GLU153      0.1733
     74  C        -12.1960   13.6700   14.1420 C.2   153  GLU153      0.2616
     75  O        -12.3460   14.8410   14.5780 O.2   153  GLU153     -0.2715
     76  CB       -11.4370   12.4380   16.2360 C.3   153  GLU153      0.0429
     77  CG       -12.7910   11.6580   16.3520 C.3   153  GLU153      0.1163
     78  CD       -12.6680   10.1610   15.8780 C.2   153  GLU153      0.3649
     79  OE1      -11.5110    9.7020   15.5250 O.co2 153  GLU153     -0.2457
     80  OE2      -13.7810    9.5280   15.9040 O.co2 153  GLU153     -0.2457
     81  N        -12.9070   13.1770   13.1360 N.am  154  CYS154     -0.1954
     82  CA       -13.9430   14.0230   12.4890 C.3   154  CYS154      0.1843
     83  C        -15.3240   13.6890   13.1250 C.2   154  CYS154      0.2625
     84  O        -15.8610   12.5910   12.9410 O.2   154  CYS154     -0.2714
     85  CB       -13.8730   13.7870   10.9920 C.3   154  CYS154      0.0997
     86  SG       -12.3820   14.3570    9.7930 S.3   154  CYS154     -0.0797
     87  N        -15.8600   14.5850   13.9570 N.am  155  ALA155     -0.1977
     88  CA       -17.1350   14.3200   14.6000 C.3   155  ALA155      0.1597
     89  C        -17.7260   15.6690   15.0360 C.2   155  ALA155      0.2287
     90  O        -17.0030   16.6530   15.2580 O.2   155  ALA155     -0.2864
     91  CB       -16.8940   13.4610   15.8860 C.3   155  ALA155      0.0319
     92  N        -14.5890    9.0650   18.5770 N.3   208  VAL208     -0.1245
     93  CA       -16.0410    9.2390   18.9790 C.3   208  VAL208      0.1561
     94  C        -16.8510    8.0900   18.3930 C.2   208  VAL208      0.2260
     95  O        -16.8160    7.7670   17.1980 O.2   208  VAL208     -0.2867
     96  CB       -16.5610   10.6540   18.4680 C.3   208  VAL208      0.0252
     97  CG1      -18.0930   10.8060   18.8160 C.3   208  VAL208      0.0019
     98  CG2      -15.7050   11.7800   19.0060 C.3   208  VAL208      0.0019
     99  N        -19.9080    6.2530   16.8840 N.3   210  PRO210     -0.2116
    100  CA       -20.9650    6.8570   16.0930 C.3   210  PRO210      0.1372
    101  C        -22.3650    6.6080   16.6960 C.2   210  PRO210      0.2244
    102  O        -23.2180    7.5060   16.6170 O.2   210  PRO210     -0.2868
    103  CB       -20.8500    6.1790   14.6910 C.3   210  PRO210      0.0268
    104  CG       -19.8280    5.0720   14.8360 C.3   210  PRO210      0.0207
    105  CD       -18.9510    5.4450   16.0740 C.3   210  PRO210      0.0892
@<TRIPOS>BOND
     1    63    62    1
     2    60    62   ar
     3    60    58   ar
     4    62    61   ar
     5    58    57   ar
     6    61    59   ar
     7    57    59   ar
     8    57    56    1
     9    44    43    1
    10    56    53    1
    11    45    43    1
    12    53    54    1
    13    53    52    1
    14    54    55    2
    15    49    48    2
    16    43    42    1
    17    34    35    2
    18    34    33    1
    19    48    52   am
    20    48    47    1
    21    31    28    1
    22    30    29    2
    23    42    39    1
    24    33    32    1
    25    33    36    1
    26    29    32   am
    27    29    28    1
    28    46    47    1
    29    46    40   am
    30    28    27    1
    31    37    36    1
    32    47    50    1
    33    39    40    1
    34    39    38    1
    35    27    21   am
    36    86    51    1
    37    86    85    1
    38    40    41    2
    39    51    50    1
    40    25    24    1
    41    70    69    1
    42    21    20    1
    43    21    22    2
    44    85    82    1
    45    20    19    1
    46    20    23    1
    47    24    23    1
    48    24    26    1
    49    69    68    1
    50    69    71    1
    51    82    83    1
    52    82    81    1
    53    68    65    1
    54    84    83    2
    55    83    87   am
    56    81    74   am
    57     6     5    1
    58     7     5    1
    59    11    10    2
    60     5     2    1
    61    87    88    1
    62    74    75    2
    63    74    73    1
    64    65    66    1
    65    65    64    1
    66    10     9    1
    67    66    72   am
    68    66    67    2
    69    88    89    1
    70    88    91    1
    71    72    73    1
    72   103   104    1
    73   103   100    1
    74    73    76    1
    75   104   105    1
    76    89    90    2
    77     2     3    1
    78     2     1    1
    79    79    78   ar
    80     8     9    1
    81     8     3   am
    82     9    12    1
    83     3     4    2
    84    78    80   ar
    85    78    77    1
    86   105    99    1
    87   100   101    1
    88   100    99    1
    89    76    77    1
    90    12    13    1
    91   102   101    2
    92    95    94    2
    93    13    15   ar
    94    13    14   ar
    95    94    93    1
    96    96    97    1
    97    96    93    1
    98    96    98    1
    99    92    93    1
   100    15    17   ar
   101    14    16   ar
   102    17    18   ar
   103    16    18   ar
