@<TRIPOS>MOLECULE
tmp/3nokA01.pdb
 133 132 0 0 0
SMALL
GASTEIGER

@<TRIPOS>ATOM
      1  N          2.0960    2.1700   21.0700 N.3    22  PHE22      -0.1241
      2  CA         2.3400    3.6080   20.7020 C.3    22  PHE22       0.1605
      3  C          1.1870    4.0750   19.8160 C.2    22  PHE22       0.2264
      4  O          1.2830    3.9830   18.5480 O.2    22  PHE22      -0.2867
      5  CB         3.6360    3.7990   19.9020 C.3    22  PHE22       0.0534
      6  CG         4.9110    3.8070   20.7110 C.ar   22  PHE22      -0.0203
      7  CD1        5.3810    4.9460   21.4010 C.ar   22  PHE22      -0.0042
      8  CD2        5.6760    2.6140   20.7420 C.ar   22  PHE22      -0.0042
      9  CE1        6.5950    4.8860   22.1280 C.ar   22  PHE22      -0.0003
     10  CE2        6.8450    2.5310   21.4270 C.ar   22  PHE22      -0.0003
     11  CZ         7.3370    3.6610   22.1490 C.ar   22  PHE22      -0.0000
     12  N         -1.0680    5.8120   17.4760 N.3    24  GLN24      -0.1245
     13  CA        -0.9290    6.8590   16.4320 C.3    24  GLN24       0.1566
     14  C         -2.2420    7.1100   15.6950 C.2    24  GLN24       0.2260
     15  O         -2.3830    8.0910   14.9490 O.2    24  GLN24      -0.2867
     16  CB         0.1310    6.4190   15.4180 C.3    24  GLN24       0.0367
     17  CG         1.4890    6.1310   16.0120 C.3    24  GLN24       0.0905
     18  CD         2.2020    7.3670   16.5640 C.2    24  GLN24       0.2608
     19  OE1        1.7520    8.5130   16.3950 O.2    24  GLN24      -0.2717
     20  NE2        3.3080    7.1290   17.2410 N.am   24  GLN24      -0.0878
     21  N          6.2030    1.3870   15.7390 N.3    39  HIS39      -0.1241
     22  CA         7.1960    0.8730   16.7100 C.3    39  HIS39       0.1621
     23  C          6.6870   -0.1810   17.7510 C.2    39  HIS39       0.2264
     24  O          6.8220    0.0290   18.9880 O.2    39  HIS39      -0.2867
     25  CB         7.7810    2.0680   17.4770 C.3    39  HIS39       0.0745
     26  CG         9.1610    1.8140   17.9910 C.ar   39  HIS39       0.0817
     27  ND1       10.1750    1.4020   17.1590 N.ar   39  HIS39      -0.2268
     28  CD2        9.7120    1.9550   19.2190 C.ar   39  HIS39       0.1154
     29  CE1       11.3000    1.2970   17.8550 C.ar   39  HIS39       0.1986
     30  NE2       11.0530    1.6340   19.1060 N.ar   39  HIS39      -0.2212
     31  N          6.1010    2.0650   10.2040 N.3    63  PHE63      -0.1241
     32  CA         5.7100    2.9620   11.2840 C.3    63  PHE63       0.1605
     33  C          4.3090    3.5030   10.9600 C.2    63  PHE63       0.2264
     34  O          4.1450    4.6300   10.4400 O.2    63  PHE63      -0.2867
     35  CB         6.7190    4.1090   11.3950 C.3    63  PHE63       0.0534
     36  CG         6.8350    4.6400   12.7610 C.ar   63  PHE63      -0.0203
     37  CD1        5.8130    5.4500   13.3460 C.ar   63  PHE63      -0.0042
     38  CD2        7.9680    4.3370   13.4970 C.ar   63  PHE63      -0.0042
     39  CE1        5.9630    5.9430   14.6420 C.ar   63  PHE63      -0.0003
     40  CE2        8.1140    4.7850   14.7770 C.ar   63  PHE63      -0.0003
     41  CZ         7.1430    5.5810   15.3660 C.ar   63  PHE63      -0.0000
     42  N          0.5440    5.1220   11.3690 N.3    65  GLU65      -0.1245
     43  CA         0.2320    6.4400   11.9700 C.3    65  GLU65       0.1567
     44  C         -1.2450    6.5780   11.9510 C.2    65  GLU65       0.2260
     45  O         -1.9700    5.6340   12.4050 O.2    65  GLU65      -0.2867
     46  CB         0.9570    7.5530   11.2010 C.3    65  GLU65       0.0388
     47  CG         2.4380    7.5520   11.5780 C.3    65  GLU65       0.1160
     48  CD         2.7100    8.1800   12.9860 C.2    65  GLU65       0.3649
     49  OE1        1.8160    8.7230   13.6370 O.co2  65  GLU65      -0.2457
     50  OE2        3.8680    8.1750   13.4090 O.co2  65  GLU65      -0.2457
     51  N          4.3660    6.9950    8.8350 N.3    79  TRP79      -0.1241
     52  CA         5.1290    8.1860    9.2430 C.3    79  TRP79       0.1605
     53  C          5.9700    8.7220    8.0990 C.2    79  TRP79       0.2264
     54  O          5.6520    9.8080    7.5990 O.2    79  TRP79      -0.2867
     55  CB         5.9280    7.9200   10.5170 C.3    79  TRP79       0.0550
     56  CG         6.7640    9.1080   10.9230 C.ar   79  TRP79       0.0003
     57  CD1        6.5470   10.4240   10.5730 C.ar   79  TRP79       0.0946
     58  CD2        7.9020    9.1080   11.8080 C.ar   79  TRP79       0.0152
     59  NE1        7.5290   11.2280   11.1470 N.ar   79  TRP79      -0.2442
     60  CE2        8.3510   10.4500   11.9150 C.ar   79  TRP79       0.0810
     61  CE3        8.5830    8.1050   12.5090 C.ar   79  TRP79       0.0012
     62  CZ2        9.5010   10.8010   12.6610 C.ar   79  TRP79       0.0191
     63  CZ3        9.7180    8.4400   13.2500 C.ar   79  TRP79       0.0001
     64  CH2       10.1470    9.7830   13.3400 C.ar   79  TRP79       0.0015
     65  N          0.8010   11.9790    9.8980 N.3   105  TRP105     -0.1241
     66  CA         0.6310   11.9260   11.3780 C.3   105  TRP105      0.1605
     67  C         -0.8310   11.5140   11.6040 C.2   105  TRP105      0.2264
     68  O         -1.1030   10.3310   11.7290 O.2   105  TRP105     -0.2867
     69  CB         1.0010   13.3190   12.0640 C.3   105  TRP105      0.0550
     70  CG         2.4570   13.6080   12.0870 C.ar  105  TRP105      0.0003
     71  CD1        3.3830   13.2720   11.1380 C.ar  105  TRP105      0.0946
     72  CD2        3.1610   14.3160   13.1220 C.ar  105  TRP105      0.0152
     73  NE1        4.6470   13.7510   11.5170 N.ar  105  TRP105     -0.2442
     74  CE2        4.5320   14.3690   12.7340 C.ar  105  TRP105      0.0810
     75  CE3        2.7780   14.8860   14.3520 C.ar  105  TRP105      0.0012
     76  CZ2        5.4850   14.9730   13.5080 C.ar  105  TRP105      0.0191
     77  CZ3        3.7720   15.5380   15.1400 C.ar  105  TRP105      0.0001
     78  CH2        5.0950   15.5500   14.7120 C.ar  105  TRP105      0.0015
     79  N         -1.5470   16.4640   15.3340 N.3   150  ASN150     -0.1240
     80  CA        -1.2760   15.0210   15.3530 C.3   150  ASN150      0.1653
     81  C         -2.6030   14.2070   15.1480 C.2   150  ASN150      0.2266
     82  O         -3.2840   14.4490   14.1850 O.2   150  ASN150     -0.2867
     83  CB        -0.4970   14.6530   16.6060 C.3   150  ASN150      0.1155
     84  CG         0.3040   13.3700   16.4120 C.2   150  ASN150      0.2627
     85  OD1        0.1470   12.7240   15.3860 O.2   150  ASN150     -0.2716
     86  ND2        1.0760   12.9790   17.3950 N.am  150  ASN150     -0.0877
     87  N          0.9590   17.3900   19.4940 N.3   164  TRP164     -0.1241
     88  CA         1.9830   16.4720   20.0160 C.3   164  TRP164      0.1605
     89  C          2.7690   17.1210   21.2030 C.2   164  TRP164      0.2264
     90  O          3.3760   18.2310   21.1070 O.2   164  TRP164     -0.2867
     91  CB         2.9150   16.1460   18.8540 C.3   164  TRP164      0.0550
     92  CG         3.9420   15.0770   19.1450 C.ar  164  TRP164      0.0003
     93  CD1        3.6960   13.8430   19.6740 C.ar  164  TRP164      0.0946
     94  CD2        5.3320   15.0810   18.7400 C.ar  164  TRP164      0.0152
     95  NE1        4.8630   13.0820   19.6840 N.ar  164  TRP164     -0.2442
     96  CE2        5.8780   13.8310   19.1180 C.ar  164  TRP164      0.0810
     97  CE3        6.1850   16.0440   18.1790 C.ar  164  TRP164      0.0012
     98  CZ2        7.2290   13.5230   18.9250 C.ar  164  TRP164      0.0191
     99  CZ3        7.5450   15.7150   17.9840 C.ar  164  TRP164      0.0001
    100  CH2        8.0300   14.4810   18.3550 C.ar  164  TRP164      0.0015
    101  N          8.2250    6.8330   29.7770 N.3   198  ASN198     -0.1226
    102  CA         8.8600    7.0560   28.5360 C.3   198  ASN198      0.1770
    103  C          8.5950    8.4720   28.0630 C.2   198  ASN198      0.2439
    104  O          7.4810    8.9540   28.2390 O.2   198  ASN198     -0.2733
    105  CB         8.2700    6.0830   27.4950 C.3   198  ASN198      0.1168
    106  CG         9.0170    6.0740   26.2280 C.2   198  ASN198      0.2627
    107  OD1        8.9950    7.0090   25.4750 O.2   198  ASN198     -0.2716
    108  ND2        9.6240    4.9250   25.9090 N.am  198  ASN198     -0.0877
    109  N          9.6120    9.1590   27.5190 N.am  199  PRO199     -0.2718
    110  CA         9.3510   10.5340   27.0110 C.3   199  PRO199      0.1535
    111  C          8.2660   10.6740   25.9740 C.2   199  PRO199      0.2598
    112  O          7.7560   11.8210   25.7800 O.2   199  PRO199     -0.2715
    113  CB        10.7050   10.9850   26.3990 C.3   199  PRO199      0.0310
    114  CG        11.6910   10.1540   27.1770 C.3   199  PRO199      0.0237
    115  CD        11.0410    8.8070   27.3730 C.3   199  PRO199      0.0939
    116  N          7.9570    9.5840   25.2550 N.am  200  GLU200     -0.1978
    117  CA         7.0300    9.6810   24.1230 C.3   200  GLU200      0.1602
    118  C          5.6250    9.2030   24.5800 C.2   200  GLU200      0.2287
    119  O          4.6800    9.1490   23.7670 O.2   200  GLU200     -0.2864
    120  CB         7.5760    8.8330   22.9320 C.3   200  GLU200      0.0415
    121  CG         6.8430    9.0230   21.5990 C.3   200  GLU200      0.1163
    122  CD         6.4580   10.4650   21.2490 C.2   200  GLU200      0.3649
    123  OE1        7.1110   11.4610   21.6740 O.co2 200  GLU200     -0.2457
    124  OE2        5.4990   10.5410   20.4920 O.co2 200  GLU200     -0.2457
    125  N          0.0500    7.4480   24.0490 N.3   220  LYS220     -0.1245
    126  CA         1.0130    6.4040   23.7050 C.3   220  LYS220      0.1561
    127  C          1.5200    5.6740   24.9800 C.2   220  LYS220      0.2260
    128  O          1.9210    6.3240   25.9420 O.2   220  LYS220     -0.2867
    129  CB         2.1780    7.0020   22.9510 C.3   220  LYS220      0.0271
    130  CG         1.7160    7.8770   21.7650 C.3   220  LYS220      0.0035
    131  CD         2.9580    8.1460   20.8990 C.3   220  LYS220      0.0206
    132  CE         2.6020    9.1000   19.7170 C.3   220  LYS220      0.1093
    133  NZ         3.7180    9.1730   18.6920 N.3   220  LYS220     -0.1314
@<TRIPOS>BOND
     1    54    53    2
     2    53    52    1
     3    51    52    1
     4    52    55    1
     5    65    66    1
     6    31    32    1
     7    34    33    2
     8    55    56    1
     9    57    56   ar
    10    57    59   ar
    11    56    58   ar
    12    33    32    1
    13    71    73   ar
    14    71    70   ar
    15    59    60   ar
    16    46    47    1
    17    46    43    1
    18    32    35    1
    19    42    43    1
    20    66    67    1
    21    66    69    1
    22    35    36    1
    23    73    74   ar
    24    47    48    1
    25    67    68    2
    26    58    60   ar
    27    58    61   ar
    28    60    62   ar
    29    44    43    1
    30    44    45    2
    31    69    70    1
    32    70    72   ar
    33    61    63   ar
    34    62    64   ar
    35    74    72   ar
    36    74    76   ar
    37    36    37   ar
    38    36    38   ar
    39    48    50   ar
    40    48    49   ar
    41    72    75   ar
    42    63    64   ar
    43    37    39   ar
    44    38    40   ar
    45    76    78   ar
    46    82    81    2
    47    75    77   ar
    48    39    41   ar
    49    78    77   ar
    50    40    41   ar
    51    15    14    2
    52    81    80    1
    53    79    80    1
    54    80    83    1
    55    85    84    2
    56    16    17    1
    57    16    13    1
    58    14    13    1
    59    21    22    1
    60    17    18    1
    61    19    18    2
    62    84    83    1
    63    84    86   am
    64    13    12    1
    65    18    20   am
    66    22    25    1
    67    22    23    1
    68    27    29   ar
    69    27    26   ar
    70    25    26    1
    71    23    24    2
    72    29    30   ar
    73    99    97   ar
    74    99   100   ar
    75    26    28   ar
    76    97    94   ar
    77   100    98   ar
    78     4     3    2
    79   133   132    1
    80    94    96   ar
    81    94    92   ar
    82    91    92    1
    83    91    88    1
    84    98    96   ar
    85    30    28   ar
    86    96    95   ar
    87    92    93   ar
    88    87    88    1
    89    93    95   ar
    90   132   131    1
    91     3     2    1
    92     5     2    1
    93     5     6    1
    94    88    89    1
    95   124   122   ar
    96     2     1    1
    97     6     8   ar
    98     6     7   ar
    99     8    10   ar
   100   131   130    1
   101    90    89    2
   102   122   121    1
   103   122   123   ar
   104     7     9   ar
   105    10    11   ar
   106   121   120    1
   107   130   129    1
   108     9    11   ar
   109   120   117    1
   110   129   126    1
   111   126   125    1
   112   126   127    1
   113   119   118    2
   114   117   118    1
   115   117   116    1
   116   127   128    2
   117   116   111   am
   118   107   106    2
   119   112   111    2
   120   108   106   am
   121   111   110    1
   122   106   105    1
   123   113   110    1
   124   113   114    1
   125   110   109    1
   126   114   115    1
   127   115   109    1
   128   105   102    1
   129   109   103   am
   130   103   104    2
   131   103   102    1
   132   102   101    1
