@<TRIPOS>MOLECULE
tmp/3noqA00.pdb
 128 122 0 0 0
SMALL
GASTEIGER

@<TRIPOS>ATOM
      1  N          5.4510   19.6530   26.2860 N.3    14  GLN14      -0.1245
      2  CA         6.3030   18.6830   25.6170 C.3    14  GLN14       0.1566
      3  C          6.0400   18.8760   24.1310 C.2    14  GLN14       0.2260
      4  O          4.9900   18.4760   23.6360 O.2    14  GLN14      -0.2867
      5  CB         5.9450   17.2710   26.0430 C.3    14  GLN14       0.0367
      6  CG         6.8620   16.2190   25.4570 C.3    14  GLN14       0.0905
      7  CD         8.2150   16.1910   26.1290 C.2    14  GLN14       0.2608
      8  OE1        8.2980   15.9580   27.3440 O.2    14  GLN14      -0.2717
      9  NE2        9.2700   16.4170   25.3730 N.am   14  GLN14      -0.0878
     10  N          4.4050   16.3470   21.5360 N.3    17  ASP17      -0.1239
     11  CA         3.0070   16.0080   21.7650 C.3    17  ASP17       0.1674
     12  C          2.0700   16.8640   20.8950 C.2    17  ASP17       0.2266
     13  O          0.9770   16.4170   20.5830 O.2    17  ASP17      -0.2867
     14  CB         2.5910   16.2890   23.2010 C.3    17  ASP17       0.1410
     15  CG         3.2150   15.4820   24.2910 C.2    17  ASP17       0.3668
     16  OD1        4.1520   14.7180   24.0270 O.co2  17  ASP17      -0.2456
     17  OD2        2.7680   15.6910   25.4550 O.co2  17  ASP17      -0.2456
     18  N          3.2930   17.5370   28.9830 N.3    71  GLY71      -0.1210
     19  CA         4.5450   18.2250   29.2880 C.3    71  GLY71       0.1956
     20  C          4.7010   18.4690   30.7700 C.2    71  GLY71       0.2612
     21  O          3.7440   18.3570   31.5470 O.2    71  GLY71      -0.2717
     22  N          5.9000   18.8920   31.1430 N.am   72  THR72      -0.1952
     23  CA         6.1330   19.3910   32.4960 C.3    72  THR72       0.1897
     24  C          5.0740   20.3890   32.9100 C.2    72  THR72       0.2313
     25  O          4.6250   20.3970   34.0660 O.2    72  THR72      -0.2863
     26  CB         7.5440   20.0370   32.5550 C.3    72  THR72       0.1794
     27  OG1        8.4710   18.9760   32.3660 O.3    72  THR72      -0.2208
     28  CG2        7.7770   20.7720   33.8450 C.3    72  THR72       0.0378
     29  N         -0.6070   12.1940   25.5670 N.3   101  SER101     -0.1202
     30  CA         0.3140   12.0440   26.7060 C.3   101  SER101      0.2020
     31  C         -0.3220   12.6250   27.9530 C.2   101  SER101      0.2619
     32  O         -1.5230   12.3710   28.2210 O.2   101  SER101     -0.2717
     33  CB         1.6660   12.6320   26.2860 C.3   101  SER101      0.2103
     34  OG         2.6930   12.1890   27.1470 O.3   101  SER101     -0.2182
     35  N          0.4050   13.3770   28.7620 N.am  102  THR102     -0.1952
     36  CA        -0.1610   13.9090   29.9970 C.3   102  THR102      0.1897
     37  C         -1.1480   15.0380   29.7940 C.2   102  THR102      0.2313
     38  O         -1.7160   15.5100   30.7830 O.2   102  THR102     -0.2863
     39  CB         0.9490   14.2590   31.0080 C.3   102  THR102      0.1794
     40  OG1        1.9250   15.0720   30.3420 O.3   102  THR102     -0.2208
     41  CG2        1.6120   13.0010   31.5550 C.3   102  THR102      0.0378
     42  N          0.4780    9.0970   29.3640 N.3   121  HIS121     -0.1226
     43  CA         1.8620    8.6350   29.4130 C.3   121  HIS121      0.1752
     44  C          2.0140    7.5290   30.4510 C.2   121  HIS121      0.2596
     45  O          1.5280    7.6620   31.5800 O.2   121  HIS121     -0.2718
     46  CB         2.7730    9.8090   29.7290 C.3   121  HIS121      0.0759
     47  CG         4.2330    9.4960   29.6040 C.ar  121  HIS121      0.0818
     48  ND1        4.9110    8.7240   30.5170 N.ar  121  HIS121     -0.2268
     49  CD2        5.0910    9.8790   28.6260 C.ar  121  HIS121      0.1154
     50  CE1        6.1570    8.6540   30.0570 C.ar  121  HIS121      0.1986
     51  NE2        6.3190    9.3400   28.9260 N.ar  121  HIS121     -0.2212
     52  N          2.7140    6.4570   30.0840 N.am  122  TRP122     -0.1962
     53  CA         2.8330    5.3100   30.9680 C.3   122  TRP122      0.1771
     54  C          3.3040    5.6470   32.3660 C.2   122  TRP122      0.2619
     55  O          2.8710    4.9880   33.3270 O.2   122  TRP122     -0.2715
     56  CB         3.7600    4.2310   30.3530 C.3   122  TRP122      0.0590
     57  CG         5.2100    4.6120   30.3010 C.ar  122  TRP122      0.0006
     58  CD1        5.8600    5.2310   29.2800 C.ar  122  TRP122      0.0946
     59  CD2        6.1840    4.4290   31.3380 C.ar  122  TRP122      0.0152
     60  NE1        7.1790    5.4400   29.6030 N.ar  122  TRP122     -0.2442
     61  CE2        7.4040    4.9570   30.8550 C.ar  122  TRP122      0.0810
     62  CE3        6.1530    3.8600   32.6220 C.ar  122  TRP122      0.0012
     63  CZ2        8.5670    4.9330   31.6360 C.ar  122  TRP122      0.0191
     64  CZ3        7.3170    3.8460   33.3770 C.ar  122  TRP122      0.0001
     65  CH2        8.4960    4.3720   32.8730 C.ar  122  TRP122      0.0015
     66  N          4.1980    6.6180   32.5130 N.am  123  ALA123     -0.1963
     67  CA         4.8120    6.8780   33.8100 C.3   123  ALA123      0.1728
     68  C          3.8640    7.5750   34.7710 C.2   123  ALA123      0.2616
     69  O          4.1580    7.6440   35.9660 O.2   123  ALA123     -0.2715
     70  CB         6.1010    7.6630   33.6460 C.3   123  ALA123      0.0334
     71  N          2.7440    8.0770   34.2610 N.am  124  TYR124     -0.1974
     72  CA         1.7750    8.8470   35.0270 C.3   124  TYR124      0.1639
     73  C          0.3850    8.2340   34.9850 C.2   124  TYR124      0.2290
     74  O         -0.5910    8.8590   35.4030 O.2   124  TYR124     -0.2864
     75  CB         1.7640   10.3080   34.5270 C.3   124  TYR124      0.0560
     76  CG         3.1590   10.8960   34.6320 C.ar  124  TYR124     -0.0198
     77  CD1        3.6370   11.3700   35.8470 C.ar  124  TYR124     -0.0009
     78  CD2        4.0130   10.9540   33.5410 C.ar  124  TYR124     -0.0009
     79  CE1        4.9090   11.9010   35.9720 C.ar  124  TYR124      0.0417
     80  CE2        5.2850   11.4750   33.6580 C.ar  124  TYR124      0.0417
     81  CZ         5.7360   11.9480   34.8690 C.ar  124  TYR124      0.1957
     82  OH         7.0090   12.4670   34.9530 O.3   124  TYR124     -0.2866
     83  N          3.9230   10.7800   24.6080 N.3   152  ILE152     -0.1245
     84  CA         4.5290   11.6170   23.5960 C.3   152  ILE152      0.1561
     85  C          4.3220   11.1570   22.1570 C.2   152  ILE152      0.2260
     86  O          3.4350   11.6920   21.4720 O.2   152  ILE152     -0.2867
     87  CB         6.0140   11.8970   23.8800 C.3   152  ILE152      0.0252
     88  CG1        6.1900   12.3750   25.3390 C.3   152  ILE152      0.0019
     89  CG2        6.5610   12.9050   22.8890 C.3   152  ILE152      0.0019
     90  CD1        7.6130   12.7530   25.7240 C.3   152  ILE152      0.0001
     91  N         14.1740    5.3880   33.8360 N.3   203  ALA203     -0.1245
     92  CA        13.0960    6.3090   33.4850 C.3   203  ALA203      0.1562
     93  C         12.2300    6.6320   34.7040 C.2   203  ALA203      0.2260
     94  O         11.8200    7.7810   34.9180 O.2   203  ALA203     -0.2867
     95  CB        12.2750    5.7330   32.3600 C.3   203  ALA203      0.0290
     96  N         13.8230    9.2490   36.7920 N.3   206  ARG206     -0.1231
     97  CA        13.7310   10.6130   36.2670 C.3   206  ARG206      0.1694
     98  C         12.3170   11.1580   36.3600 C.2   206  ARG206      0.2591
     99  O         12.1710   12.3800   36.3730 O.2   206  ARG206     -0.2718
    100  CB        14.3150   10.6620   34.8550 C.3   206  ARG206      0.0321
    101  CG        15.8400   10.5490   34.9350 C.3   206  ARG206      0.0489
    102  CD        16.4910   10.4030   33.5880 C.3   206  ARG206      0.2205
    103  NE        17.9010   10.0850   33.6490 N.pl3 206  ARG206     -0.0865
    104  CZ        18.5800    9.0950   34.1920 C.cat 206  ARG206      0.5346
    105  NH1       19.9030    9.1200   34.0430 N.pl3 206  ARG206      0.1354
    106  NH2       18.0290    8.0870   34.8640 N.pl3 206  ARG206      0.1354
    107  N         11.3120   10.3060   36.4670 N.am  207  ALA207     -0.1980
    108  CA         9.9290   10.7130   36.6430 C.3   207  ALA207      0.1597
    109  C          9.5450   10.9370   38.1020 C.2   207  ALA207      0.2287
    110  O          8.4800   11.4670   38.3750 O.2   207  ALA207     -0.2864
    111  CB         8.9730    9.6960   36.0400 C.3   207  ALA207      0.0319
    112  N          8.4430   14.4750   39.6710 N.3   210  SER210     -0.1217
    113  CA         7.2350   15.0410   39.0840 C.3   210  SER210      0.1889
    114  C          6.0290   14.1600   39.3950 C.2   210  SER210      0.2288
    115  O          4.9200   14.6670   39.5810 O.2   210  SER210     -0.2866
    116  CB         7.3670   15.2480   37.5800 C.3   210  SER210      0.2089
    117  OG         7.7490   14.0570   36.9160 O.3   210  SER210     -0.2183
    118  N          2.8590   15.6110   41.1080 N.3   214  ARG214     -0.1245
    119  CA         1.5820   15.4640   40.4100 C.3   214  ARG214      0.1563
    120  C          0.5710   14.6450   41.1780 C.2   214  ARG214      0.2260
    121  O         -0.6280   14.8770   40.9920 O.2   214  ARG214     -0.2867
    122  CB         1.7960   14.8590   39.0250 C.3   214  ARG214      0.0307
    123  CG         2.4730   15.8620   38.1430 C.3   214  ARG214      0.0489
    124  CD         2.8550   15.1760   36.8550 C.3   214  ARG214      0.2205
    125  NE         3.3540   16.1960   35.9700 N.pl3 214  ARG214     -0.0865
    126  CZ         3.7050   15.9660   34.7230 C.cat 214  ARG214      0.5346
    127  NH1        4.1250   17.0110   34.0350 N.pl3 214  ARG214      0.1354
    128  NH2        3.6230   14.7810   34.1300 N.pl3 214  ARG214      0.1354
@<TRIPOS>BOND
     1    13    12    2
     2    12    11    1
     3    86    85    2
     4    10    11    1
     5    11    14    1
     6    85    84    1
     7    89    87    1
     8    14    15    1
     9    84    87    1
    10    84    83    1
    11     4     3    2
    12    87    88    1
    13    16    15   ar
    14     3     2    1
    15    15    17   ar
    16    88    90    1
    17     9     7   am
    18     6     5    1
    19     6     7    1
    20    29    30    1
    21     2     5    1
    22     2     1    1
    23     7     8    2
    24    33    30    1
    25    33    34    1
    26    30    31    1
    27    31    32    2
    28    31    35   am
    29    49    51   ar
    30    49    47   ar
    31    35    36    1
    32    51    50   ar
    33    18    19    1
    34    58    60   ar
    35    58    57   ar
    36    19    20    1
    37    42    43    1
    38    43    46    1
    39    43    44    1
    40    60    61   ar
    41    47    46    1
    42    47    48   ar
    43    37    36    1
    44    37    38    2
    45    36    39    1
    46    50    48   ar
    47    52    44   am
    48    52    53    1
    49    57    56    1
    50    57    59   ar
    51    40    39    1
    52    56    53    1
    53    44    45    2
    54    20    22   am
    55    20    21    2
    56    61    59   ar
    57    61    63   ar
    58    53    54    1
    59    39    41    1
    60    22    23    1
    61    59    62   ar
    62    63    65   ar
    63    95    92    1
    64    54    66   am
    65    54    55    2
    66    27    26    1
    67    23    26    1
    68    23    24    1
    69    66    67    1
    70    26    28    1
    71    62    64   ar
    72    65    64   ar
    73    24    25    2
    74    92    91    1
    75    92    93    1
    76    78    80   ar
    77    78    76   ar
    78   102   103    1
    79   102   101    1
    80    70    67    1
    81   103   104    2
    82    80    81   ar
    83    67    68    1
    84   127   126    1
    85   105   104    1
    86   128   126    1
    87   104   106    1
    88    71    68   am
    89    71    72    1
    90    75    76    1
    91    75    72    1
    92    76    77   ar
    93    93    94    2
    94   126   125    2
    95    68    69    2
    96   100   101    1
    97   100    97    1
    98    81    82    1
    99    81    79   ar
   100    73    72    1
   101    73    74    2
   102    77    79   ar
   103   125   124    1
   104   111   108    1
   105    97    98    1
   106    97    96    1
   107    98    99    2
   108    98   107   am
   109   107   108    1
   110   108   109    1
   111   124   123    1
   112   117   116    1
   113   116   113    1
   114   109   110    2
   115   123   122    1
   116   122   119    1
   117   113   114    1
   118   113   112    1
   119   114   115    2
   120   119   118    1
   121   119   120    1
   122   121   120    2
