@<TRIPOS>MOLECULE
tmp/3norA00.pdb
 87 80 0 0 0
SMALL
GASTEIGER

@<TRIPOS>ATOM
      1  N         -2.8170    1.5400  -20.2280 N.3    17  GLN17      -0.1245
      2  CA        -1.8880    2.2040  -21.1490 C.3    17  GLN17       0.1566
      3  C         -1.8980    1.3940  -22.4530 C.2    17  GLN17       0.2260
      4  O         -1.2600    0.3420  -22.5440 O.2    17  GLN17      -0.2867
      5  CB        -0.4700    2.2290  -20.5560 C.3    17  GLN17       0.0367
      6  CG         0.5610    3.0510  -21.3580 C.3    17  GLN17       0.0905
      7  CD         0.4080    4.5390  -21.1500 C.2    17  GLN17       0.2608
      8  OE1        0.5900    5.0440  -20.0410 O.2    17  GLN17      -0.2717
      9  NE2        0.0530    5.2530  -22.2110 N.am   17  GLN17      -0.0878
     10  N         -6.1990    4.9150  -21.1860 N.3    49  SER49      -0.1217
     11  CA        -5.8720    6.1220  -20.4150 C.3    49  SER49       0.1889
     12  C         -5.8380    7.3500  -21.3110 C.2    49  SER49       0.2288
     13  O         -6.0530    8.4640  -20.8550 O.2    49  SER49      -0.2866
     14  CB        -4.5380    5.9500  -19.6710 C.3    49  SER49       0.2089
     15  OG        -3.4610    5.6510  -20.5650 O.3    49  SER49      -0.2183
     16  N         -0.6720    0.8670  -16.8780 N.3    74  GLY74      -0.1210
     17  CA        -1.4800    2.0640  -17.0570 C.3    74  GLY74       0.1956
     18  C         -2.0950    2.4800  -15.7290 C.2    74  GLY74       0.2612
     19  O         -2.0600    1.7170  -14.7610 O.2    74  GLY74      -0.2717
     20  N         -2.6500    3.6900  -15.6830 N.am   75  THR75      -0.1952
     21  CA        -3.2910    4.1870  -14.4610 C.3    75  THR75       0.1897
     22  C         -4.2980    3.1880  -13.9060 C.2    75  THR75       0.2313
     23  O         -4.4500    3.0580  -12.6910 O.2    75  THR75      -0.2863
     24  CB        -4.0150    5.5340  -14.6760 C.3    75  THR75       0.1794
     25  OG1       -3.2930    6.3310  -15.6220 O.3    75  THR75      -0.2208
     26  CG2       -4.1220    6.2940  -13.3450 C.3    75  THR75       0.0378
     27  N          5.0040   -3.0150  -17.8910 N.3   104  CYS104     -0.1221
     28  CA         4.8320   -1.7760  -17.1510 C.3   104  CYS104      0.1808
     29  C          4.3080   -2.1170  -15.7520 C.2   104  CYS104      0.2601
     30  O          4.8030   -3.0460  -15.1190 O.2   104  CYS104     -0.2717
     31  CB         3.8380   -0.8670  -17.8850 C.3   104  CYS104      0.0970
     32  SG         3.8590    0.8600  -17.3390 S.3   104  CYS104     -0.0800
     33  N          3.2940   -1.3900  -15.2860 N.am  105  SER105     -0.1952
     34  CA         2.7120   -1.6650  -13.9750 C.3   105  SER105      0.1924
     35  C          1.8150   -2.9050  -13.9310 C.2   105  SER105      0.2314
     36  O          1.2850   -3.2560  -12.8760 O.2   105  SER105     -0.2863
     37  CB         1.9670   -0.4410  -13.4370 C.3   105  SER105      0.2116
     38  OG         1.0960    0.1040  -14.4120 O.3   105  SER105     -0.2180
     39  N          7.3810   -0.8360  -14.1280 N.3   124  HIS124     -0.1241
     40  CA         7.7180    0.5320  -14.5170 C.3   124  HIS124      0.1621
     41  C          8.6260    1.1960  -13.4860 C.2   124  HIS124      0.2264
     42  O          8.3560    1.1470  -12.2680 O.2   124  HIS124     -0.2867
     43  CB         6.4530    1.3590  -14.7100 C.3   124  HIS124      0.0745
     44  CG         6.7110    2.7150  -15.2750 C.ar  124  HIS124      0.0817
     45  ND1        7.2930    3.7280  -14.5420 N.ar  124  HIS124     -0.2268
     46  CD2        6.5270    3.2070  -16.5200 C.ar  124  HIS124      0.1154
     47  CE1        7.4000    4.8070  -15.2990 C.ar  124  HIS124      0.1986
     48  NE2        6.9390    4.5160  -16.5040 N.ar  124  HIS124     -0.2212
     49  N          9.2360    3.9040  -12.1060 N.3   126  ALA126     -0.1231
     50  CA         8.8390    4.8790  -11.0780 C.3   126  ALA126      0.1694
     51  C          8.1910    4.1870   -9.8920 C.2   126  ALA126      0.2592
     52  O          8.0720    4.7760   -8.8060 O.2   126  ALA126     -0.2718
     53  CB         7.9080    5.9480  -11.6600 C.3   126  ALA126      0.0304
     54  N          7.7950    2.9310  -10.1090 N.am  127  TYR127     -0.1976
     55  CA         7.0430    2.1260   -9.1460 C.3   127  TYR127      0.1639
     56  C          7.8270    0.9060   -8.6680 C.2   127  TYR127      0.2290
     57  O          7.2600    0.0120   -8.0360 O.2   127  TYR127     -0.2864
     58  CB         5.7100    1.6560   -9.7610 C.3   127  TYR127      0.0560
     59  CG         4.8650    2.8150  -10.1890 C.ar  127  TYR127     -0.0198
     60  CD1        4.1190    3.5340   -9.2600 C.ar  127  TYR127     -0.0009
     61  CD2        4.9220    3.2810  -11.5040 C.ar  127  TYR127     -0.0009
     62  CE1        3.3900    4.6590   -9.6480 C.ar  127  TYR127      0.0417
     63  CE2        4.2180    4.4070  -11.8970 C.ar  127  TYR127      0.0417
     64  CZ         3.4410    5.0850  -10.9720 C.ar  127  TYR127      0.1957
     65  OH         2.7350    6.1960  -11.3800 O.3   127  TYR127     -0.2866
     66  N          5.2190   11.8880  -10.7660 N.3   210  ALA210     -0.1245
     67  CA         4.6760   10.5740  -10.4150 C.3   210  ALA210      0.1562
     68  C          4.4470   10.4160   -8.9140 C.2   210  ALA210      0.2260
     69  O          3.9830    9.3610   -8.4560 O.2   210  ALA210     -0.2867
     70  CB         5.5650    9.4460  -10.9390 C.3   210  ALA210      0.0290
     71  N          0.7780    9.6620   -7.6070 N.3   213  SER213     -0.1217
     72  CA         0.4530    8.3530   -8.0900 C.3   213  SER213      0.1889
     73  C          1.1980    7.2620   -7.3130 C.2   213  SER213      0.2288
     74  O          0.6130    6.2200   -6.9680 O.2   213  SER213     -0.2866
     75  CB         0.7390    8.2530   -9.5950 C.3   213  SER213      0.2089
     76  OG         0.5790    6.9160  -10.0370 O.3   213  SER213     -0.2183
     77  N         -0.5160    4.3330   -5.1860 N.3   217  ARG217     -0.1245
     78  CA        -0.1810    2.9530   -5.4980 C.3   217  ARG217      0.1563
     79  C          0.5120    2.1740   -4.3770 C.2   217  ARG217      0.2260
     80  O          0.2970    0.9680   -4.2370 O.2   217  ARG217     -0.2867
     81  CB         0.5920    2.8420   -6.8150 C.3   217  ARG217      0.0307
     82  CG         0.0200    1.7920   -7.6930 C.3   217  ARG217      0.0489
     83  CD         0.6290    1.8560   -9.0510 C.3   217  ARG217      0.2205
     84  NE        -0.1690    2.6730   -9.9480 N.pl3 217  ARG217     -0.0865
     85  CZ         0.1710    2.9040  -11.2060 C.cat 217  ARG217      0.5346
     86  NH1        1.2970    2.3900  -11.6860 N.pl3 217  ARG217      0.1354
     87  NH2       -0.5990    3.6510  -11.9740 N.pl3 217  ARG217      0.1354
@<TRIPOS>BOND
     1     4     3    2
     2     3     2    1
     3     9     7   am
     4     6     7    1
     5     6     5    1
     6    12    13    2
     7    12    11    1
     8    10    11    1
     9     7     8    2
    10     2     5    1
    11     2     1    1
    12    15    14    1
    13    11    14    1
    14    27    28    1
    15    31    32    1
    16    31    28    1
    17    28    29    1
    18    17    16    1
    19    17    18    1
    20    46    48   ar
    21    46    44   ar
    22    48    47   ar
    23    29    33   am
    24    29    30    2
    25    18    20   am
    26    18    19    2
    27    20    21    1
    28    25    24    1
    29    47    45   ar
    30    33    34    1
    31    44    43    1
    32    44    45   ar
    33    43    40    1
    34    24    21    1
    35    24    26    1
    36    40    39    1
    37    40    41    1
    38    21    22    1
    39    38    37    1
    40    34    35    1
    41    34    37    1
    42    35    36    2
    43    22    23    2
    44    41    42    2
    45    49    50    1
    46    87    85    1
    47    63    61   ar
    48    63    64   ar
    49    86    85    1
    50    53    50    1
    51    61    59   ar
    52    65    64    1
    53    85    84    2
    54    50    51    1
    55    64    62   ar
    56    70    67    1
    57    66    67    1
    58    67    68    1
    59    59    58    1
    60    59    60   ar
    61    54    51   am
    62    54    55    1
    63    76    75    1
    64    84    83    1
    65    51    52    2
    66    58    55    1
    67    62    60   ar
    68    75    72    1
    69    55    56    1
    70    83    82    1
    71    68    69    2
    72    56    57    2
    73    72    71    1
    74    72    73    1
    75    82    81    1
    76    73    74    2
    77    81    78    1
    78    78    77    1
    79    78    79    1
    80    79    80    2
