@<TRIPOS>MOLECULE
tmp/3noxB06.pdb
 174 172 0 0 0
SMALL
GASTEIGER

@<TRIPOS>ATOM
      1  N         56.2450   68.8330   71.8940 N.3    86  ARG86      -0.1231
      2  CA        57.1980   68.3340   72.8820 C.3    86  ARG86       0.1694
      3  C         56.6930   68.5190   74.3030 C.2    86  ARG86       0.2592
      4  O         56.9910   67.7060   75.1800 O.2    86  ARG86      -0.2718
      5  CB        58.5610   68.9990   72.7460 C.3    86  ARG86       0.0321
      6  CG        59.6220   68.4430   73.7190 C.3    86  ARG86       0.0489
      7  CD        60.8990   69.2920   73.7110 C.3    86  ARG86       0.2205
      8  NE        61.4830   69.4370   72.3670 N.pl3  86  ARG86      -0.0865
      9  CZ        62.4350   68.6460   71.8850 C.cat  86  ARG86       0.5346
     10  NH1       62.9130   67.6490   72.6320 N.pl3  86  ARG86       0.1354
     11  NH2       62.9110   68.8450   70.6590 N.pl3  86  ARG86       0.1354
     12  N         55.9510   69.5970   74.5370 N.am   87  HIS87      -0.1976
     13  CA        55.4060   69.8700   75.8680 C.3    87  HIS87       0.1656
     14  C         53.8720   69.8120   75.8870 C.2    87  HIS87       0.2291
     15  O         53.2920   69.3620   76.8620 O.2    87  HIS87      -0.2864
     16  CB        55.8960   71.2220   76.3960 C.3    87  HIS87       0.0771
     17  CG        57.3890   71.3940   76.3430 C.ar   87  HIS87       0.0820
     18  ND1       58.2440   70.7830   77.2400 N.ar   87  HIS87      -0.2267
     19  CD2       58.1770   72.1210   75.5090 C.ar   87  HIS87       0.1154
     20  CE1       59.4930   71.1170   76.9520 C.ar   87  HIS87       0.1986
     21  NE2       59.4790   71.9310   75.9090 N.ar   87  HIS87      -0.2212
     22  N         58.3900   75.3650   71.6120 N.3   166  GLU166     -0.1231
     23  CA        59.6190   74.6320   71.3630 C.3   166  GLU166      0.1699
     24  C         60.8620   75.4290   71.7200 C.2   166  GLU166      0.2592
     25  O         61.7540   74.9130   72.3640 O.2   166  GLU166     -0.2718
     26  CB        59.6870   74.1930   69.8940 C.3   166  GLU166      0.0402
     27  CG        61.0320   73.6200   69.4770 C.3   166  GLU166      0.1161
     28  CD        61.3100   72.2620   70.0970 C.2   166  GLU166      0.3649
     29  OE1       60.5280   71.8260   70.9770 O.co2 166  GLU166     -0.2457
     30  OE2       62.3140   71.6260   69.7000 O.co2 166  GLU166     -0.2457
     31  N         60.9020   76.6940   71.3160 N.am  167  GLU167     -0.1979
     32  CA        62.1330   77.4870   71.3640 C.3   167  GLU167      0.1602
     33  C         62.1700   78.6380   72.3820 C.2   167  GLU167      0.2287
     34  O         63.2280   79.2410   72.5880 O.2   167  GLU167     -0.2864
     35  CB        62.4300   78.0580   69.9760 C.3   167  GLU167      0.0415
     36  CG        62.4910   77.0260   68.8890 C.3   167  GLU167      0.1163
     37  CD        63.7360   76.1770   68.9710 C.2   167  GLU167      0.3649
     38  OE1       64.6370   76.5040   69.7660 O.co2 167  GLU167     -0.2457
     39  OE2       63.8180   75.1810   68.2300 O.co2 167  GLU167     -0.2457
     40  N         59.8070   76.5820   76.4280 N.3   170  SER170     -0.1217
     41  CA        59.9930   75.1700   76.7130 C.3   170  SER170      0.1889
     42  C         58.7710   74.6660   77.4920 C.2   170  SER170      0.2288
     43  O         58.8870   73.8650   78.4260 O.2   170  SER170     -0.2866
     44  CB        61.2840   74.9560   77.5180 C.3   170  SER170      0.2089
     45  OG        62.3140   75.8280   77.0630 O.3   170  SER170     -0.2183
     46  N         68.8350   81.7630   75.6820 N.3   319  ARG319     -0.1245
     47  CA        67.9360   82.8860   75.8740 C.3   319  ARG319      0.1563
     48  C         68.3950   83.6020   77.1260 C.2   319  ARG319      0.2260
     49  O         69.1190   83.0160   77.9410 O.2   319  ARG319     -0.2867
     50  CB        66.4880   82.4070   76.0240 C.3   319  ARG319      0.0307
     51  CG        66.2280   81.5230   77.2510 C.3   319  ARG319      0.0489
     52  CD        64.9210   80.7450   77.0900 C.3   319  ARG319      0.2205
     53  NE        64.9450   79.9710   75.8420 N.pl3 319  ARG319     -0.0865
     54  CZ        65.1640   78.6580   75.7790 C.cat 319  ARG319      0.5346
     55  NH1       65.1790   78.0530   74.5990 N.pl3 319  ARG319      0.1354
     56  NH2       65.3590   77.9500   76.8950 N.pl3 319  ARG319      0.1354
     57  N         76.8780   65.5190   68.3530 N.3   508  TYR508     -0.1241
     58  CA        75.7620   66.4500   68.3910 C.3   508  TYR508      0.1605
     59  C         76.2790   67.8230   67.9410 C.2   508  TYR508      0.2264
     60  O         75.8560   68.3630   66.9250 O.2   508  TYR508     -0.2867
     61  CB        75.0600   66.4960   69.7790 C.3   508  TYR508      0.0534
     62  CG        73.7990   67.3350   69.6950 C.ar  508  TYR508     -0.0201
     63  CD1       72.6970   66.8860   68.9750 C.ar  508  TYR508     -0.0009
     64  CD2       73.7400   68.6100   70.2520 C.ar  508  TYR508     -0.0009
     65  CE1       71.5720   67.6570   68.8430 C.ar  508  TYR508      0.0417
     66  CE2       72.6050   69.3880   70.1300 C.ar  508  TYR508      0.0417
     67  CZ        71.5330   68.9040   69.4160 C.ar  508  TYR508      0.1957
     68  OH        70.4130   69.6680   69.2720 O.3   508  TYR508     -0.2866
     69  N         71.9510   62.7080   65.4770 N.3   590  TRP590     -0.1227
     70  CA        70.5230   62.9180   65.3500 C.3   590  TRP590      0.1737
     71  C         70.2790   64.4100   65.3560 C.2   590  TRP590      0.2596
     72  O         70.9390   65.1400   66.0850 O.2   590  TRP590     -0.2718
     73  CB        69.8480   62.3250   66.5800 C.3   590  TRP590      0.0564
     74  CG        68.3830   62.0220   66.4380 C.ar  590  TRP590      0.0003
     75  CD1       67.3720   62.8990   66.1380 C.ar  590  TRP590      0.0946
     76  CD2       67.7640   60.7440   66.6260 C.ar  590  TRP590      0.0152
     77  NE1       66.1640   62.2310   66.1180 N.ar  590  TRP590     -0.2442
     78  CE2       66.3860   60.9100   66.4190 C.ar  590  TRP590      0.0810
     79  CE3       68.2460   59.4780   66.9590 C.ar  590  TRP590      0.0012
     80  CZ2       65.4880   59.8550   66.5400 C.ar  590  TRP590      0.0191
     81  CZ3       67.3480   58.4360   67.0670 C.ar  590  TRP590      0.0001
     82  CH2       65.9890   58.6300   66.8690 C.ar  590  TRP590      0.0015
     83  N         69.3290   64.8750   64.5700 N.am  591  SER591     -0.1938
     84  CA        68.9010   66.2580   64.7030 C.3   591  SER591      0.2055
     85  C         70.0480   67.1700   64.3070 C.2   591  SER591      0.2643
     86  O         70.5100   67.1050   63.1650 O.2   591  SER591     -0.2714
     87  CB        68.4480   66.5250   66.1360 C.3   591  SER591      0.2130
     88  OG        67.9020   67.8230   66.2670 O.3   591  SER591     -0.2179
     89  N         70.5350   68.0160   65.2090 N.am  592  TYR592     -0.1973
     90  CA        71.6990   68.8160   64.8360 C.3   592  TYR592      0.1639
     91  C         72.8360   67.8540   64.5660 C.2   592  TYR592      0.2290
     92  O         73.6190   68.0320   63.6360 O.2   592  TYR592     -0.2864
     93  CB        72.1060   69.8160   65.9120 C.3   592  TYR592      0.0560
     94  CG        73.0180   70.9040   65.3890 C.ar  592  TYR592     -0.0198
     95  CD1       74.3590   70.6600   65.1620 C.ar  592  TYR592     -0.0009
     96  CD2       72.5360   72.1750   65.1200 C.ar  592  TYR592     -0.0009
     97  CE1       75.2020   71.6560   64.6690 C.ar  592  TYR592      0.0417
     98  CE2       73.3640   73.1760   64.6390 C.ar  592  TYR592      0.0417
     99  CZ        74.6970   72.9060   64.4150 C.ar  592  TYR592      0.1957
    100  OH        75.5320   73.8830   63.9400 O.3   592  TYR592     -0.2866
    101  N         68.8190   68.2360   59.9060 N.3   617  VAL617     -0.1245
    102  CA        68.6740   69.4800   59.1600 C.3   617  VAL617      0.1561
    103  C         69.6190   69.4010   57.9620 C.2   617  VAL617      0.2260
    104  O         70.6620   68.7630   58.0340 O.2   617  VAL617     -0.2867
    105  CB        69.0540   70.6890   60.0300 C.3   617  VAL617      0.0252
    106  CG1       69.3160   71.9340   59.1760 C.3   617  VAL617      0.0019
    107  CG2       67.9600   70.9560   61.0290 C.3   617  VAL617      0.0019
    108  N         69.3410   75.5640   56.5470 N.3   620  TRP620     -0.1241
    109  CA        68.8730   76.3900   57.6510 C.3   620  TRP620      0.1605
    110  C         67.6340   77.2180   57.3280 C.2   620  TRP620      0.2264
    111  O         66.9460   77.6970   58.2280 O.2   620  TRP620     -0.2867
    112  CB        70.0110   77.2600   58.1960 C.3   620  TRP620      0.0550
    113  CG        71.0190   76.4130   58.9330 C.ar  620  TRP620      0.0003
    114  CD1       72.3330   76.2010   58.6000 C.ar  620  TRP620      0.0946
    115  CD2       70.7650   75.6070   60.0960 C.ar  620  TRP620      0.0152
    116  NE1       72.9100   75.3310   59.4980 N.ar  620  TRP620     -0.2442
    117  CE2       71.9720   74.9580   60.4270 C.ar  620  TRP620      0.0810
    118  CE3       69.6340   75.3900   60.9030 C.ar  620  TRP620      0.0012
    119  CZ2       72.0800   74.1010   61.5250 C.ar  620  TRP620      0.0191
    120  CZ3       69.7390   74.5410   61.9890 C.ar  620  TRP620      0.0001
    121  CH2       70.9560   73.9090   62.2950 C.ar  620  TRP620      0.0015
    122  N         64.6980   75.0550   58.8590 N.3   623  TYR623     -0.1241
    123  CA        64.4330   75.0870   60.2950 C.3   623  TYR623      0.1605
    124  C         63.7590   76.3840   60.7690 C.2   623  TYR623      0.2264
    125  O         63.6390   77.3530   60.0160 O.2   623  TYR623     -0.2867
    126  CB        65.6860   74.8000   61.1190 C.3   623  TYR623      0.0534
    127  CG        65.3460   74.1950   62.4710 C.ar  623  TYR623     -0.0201
    128  CD1       64.5940   73.0350   62.5580 C.ar  623  TYR623     -0.0009
    129  CD2       65.7820   74.7810   63.6480 C.ar  623  TYR623     -0.0009
    130  CE1       64.2790   72.4780   63.7730 C.ar  623  TYR623      0.0417
    131  CE2       65.4730   74.2380   64.8760 C.ar  623  TYR623      0.0417
    132  CZ        64.7170   73.0840   64.9370 C.ar  623  TYR623      0.1957
    133  OH        64.4090   72.5260   66.1620 O.3   623  TYR623     -0.2866
    134  N         65.3170   79.4330   66.7200 N.3   627  TYR627     -0.1241
    135  CA        66.5720   78.7170   66.8950 C.3   627  TYR627      0.1605
    136  C         67.5870   79.2030   65.8600 C.2   627  TYR627      0.2264
    137  O         68.6740   79.6650   66.2050 O.2   627  TYR627     -0.2867
    138  CB        66.3520   77.2060   66.7620 C.3   627  TYR627      0.0534
    139  CG        67.5850   76.3680   67.0430 C.ar  627  TYR627     -0.0201
    140  CD1       68.4960   76.0780   66.0320 C.ar  627  TYR627     -0.0009
    141  CD2       67.8420   75.8610   68.3210 C.ar  627  TYR627     -0.0009
    142  CE1       69.6350   75.3040   66.2770 C.ar  627  TYR627      0.0417
    143  CE2       68.9810   75.0800   68.5790 C.ar  627  TYR627      0.0417
    144  CZ        69.8750   74.8110   67.5510 C.ar  627  TYR627      0.1957
    145  OH        71.0080   74.0480   67.7840 O.3   627  TYR627     -0.2866
    146  N         59.0060   68.9170   63.6170 N.3   671  ASN671     -0.1225
    147  CA        60.1000   69.7480   64.1140 C.3   671  ASN671      0.1785
    148  C         61.1680   69.9890   63.0330 C.2   671  ASN671      0.2597
    149  O         61.3250   71.1160   62.5290 O.2   671  ASN671     -0.2718
    150  CB        60.7040   69.0600   65.3350 C.3   671  ASN671      0.1169
    151  CG        61.6830   69.9420   66.1010 C.2   671  ASN671      0.2627
    152  OD1       62.3420   70.8190   65.5380 O.2   671  ASN671     -0.2716
    153  ND2       61.7810   69.6990   67.4050 N.am  671  ASN671     -0.0877
    154  N         61.9060   68.9350   62.6930 N.am  672  VAL672     -0.1980
    155  CA        62.8130   68.9900   61.5530 C.3   672  VAL672      0.1595
    156  C         62.0900   68.2810   60.4470 C.2   672  VAL672      0.2287
    157  O         62.0280   67.0570   60.4220 O.2   672  VAL672     -0.2864
    158  CB        64.1370   68.2540   61.8000 C.3   672  VAL672      0.0276
    159  CG1       64.9730   68.2580   60.5360 C.3   672  VAL672      0.0022
    160  CG2       64.9070   68.8870   62.9520 C.3   672  VAL672      0.0022
    161  N         60.0060   63.7170   65.4120 N.3   701  HIS701     -0.1226
    162  CA        61.4320   63.9060   65.5970 C.3   701  HIS701      0.1752
    163  C         62.0570   62.8590   66.5210 C.2   701  HIS701      0.2596
    164  O         63.1940   62.4340   66.3130 O.2   701  HIS701     -0.2718
    165  CB        61.7170   65.3020   66.1290 C.3   701  HIS701      0.0759
    166  CG        63.1400   65.7180   65.9610 C.ar  701  HIS701      0.0818
    167  ND1       63.7810   65.6820   64.7410 N.ar  701  HIS701     -0.2268
    168  CD2       64.0510   66.1750   66.8520 C.ar  701  HIS701      0.1154
    169  CE1       65.0220   66.1110   64.8860 C.ar  701  HIS701      0.1986
    170  NE2       65.2110   66.4170   66.1570 N.ar  701  HIS701     -0.2212
    171  N         61.3190   62.4490   67.5440 N.am  702  GLY702     -0.1957
    172  CA        61.8690   61.5550   68.5490 C.3   702  GLY702      0.1869
    173  C         61.9400   60.1110   68.0960 C.2   702  GLY702      0.2309
    174  O         62.6510   59.3140   68.6940 O.2   702  GLY702     -0.2863
@<TRIPOS>BOND
     1   108   109    1
     2   110   109    1
     3   110   111    2
     4   109   112    1
     5   103   104    2
     6   103   102    1
     7   112   113    1
     8   114   113   ar
     9   114   116   ar
    10   122   123    1
    11   113   115   ar
    12   102   101    1
    13   102   105    1
    14   106   105    1
    15   116   117   ar
    16   125   124    2
    17   105   107    1
    18   115   117   ar
    19   115   118   ar
    20   123   124    1
    21   123   126    1
    22   157   156    2
    23   117   119   ar
    24   156   155    1
    25   159   158    1
    26   118   120   ar
    27   126   127    1
    28   119   121   ar
    29   155   158    1
    30   155   154    1
    31   158   160    1
    32   120   121   ar
    33   127   128   ar
    34   127   129   ar
    35   149   148    2
    36   128   130   ar
    37   154   148   am
    38   148   147    1
    39    86    85    2
    40   146   147    1
    41    92    91    2
    42   129   131   ar
    43   130   132   ar
    44   100    99    1
    45   147   150    1
    46    85    84    1
    47    85    89   am
    48    99    98   ar
    49    99    97   ar
    50    91    90    1
    51    83    84    1
    52    83    71   am
    53    98    96   ar
    54    97    95   ar
    55    84    87    1
    56   167   169   ar
    57   167   166   ar
    58    90    89    1
    59    90    93    1
    60   131   132   ar
    61   169   170   ar
    62   132   133    1
    63    96    94   ar
    64    95    94   ar
    65   150   151    1
    66    70    71    1
    67    70    69    1
    68    70    73    1
    69    71    72    2
    70    94    93    1
    71   161   162    1
    72   152   151    2
    73   162   165    1
    74   162   163    1
    75   136   137    2
    76   136   135    1
    77   166   165    1
    78   166   168   ar
    79   140   142   ar
    80   140   139   ar
    81   151   153   am
    82    77    75   ar
    83    77    78   ar
    84    87    88    1
    85    75    74   ar
    86   170   168   ar
    87   142   144   ar
    88   164   163    2
    89    78    80   ar
    90    78    76   ar
    91    74    73    1
    92    74    76   ar
    93   163   171   am
    94    80    82   ar
    95    76    79   ar
    96   134   135    1
    97   138   135    1
    98   138   139    1
    99    82    81   ar
   100    60    59    2
   101    79    81   ar
   102   139   141   ar
   103   171   172    1
   104   144   145    1
   105   144   143   ar
   106    59    58    1
   107   173   172    1
   108   173   174    2
   109    39    37   ar
   110   141   143   ar
   111    57    58    1
   112    58    61    1
   113    65    63   ar
   114    65    67   ar
   115    36    37    1
   116    36    35    1
   117    37    38   ar
   118    63    62   ar
   119    68    67    1
   120    67    66   ar
   121    27    26    1
   122    27    28    1
   123    62    61    1
   124    62    64   ar
   125    30    28   ar
   126    26    23    1
   127    35    32    1
   128    28    29   ar
   129    66    64   ar
   130    11     9    1
   131    31    32    1
   132    31    24   am
   133    23    22    1
   134    23    24    1
   135    32    33    1
   136    24    25    2
   137     9     8    2
   138     9    10    1
   139     1     2    1
   140     8     7    1
   141    33    34    2
   142     5     2    1
   143     5     6    1
   144     2     3    1
   145     7     6    1
   146     3    12   am
   147     3     4    2
   148    12    13    1
   149    55    54    1
   150    19    21   ar
   151    19    17   ar
   152    46    47    1
   153    54    53    2
   154    54    56    1
   155    53    52    1
   156    13    14    1
   157    13    16    1
   158    47    50    1
   159    47    48    1
   160    14    15    2
   161    21    20   ar
   162    50    51    1
   163    17    16    1
   164    17    18   ar
   165    40    41    1
   166    41    42    1
   167    41    44    1
   168    20    18   ar
   169    45    44    1
   170    52    51    1
   171    48    49    2
   172    42    43    2
