@<TRIPOS>MOLECULE
tmp/3np7A00.pdb
 148 139 0 0 0
SMALL
GASTEIGER

@<TRIPOS>ATOM
      1  N          5.2120    8.1730   30.6550 N.3     5  ARG5       -0.1245
      2  CA         5.2790    8.6010   32.0540 C.3     5  ARG5        0.1563
      3  C          4.8870    7.5250   33.0770 C.2     5  ARG5        0.2260
      4  O          4.7500    7.8190   34.2670 O.2     5  ARG5       -0.2867
      5  CB         4.4410    9.8650   32.2630 C.3     5  ARG5        0.0307
      6  CG         5.0950   11.1270   31.7600 C.3     5  ARG5        0.0489
      7  CD         4.3180   12.3460   32.2020 C.3     5  ARG5        0.2205
      8  NE         5.0740   13.5730   31.9680 N.pl3   5  ARG5       -0.0865
      9  CZ         4.7990   14.7470   32.5280 C.cat   5  ARG5        0.5346
     10  NH1        3.7780   14.8650   33.3690 N.pl3   5  ARG5        0.1354
     11  NH2        5.5530   15.8060   32.2510 N.pl3   5  ARG5        0.1354
     12  N         17.5560   20.4300   38.8300 N.3    82  ARG82      -0.1245
     13  CA        16.5510   19.8500   39.7240 C.3    82  ARG82       0.1563
     14  C         16.5690   18.3240   39.7080 C.2    82  ARG82       0.2260
     15  O         16.9300   17.7040   38.7040 O.2    82  ARG82      -0.2867
     16  CB        15.1530   20.3720   39.3800 C.3    82  ARG82       0.0307
     17  CG        14.9790   21.8730   39.5860 C.3    82  ARG82       0.0489
     18  CD        13.7160   22.3540   38.8920 C.3    82  ARG82       0.2205
     19  NE        13.4550   23.7710   39.1320 N.pl3  82  ARG82      -0.0865
     20  CZ        12.5650   24.4980   38.4540 C.cat  82  ARG82       0.5346
     21  NH1       11.8400   23.9480   37.4800 N.pl3  82  ARG82       0.1354
     22  NH2       12.4010   25.7830   38.7470 N.pl3  82  ARG82       0.1354
     23  N         11.7740   15.6520   39.3610 N.3    85  GLN85      -0.1245
     24  CA        11.2330   15.0850   38.1290 C.3    85  GLN85       0.1566
     25  C         12.1510   14.0030   37.5690 C.2    85  GLN85       0.2260
     26  O         11.6810   12.9330   37.1740 O.2    85  GLN85      -0.2867
     27  CB        10.9350   16.1720   37.0890 C.3    85  GLN85       0.0367
     28  CG        10.0850   15.6610   35.9390 C.3    85  GLN85       0.0905
     29  CD         9.6740   16.7400   34.9480 C.2    85  GLN85       0.2608
     30  OE1       10.0620   17.9100   35.0660 O.2    85  GLN85      -0.2717
     31  NE2        8.8850   16.3440   33.9550 N.am   85  GLN85      -0.0878
     32  N          3.2530   20.1280   38.5660 N.3   109  GLU109     -0.1245
     33  CA         4.1700   20.9960   37.8120 C.3   109  GLU109      0.1567
     34  C          4.5220   22.2550   38.5880 C.2   109  GLU109      0.2260
     35  O          5.6740   22.7000   38.5780 O.2   109  GLU109     -0.2867
     36  CB         3.5790   21.3810   36.4550 C.3   109  GLU109      0.0388
     37  CG         3.7050   20.3000   35.3950 C.3   109  GLU109      0.1160
     38  CD         3.6110   20.8470   33.9750 C.2   109  GLU109      0.3649
     39  OE1        3.6470   22.0880   33.7960 O.co2 109  GLU109     -0.2457
     40  OE2        3.5100   20.0250   33.0360 O.co2 109  GLU109     -0.2457
     41  N          6.9360   21.2920   41.2080 N.3   112  GLU112     -0.1231
     42  CA         8.2470   21.0610   40.5930 C.3   112  GLU112      0.1699
     43  C          9.0460   22.3560   40.4140 C.2   112  GLU112      0.2592
     44  O         10.2670   22.3550   40.5650 O.2   112  GLU112     -0.2718
     45  CB         8.1010   20.3330   39.2560 C.3   112  GLU112      0.0402
     46  CG         7.8540   18.8340   39.3880 C.3   112  GLU112      0.1161
     47  CD         7.3490   18.1970   38.1000 C.2   112  GLU112      0.3649
     48  OE1        6.9830   18.9320   37.1610 O.co2 112  GLU112     -0.2457
     49  OE2        7.3040   16.9540   38.0290 O.co2 112  GLU112     -0.2457
     50  N          8.3450   23.4530   40.1260 N.am  113  GLU113     -0.1979
     51  CA         8.9670   24.7680   39.9190 C.3   113  GLU113      0.1602
     52  C          9.5330   25.3980   41.1920 C.2   113  GLU113      0.2287
     53  O         10.2680   26.3890   41.1190 O.2   113  GLU113     -0.2864
     54  CB         7.9840   25.7390   39.2560 C.3   113  GLU113      0.0415
     55  CG         7.6130   25.3940   37.8070 C.3   113  GLU113      0.1163
     56  CD         8.8120   25.3850   36.8540 C.2   113  GLU113      0.3649
     57  OE1        8.8500   24.5000   35.9700 O.co2 113  GLU113     -0.2457
     58  OE2        9.7100   26.2520   36.9890 O.co2 113  GLU113     -0.2457
     59  N         12.1400   13.9690   30.0230 N.3   471  LEU471     -0.1231
     60  CA        11.8090   14.9200   31.0830 C.3   471  LEU471      0.1693
     61  C         11.3220   16.2620   30.5410 C.2   471  LEU471      0.2592
     62  O         10.2420   16.7190   30.9040 O.2   471  LEU471     -0.2718
     63  CB        13.0070   15.1080   32.0220 C.3   471  LEU471      0.0284
     64  CG        12.8430   15.9360   33.2990 C.3   471  LEU471      0.0019
     65  CD1       13.8430   15.4810   34.3400 C.3   471  LEU471      0.0001
     66  CD2       12.9920   17.4290   33.0270 C.3   471  LEU471      0.0001
     67  N         12.1100   16.8930   29.6740 N.am  472  CYS472     -0.1970
     68  CA        11.8030   18.2560   29.2370 C.3   472  CYS472      0.1712
     69  C         10.8210   18.3300   28.0590 C.2   472  CYS472      0.2296
     70  O         10.2160   19.3730   27.8170 O.2   472  CYS472     -0.2864
     71  CB        13.0950   19.0130   28.8960 C.3   472  CYS472      0.0983
     72  SG        13.9680   18.3630   27.4810 S.3   472  CYS472     -0.0798
     73  N          8.0340   15.7830   27.0200 N.3   474  PRO474     -0.2116
     74  CA         7.2290   14.5580   27.0660 C.3   474  PRO474      0.1372
     75  C          6.3560   14.3530   25.8180 C.2   474  PRO474      0.2244
     76  O          6.2130   13.2190   25.3520 O.2   474  PRO474     -0.2868
     77  CB         6.3670   14.7400   28.3230 C.3   474  PRO474      0.0268
     78  CG         6.3610   16.1940   28.5970 C.3   474  PRO474      0.0207
     79  CD         7.6800   16.7150   28.1060 C.3   474  PRO474      0.0892
     80  N          4.9590   23.5290   22.4560 N.3   518  ASN518     -0.1240
     81  CA         6.1110   23.9400   23.2610 C.3   518  ASN518      0.1653
     82  C          6.3450   25.4390   23.1660 C.2   518  ASN518      0.2266
     83  O          6.6000   26.0950   24.1760 O.2   518  ASN518     -0.2867
     84  CB         7.3710   23.1640   22.8570 C.3   518  ASN518      0.1155
     85  CG         7.3050   21.6940   23.2420 C.2   518  ASN518      0.2627
     86  OD1        6.5180   21.3020   24.0980 O.2   518  ASN518     -0.2716
     87  ND2        8.1400   20.8750   22.6120 N.am  518  ASN518     -0.0877
     88  N          3.5030   27.4150   25.0700 N.3   521  LYS521     -0.1231
     89  CA         3.7260   27.3290   26.5060 C.3   521  LYS521      0.1693
     90  C          4.8850   28.2200   26.9540 C.2   521  LYS521      0.2592
     91  O          4.7860   28.8960   27.9790 O.2   521  LYS521     -0.2718
     92  CB         3.9740   25.8860   26.9400 C.3   521  LYS521      0.0285
     93  CG         3.7060   25.6880   28.4110 C.3   521  LYS521      0.0035
     94  CD         4.2420   24.3840   28.9340 C.3   521  LYS521      0.0206
     95  CE         3.8900   24.2690   30.4100 C.3   521  LYS521      0.1093
     96  NZ         4.1740   22.9160   30.9420 N.3   521  LYS521     -0.1314
     97  N          5.9710   28.2310   26.1820 N.am  522  PHE522     -0.1976
     98  CA         7.1240   29.0640   26.5180 C.3   522  PHE522      0.1639
     99  C          6.8480   30.5590   26.3410 C.2   522  PHE522      0.2290
    100  O          7.3760   31.3830   27.0910 O.2   522  PHE522     -0.2864
    101  CB         8.3800   28.6340   25.7500 C.3   522  PHE522      0.0560
    102  CG         9.6350   29.3120   26.2280 C.ar  522  PHE522     -0.0200
    103  CD1       10.2030   28.9690   27.4540 C.ar  522  PHE522     -0.0042
    104  CD2       10.2350   30.3090   25.4660 C.ar  522  PHE522     -0.0042
    105  CE1       11.3620   29.6010   27.9090 C.ar  522  PHE522     -0.0003
    106  CE2       11.3910   30.9470   25.9100 C.ar  522  PHE522     -0.0003
    107  CZ        11.9540   30.5940   27.1360 C.ar  522  PHE522     -0.0000
    108  N          5.0580   31.5910   29.4500 N.3   525  TYR525     -0.1241
    109  CA         6.0420   31.7270   30.5280 C.3   525  TYR525      0.1605
    110  C          6.6310   33.1280   30.5610 C.2   525  TYR525      0.2264
    111  O          6.6770   33.7620   31.6150 O.2   525  TYR525     -0.2867
    112  CB         7.1620   30.6980   30.3600 C.3   525  TYR525      0.0534
    113  CG         8.2830   30.7900   31.3780 C.ar  525  TYR525     -0.0201
    114  CD1        9.4570   31.4880   31.0890 C.ar  525  TYR525     -0.0009
    115  CD2        8.1740   30.1710   32.6250 C.ar  525  TYR525     -0.0009
    116  CE1       10.4940   31.5750   32.0200 C.ar  525  TYR525      0.0417
    117  CE2        9.2080   30.2500   33.5630 C.ar  525  TYR525      0.0417
    118  CZ        10.3630   30.9540   33.2520 C.ar  525  TYR525      0.1957
    119  OH        11.3870   31.0370   34.1700 O.3   525  TYR525     -0.2866
    120  N          4.0060   35.6480   31.8840 N.3   528  ARG528     -0.1245
    121  CA         3.7150   35.4140   33.3040 C.3   528  ARG528      0.1563
    122  C          4.8520   35.8210   34.2470 C.2   528  ARG528      0.2260
    123  O          4.6150   36.4920   35.2540 O.2   528  ARG528     -0.2867
    124  CB         3.3370   33.9450   33.5420 C.3   528  ARG528      0.0307
    125  CG         1.8890   33.5980   33.1960 C.3   528  ARG528      0.0489
    126  CD         1.6170   32.0880   33.2590 C.3   528  ARG528      0.2205
    127  NE         1.7150   31.5430   34.6160 N.pl3 528  ARG528     -0.0865
    128  CZ         2.7370   30.8180   35.0740 C.cat 528  ARG528      0.5346
    129  NH1        2.7260   30.3720   36.3260 N.pl3 528  ARG528      0.1354
    130  NH2        3.7730   30.5370   34.2890 N.pl3 528  ARG528      0.1354
    131  N         15.6960   23.4820   30.0680 N.3   631  GLU631     -0.1231
    132  CA        14.6640   22.4570   29.9230 C.3   631  GLU631      0.1699
    133  C         13.3620   23.0230   29.3560 C.2   631  GLU631      0.2592
    134  O         12.5610   22.2850   28.7930 O.2   631  GLU631     -0.2718
    135  CB        14.4150   21.7650   31.2680 C.3   631  GLU631      0.0402
    136  CG        15.5850   20.9070   31.7450 C.3   631  GLU631      0.1161
    137  CD        15.4680   20.4990   33.2080 C.2   631  GLU631      0.3649
    138  OE1       16.3170   19.7240   33.6830 O.co2 631  GLU631     -0.2457
    139  OE2       14.5340   20.9570   33.8930 O.co2 631  GLU631     -0.2457
    140  N         13.1710   24.3310   29.5070 N.am  632  LYS632     -0.1980
    141  CA        12.0060   25.0380   28.9790 C.3   632  LYS632      0.1596
    142  C         12.2270   25.5550   27.5500 C.2   632  LYS632      0.2287
    143  O         11.4260   25.2720   26.6550 O.2   632  LYS632     -0.2864
    144  CB        11.6230   26.2070   29.8970 C.3   632  LYS632      0.0298
    145  CG        11.1380   25.7980   31.2950 C.3   632  LYS632      0.0038
    146  CD        10.8010   27.0340   32.1270 C.3   632  LYS632      0.0206
    147  CE        10.2750   26.6700   33.5240 C.3   632  LYS632      0.1093
    148  NZ        11.2730   25.8870   34.3240 N.3   632  LYS632     -0.1314
@<TRIPOS>BOND
     1    80    81    1
     2    87    85   am
     3    84    85    1
     4    84    81    1
     5    82    81    1
     6    82    83    2
     7    85    86    2
     8    88    89    1
     9    76    75    2
    10   104   106   ar
    11   104   102   ar
    12   101   102    1
    13   101    98    1
    14    75    74    1
    15   106   107   ar
    16    97    98    1
    17    97    90   am
    18   102   103   ar
    19    99    98    1
    20    99   100    2
    21    89    92    1
    22    89    90    1
    23   143   142    2
    24    92    93    1
    25    90    91    2
    26    73    74    1
    27    73    79    1
    28    74    77    1
    29   107   105   ar
    30   103   105   ar
    31    72    71    1
    32   142   141    1
    33    70    69    2
    34    69    68    1
    35    79    78    1
    36    77    78    1
    37    93    94    1
    38   134   133    2
    39    71    68    1
    40    94    95    1
    41   141   140    1
    42   141   144    1
    43    68    67    1
    44   133   140   am
    45   133   132    1
    46   108   109    1
    47    67    61   am
    48   144   145    1
    49   132   131    1
    50   132   135    1
    51    59    60    1
    52   112   109    1
    53   112   113    1
    54    95    96    1
    55   109   110    1
    56    61    62    2
    57    61    60    1
    58   110   111    2
    59     1     2    1
    60    60    63    1
    61   114   113   ar
    62   114   116   ar
    63   135   136    1
    64   145   146    1
    65   113   115   ar
    66   136   137    1
    67     6     7    1
    68     6     5    1
    69   120   121    1
    70     8     7    1
    71     8     9    2
    72   116   118   ar
    73    63    64    1
    74     2     5    1
    75     2     3    1
    76   146   147    1
    77    11     9    1
    78     9    10    1
    79   115   117   ar
    80    66    64    1
    81    40    38   ar
    82     3     4    2
    83   125   126    1
    84   125   124    1
    85   137   138   ar
    86   137   139   ar
    87   118   117   ar
    88   118   119    1
    89   126   127    1
    90    64    65    1
    91   121   124    1
    92   121   122    1
    93   147   148    1
    94    39    38   ar
    95    31    29   am
    96    38    37    1
    97   122   123    2
    98   130   128    1
    99   127   128    2
   100    29    30    2
   101    29    28    1
   102   128   129    1
   103    37    36    1
   104    28    27    1
   105    57    56   ar
   106    36    33    1
   107    56    58   ar
   108    56    55    1
   109    27    24    1
   110    48    47   ar
   111    26    25    2
   112    21    20    1
   113    25    24    1
   114    55    54    1
   115    33    32    1
   116    33    34    1
   117    49    47   ar
   118    47    46    1
   119    24    23    1
   120    20    22    1
   121    20    19    2
   122    35    34    2
   123    15    14    2
   124    12    13    1
   125    18    19    1
   126    18    17    1
   127    54    51    1
   128    45    46    1
   129    45    42    1
   130    16    17    1
   131    16    13    1
   132    14    13    1
   133    51    50    1
   134    51    52    1
   135    50    43   am
   136    43    44    2
   137    43    42    1
   138    42    41    1
   139    53    52    2
