@<TRIPOS>MOLECULE
tmp/3np9A00.pdb
 183 175 0 0 0
SMALL
GASTEIGER

@<TRIPOS>ATOM
      1  N         32.7850   20.1410   39.0600 N.3    77  GLU77      -0.1245
      2  CA        31.4500   20.5980   38.6840 C.3    77  GLU77       0.1567
      3  C         30.4940   19.4420   38.4050 C.2    77  GLU77       0.2260
      4  O         30.8370   18.4940   37.6950 O.2    77  GLU77      -0.2867
      5  CB        31.5140   21.5230   37.4600 C.3    77  GLU77       0.0388
      6  CG        32.3790   22.7660   37.6560 C.3    77  GLU77       0.1160
      7  CD        32.3170   23.7240   36.4870 C.2    77  GLU77       0.3649
      8  OE1       33.1750   24.6280   36.4290 O.co2  77  GLU77      -0.2457
      9  OE2       31.4160   23.5790   35.6280 O.co2  77  GLU77      -0.2457
     10  N         29.2120   25.3890   35.6790 N.3   122  ASN122     -0.1225
     11  CA        29.2120   26.5980   34.8690 C.3   122  ASN122      0.1785
     12  C         28.5010   26.4560   33.5370 C.2   122  ASN122      0.2598
     13  O         27.8750   27.3980   33.0600 O.2   122  ASN122     -0.2718
     14  CB        30.6490   27.0320   34.6180 C.3   122  ASN122      0.1169
     15  CG        31.2060   27.8080   35.7690 C.2   122  ASN122      0.2627
     16  OD1       30.8310   28.9600   35.9770 O.2   122  ASN122     -0.2716
     17  ND2       32.0780   27.1780   36.5540 N.am  122  ASN122     -0.0877
     18  N         28.6290   25.2840   32.9290 N.am  123  GLY123     -0.1942
     19  CA        28.0660   25.0460   31.6100 C.3   123  GLY123      0.2014
     20  C         28.3010   23.6180   31.1900 C.2   123  GLY123      0.2639
     21  O         27.9840   22.6920   31.9320 O.2   123  GLY123     -0.2714
     22  N         28.8840   23.4510   30.0060 N.am  124  GLY124     -0.1939
     23  CA        28.9820   22.1520   29.3550 C.3   124  GLY124      0.2014
     24  C         29.7640   21.0930   30.1050 C.2   124  GLY124      0.2638
     25  O         29.3630   19.9300   30.1330 O.2   124  GLY124     -0.2714
     26  N         30.8980   21.4740   30.6920 N.am  125  LEU125     -0.1977
     27  CA        31.7170   20.5000   31.4230 C.3   125  LEU125      0.1596
     28  C         30.9810   19.9630   32.6540 C.2   125  LEU125      0.2287
     29  O         31.0230   18.7590   32.9330 O.2   125  LEU125     -0.2864
     30  CB        33.0810   21.0880   31.8030 C.3   125  LEU125      0.0297
     31  CG        34.0060   20.2990   32.7400 C.3   125  LEU125      0.0022
     32  CD1       35.4690   20.5830   32.4290 C.3   125  LEU125      0.0001
     33  CD2       33.7000   20.6570   34.1910 C.3   125  LEU125      0.0001
     34  N         27.9960   17.8460   31.4720 N.3   128  LEU128     -0.1245
     35  CA        28.4730   16.5570   30.9660 C.3   128  LEU128      0.1561
     36  C         28.6350   15.5490   32.0940 C.2   128  LEU128      0.2260
     37  O         28.2350   14.3950   31.9600 O.2   128  LEU128     -0.2867
     38  CB        29.7940   16.7100   30.1980 C.3   128  LEU128      0.0270
     39  CG        30.2670   15.4530   29.4510 C.3   128  LEU128      0.0019
     40  CD1       29.4810   15.2640   28.1600 C.3   128  LEU128      0.0001
     41  CD2       31.7630   15.5090   29.1690 C.3   128  LEU128      0.0001
     42  N         33.6130   30.6790   36.3890 N.3   265  ASN265     -0.1225
     43  CA        34.2640   30.8320   35.0920 C.3   265  ASN265      0.1785
     44  C         34.0290   29.6300   34.2040 C.2   265  ASN265      0.2597
     45  O         34.2950   28.4930   34.5980 O.2   265  ASN265     -0.2718
     46  CB        35.7710   31.0420   35.2590 C.3   265  ASN265      0.1169
     47  CG        36.0990   32.2070   36.1640 C.2   265  ASN265      0.2627
     48  OD1       35.5790   33.3110   35.9880 O.2   265  ASN265     -0.2716
     49  ND2       36.9620   31.9680   37.1440 N.am  265  ASN265     -0.0877
     50  N         33.5250   29.8800   33.0060 N.am  266  ASP266     -0.1960
     51  CA        33.4160   28.8170   32.0230 C.3   266  ASP266      0.1840
     52  C         34.5690   28.9340   31.0480 C.2   266  ASP266      0.2622
     53  O         34.7670   29.9900   30.4410 O.2   266  ASP266     -0.2715
     54  CB        32.1000   28.8910   31.2630 C.3   266  ASP266      0.1450
     55  CG        31.9150   27.7160   30.3270 C.2   266  ASP266      0.3671
     56  OD1       31.5450   26.6290   30.8040 O.co2 266  ASP266     -0.2456
     57  OD2       32.1570   27.8810   29.1150 O.co2 266  ASP266     -0.2456
     58  N         35.3240   27.8470   30.9060 N.am  267  ASN267     -0.1958
     59  CA        36.3880   27.7650   29.9100 C.3   267  ASN267      0.1819
     60  C         37.3690   28.9300   30.0750 C.2   267  ASN267      0.2621
     61  O         37.6820   29.6390   29.1180 O.2   267  ASN267     -0.2715
     62  CB        35.7720   27.7490   28.5000 C.3   267  ASN267      0.1195
     63  CG        36.6120   26.9990   27.4930 C.2   267  ASN267      0.2630
     64  OD1       37.7480   26.6150   27.7610 O.2   267  ASN267     -0.2716
     65  ND2       36.0520   26.7900   26.3160 N.am  267  ASN267     -0.0877
     66  N         37.8280   29.1240   31.3100 N.am  268  PHE268     -0.1974
     67  CA        38.7630   30.1940   31.6580 C.3   268  PHE268      0.1639
     68  C         39.4640   29.8460   32.9680 C.2   268  PHE268      0.2290
     69  O         38.8200   29.4390   33.9380 O.2   268  PHE268     -0.2864
     70  CB        38.0290   31.5370   31.7770 C.3   268  PHE268      0.0560
     71  CG        38.9260   32.7020   32.1090 C.ar  268  PHE268     -0.0200
     72  CD1       39.6760   33.3260   31.1190 C.ar  268  PHE268     -0.0042
     73  CD2       39.0010   33.1880   33.4100 C.ar  268  PHE268     -0.0042
     74  CE1       40.4980   34.4060   31.4240 C.ar  268  PHE268     -0.0003
     75  CE2       39.8230   34.2650   33.7260 C.ar  268  PHE268     -0.0003
     76  CZ        40.5730   34.8760   32.7320 C.ar  268  PHE268     -0.0000
     77  N         38.7570   17.1590   32.9340 N.3   313  ASP313     -0.1239
     78  CA        39.7910   18.1630   32.6700 C.3   313  ASP313      0.1674
     79  C         40.9210   18.0690   33.7020 C.2   313  ASP313      0.2266
     80  O         41.0700   17.0410   34.3530 O.2   313  ASP313     -0.2867
     81  CB        39.2180   19.5800   32.5430 C.3   313  ASP313      0.1410
     82  CG        40.0270   20.4410   31.5950 C.2   313  ASP313      0.3668
     83  OD1       39.6510   20.5310   30.4080 O.co2 313  ASP313     -0.2456
     84  OD2       41.0620   20.9920   32.0270 O.co2 313  ASP313     -0.2456
     85  N         41.2630   19.9260   36.3540 N.3   315  HIS315     -0.1241
     86  CA        40.8710   20.4390   37.6690 C.3   315  HIS315      0.1621
     87  C         41.2200   19.4920   38.8280 C.2   315  HIS315      0.2264
     88  O         41.6950   19.9560   39.8630 O.2   315  HIS315     -0.2867
     89  CB        39.4010   20.8900   37.7000 C.3   315  HIS315      0.0745
     90  CG        39.0150   21.7690   36.5490 C.ar  315  HIS315      0.0817
     91  ND1       37.7130   21.9040   36.1210 N.ar  315  HIS315     -0.2268
     92  CD2       39.7630   22.5420   35.7240 C.ar  315  HIS315      0.1154
     93  CE1       37.6720   22.7320   35.0920 C.ar  315  HIS315      0.1986
     94  NE2       38.9040   23.1310   34.8290 N.ar  315  HIS315     -0.2212
     95  N         38.9830   19.2950   27.5910 N.3   351  HIS351     -0.1226
     96  CA        37.7480   19.9140   27.1280 C.3   351  HIS351      0.1752
     97  C         37.9770   21.2330   26.4000 C.2   351  HIS351      0.2596
     98  O         37.0160   21.9310   26.0930 O.2   351  HIS351     -0.2718
     99  CB        36.8210   20.1970   28.3100 C.3   351  HIS351      0.0759
    100  CG        36.3600   18.9800   29.0440 C.ar  351  HIS351      0.0818
    101  ND1       35.1140   18.4250   28.8520 N.ar  351  HIS351     -0.2268
    102  CD2       36.9640   18.2350   29.9990 C.ar  351  HIS351      0.1154
    103  CE1       34.9730   17.3830   29.6500 C.ar  351  HIS351      0.1986
    104  NE2       36.0820   17.2460   30.3570 N.ar  351  HIS351     -0.2212
    105  N         39.2370   21.5910   26.1500 N.am  352  THR352     -0.1953
    106  CA        39.5490   22.9020   25.5850 C.3   352  THR352      0.1897
    107  C         40.9420   22.9890   24.9610 C.2   352  THR352      0.2313
    108  O         41.8650   22.2790   25.3660 O.2   352  THR352     -0.2863
    109  CB        39.4040   24.0260   26.6470 C.3   352  THR352      0.1794
    110  OG1       39.4060   25.2980   26.0000 O.3   352  THR352     -0.2208
    111  CG2       40.5330   23.9750   27.6780 C.3   352  THR352      0.0378
    112  N         42.3400   29.0400   29.1010 N.3   357  ALA357     -0.1245
    113  CA        41.5340   28.0890   29.8740 C.3   357  ALA357      0.1562
    114  C         42.3640   26.9500   30.4530 C.2   357  ALA357      0.2260
    115  O         41.8820   26.1770   31.2900 O.2   357  ALA357     -0.2867
    116  CB        40.4120   27.5300   29.0200 C.3   357  ALA357      0.0290
    117  N         36.8270   15.4910   23.2170 N.3   429  VAL429     -0.1245
    118  CA        35.3850   15.3410   23.4500 C.3   429  VAL429      0.1561
    119  C         34.5490   15.4080   22.1730 C.2   429  VAL429      0.2260
    120  O         33.3180   15.4200   22.2250 O.2   429  VAL429     -0.2867
    121  CB        34.8850   16.3480   24.5170 C.3   429  VAL429      0.0252
    122  CG1       35.4090   15.9520   25.8940 C.3   429  VAL429      0.0019
    123  CG2       35.3080   17.7810   24.1730 C.3   429  VAL429      0.0019
    124  N         31.2390   13.6100   22.9870 N.3   458  ASN458     -0.1240
    125  CA        30.2670   13.9020   24.0320 C.3   458  ASN458      0.1653
    126  C         28.8640   13.4380   23.6670 C.2   458  ASN458      0.2266
    127  O         28.5720   13.1360   22.5080 O.2   458  ASN458     -0.2867
    128  CB        30.2480   15.4130   24.3340 C.3   458  ASN458      0.1155
    129  CG        31.3990   15.8520   25.2420 C.2   458  ASN458      0.2627
    130  OD1       31.6300   17.0540   25.4430 O.2   458  ASN458     -0.2716
    131  ND2       32.1080   14.8870   25.8060 N.am  458  ASN458     -0.0877
    132  N         34.5200   33.5100   21.9890 N.3   547  TYR547     -0.1227
    133  CA        34.6560   32.4270   21.0010 C.3   547  TYR547      0.1736
    134  C         33.3210   31.8550   20.5180 C.2   547  TYR547      0.2595
    135  O         33.2320   31.3620   19.3930 O.2   547  TYR547     -0.2718
    136  CB        35.6170   31.3250   21.4730 C.3   547  TYR547      0.0548
    137  CG        35.0280   30.2350   22.3400 C.ar  547  TYR547     -0.0200
    138  CD1       34.4840   29.0820   21.7680 C.ar  547  TYR547     -0.0009
    139  CD2       35.0610   30.3270   23.7310 C.ar  547  TYR547     -0.0009
    140  CE1       33.9620   28.0650   22.5580 C.ar  547  TYR547      0.0417
    141  CE2       34.5400   29.3100   24.5310 C.ar  547  TYR547      0.0417
    142  CZ        33.9950   28.1850   23.9380 C.ar  547  TYR547      0.1957
    143  OH        33.4760   27.1750   24.7210 O.3   547  TYR547     -0.2866
    144  N         32.2940   31.9320   21.3600 N.am  548  LYS548     -0.1980
    145  CA        30.9650   31.4290   21.0040 C.3   548  LYS548      0.1596
    146  C         30.2160   32.4100   20.0880 C.2   548  LYS548      0.2287
    147  O         29.1730   32.0780   19.5180 O.2   548  LYS548     -0.2864
    148  CB        30.1490   31.1210   22.2640 C.3   548  LYS548      0.0298
    149  CG        30.6920   29.9470   23.0870 C.3   548  LYS548      0.0038
    150  CD        29.9060   29.7630   24.3770 C.3   548  LYS548      0.0206
    151  CE        30.5680   28.7780   25.3270 C.3   548  LYS548      0.1093
    152  NZ        30.3380   27.3570   24.9140 N.3   548  LYS548     -0.1314
    153  N         35.2880   25.5650   19.8780 N.3   646  GLU646     -0.1231
    154  CA        34.3420   24.8440   20.7310 C.3   646  GLU646      0.1699
    155  C         34.6970   23.3660   20.6970 C.2   646  GLU646      0.2592
    156  O         34.4590   22.7050   19.6960 O.2   646  GLU646     -0.2718
    157  CB        32.8940   25.0680   20.2660 C.3   646  GLU646      0.0402
    158  CG        31.8360   24.5610   21.2460 C.3   646  GLU646      0.1161
    159  CD        31.6910   25.4670   22.4530 C.2   646  GLU646      0.3649
    160  OE1       32.4070   25.2480   23.4440 O.co2 646  GLU646     -0.2457
    161  OE2       30.8880   26.4210   22.3980 O.co2 646  GLU646     -0.2457
    162  N         35.2860   22.8480   21.7770 N.am  647  ALA647     -0.1966
    163  CA        35.7720   21.4620   21.7750 C.3   647  ALA647      0.1728
    164  C         34.6960   20.4670   21.3140 C.2   647  ALA647      0.2617
    165  O         34.9610   19.5900   20.4910 O.2   647  ALA647     -0.2715
    166  CB        36.3230   21.0760   23.1300 C.3   647  ALA647      0.0334
    167  N         33.4820   20.6130   21.8340 N.am  648  SER648     -0.1936
    168  CA        32.3810   19.7590   21.3950 C.3   648  SER648      0.2055
    169  C         31.0940   20.5510   21.2740 C.2   648  SER648      0.2644
    170  O         30.4900   20.6230   20.1930 O.2   648  SER648     -0.2714
    171  CB        32.2000   18.5820   22.3580 C.3   648  SER648      0.2130
    172  OG        31.0370   17.8260   22.0650 O.3   648  SER648     -0.2179
    173  N         30.6920   21.1670   22.3810 N.am  649  GLY649     -0.1939
    174  CA        29.3310   21.6620   22.5220 C.3   649  GLY649      0.2014
    175  C         28.4540   20.4850   22.9140 C.2   649  GLY649      0.2639
    176  O         28.7290   19.3500   22.5280 O.2   649  GLY649     -0.2714
    177  N         27.4240   20.7480   23.7090 N.am  650  THR650     -0.1950
    178  CA        26.4290   19.7310   24.0620 C.3   650  THR650      0.1897
    179  C         25.0230   20.2970   23.9310 C.2   650  THR650      0.2313
    180  O         24.0710   19.5570   23.6650 O.2   650  THR650     -0.2863
    181  CB        26.6260   19.1680   25.4850 C.3   650  THR650      0.1794
    182  OG1       26.7100   20.2480   26.4190 O.3   650  THR650     -0.2208
    183  CG2       27.8840   18.3080   25.5660 C.3   650  THR650      0.0378
@<TRIPOS>BOND
     1   135   134    2
     2   147   146    2
     3   156   155    2
     4   153   154    1
     5   146   145    1
     6   170   169    2
     7   157   154    1
     8   157   158    1
     9   165   164    2
    10   134   133    1
    11   134   144   am
    12   155   154    1
    13   155   162   am
    14   133   136    1
    15   133   132    1
    16   145   144    1
    17   145   148    1
    18   158   159    1
    19   169   168    1
    20   169   173   am
    21   164   163    1
    22   164   167   am
    23   168   167    1
    24   168   171    1
    25   136   137    1
    26   138   137   ar
    27   138   140   ar
    28   163   162    1
    29   163   166    1
    30   172   171    1
    31   119   120    2
    32   119   118    1
    33   148   149    1
    34   137   139   ar
    35   173   174    1
    36   161   159   ar
    37   159   160   ar
    38   127   126    2
    39   174   175    1
    40   176   175    2
    41   140   142   ar
    42   175   177   am
    43   124   125    1
    44   149   150    1
    45   117   118    1
    46   118   121    1
    47   180   179    2
    48   126   125    1
    49   177   178    1
    50   139   141   ar
    51   179   178    1
    52   142   141   ar
    53   142   143    1
    54   125   128    1
    55   178   181    1
    56   123   121    1
    57   128   129    1
    58   150   151    1
    59   121   122    1
    60   152   151    1
    61   107   108    2
    62   107   106    1
    63   129   130    2
    64   129   131   am
    65   181   183    1
    66   181   182    1
    67   106   105    1
    68   106   109    1
    69   110   109    1
    70    98    97    2
    71   105    97   am
    72    65    63   am
    73    97    96    1
    74   109   111    1
    75    96    95    1
    76    96    99    1
    77    63    64    2
    78    63    62    1
    79    40    39    1
    80    99   100    1
    81    62    59    1
    82   101   100   ar
    83   101   103   ar
    84   116   113    1
    85   100   102   ar
    86   112   113    1
    87    57    55   ar
    88    61    60    2
    89    41    39    1
    90    23    22    1
    91    23    24    1
    92    39    38    1
    93   103   104   ar
    94   113   114    1
    95    59    60    1
    96    59    58    1
    97   102   104   ar
    98    22    20   am
    99    60    66   am
   100    24    25    2
   101    24    26   am
   102    38    35    1
   103    55    56   ar
   104    55    54    1
   105    83    82   ar
   106    53    52    2
   107   114   115    2
   108    26    27    1
   109    58    52   am
   110    35    34    1
   111    35    36    1
   112    52    51    1
   113    72    74   ar
   114    72    71   ar
   115    20    19    1
   116    20    21    2
   117    54    51    1
   118    66    67    1
   119    27    30    1
   120    27    28    1
   121    74    76   ar
   122    82    84   ar
   123    82    81    1
   124    19    18    1
   125    67    70    1
   126    67    68    1
   127    70    71    1
   128    30    31    1
   129    37    36    2
   130    51    50    1
   131    71    73   ar
   132    32    31    1
   133    81    78    1
   134    28    29    2
   135    78    77    1
   136    78    79    1
   137    76    75   ar
   138    31    33    1
   139    18    12   am
   140    68    69    2
   141    50    44   am
   142    13    12    2
   143    73    75   ar
   144    12    11    1
   145    79    80    2
   146    44    45    2
   147    44    43    1
   148    14    11    1
   149    14    15    1
   150    94    93   ar
   151    94    92   ar
   152    11    10    1
   153    93    91   ar
   154    43    46    1
   155    43    42    1
   156    46    47    1
   157     9     7   ar
   158    92    90   ar
   159    15    16    2
   160    15    17   am
   161    48    47    2
   162    91    90   ar
   163    47    49   am
   164    85    86    1
   165     8     7   ar
   166     7     6    1
   167    90    89    1
   168     5     6    1
   169     5     2    1
   170    86    89    1
   171    86    87    1
   172     4     3    2
   173     3     2    1
   174     2     1    1
   175    87    88    2
