@<TRIPOS>MOLECULE
tmp/3npdA02.pdb
 109 101 0 0 0
SMALL
GASTEIGER

@<TRIPOS>ATOM
      1  N         22.3320   38.8440    7.5710 N.3    27  ILE27      -0.1245
      2  CA        21.9880   39.2460    6.1950 C.3    27  ILE27       0.1561
      3  C         21.1900   40.5480    6.2980 C.2    27  ILE27       0.2260
      4  O         21.3880   41.4810    5.5390 O.2    27  ILE27      -0.2867
      5  CB        21.1620   38.1530    5.4550 C.3    27  ILE27       0.0252
      6  CG1       22.0180   36.9020    5.1490 C.3    27  ILE27       0.0019
      7  CG2       20.5320   38.6770    4.1310 C.3    27  ILE27       0.0019
      8  CD1       23.3630   37.1580    4.4150 C.3    27  ILE27       0.0001
      9  N         17.3330   37.8690    9.2900 N.3    31  ILE31      -0.1245
     10  CA        17.9560   36.6510    8.7830 C.3    31  ILE31       0.1561
     11  C         19.4320   36.5920    9.1570 C.2    31  ILE31       0.2260
     12  O         20.1860   37.5100    8.8320 O.2    31  ILE31      -0.2867
     13  CB        17.7880   36.5370    7.2600 C.3    31  ILE31       0.0252
     14  CG1       16.3120   36.4350    6.8560 C.3    31  ILE31       0.0019
     15  CG2       18.4940   35.3110    6.7160 C.3    31  ILE31       0.0019
     16  CD1       16.0860   36.6980    5.4060 C.3    31  ILE31       0.0001
     17  N         22.7890   34.4120    8.3520 N.3    33  ASP33      -0.1239
     18  CA        23.4990   33.4240    7.5500 C.3    33  ASP33       0.1674
     19  C         24.3440   32.5720    8.5340 C.2    33  ASP33       0.2266
     20  O         25.3300   33.0540    9.1210 O.2    33  ASP33      -0.2867
     21  CB        24.3630   34.1320    6.5090 C.3    33  ASP33       0.1410
     22  CG        25.0980   33.1710    5.5760 C.2    33  ASP33       0.3668
     23  OD1       25.1030   31.9250    5.7700 O.co2  33  ASP33      -0.2456
     24  OD2       25.7200   33.7090    4.6390 O.co2  33  ASP33      -0.2456
     25  N         27.5350   26.9860    5.9480 N.3    36  TYR36      -0.1241
     26  CA        27.3070   25.8940    5.0270 C.3    36  TYR36       0.1605
     27  C         27.7820   24.5590    5.5240 C.2    36  TYR36       0.2264
     28  O         28.7730   24.4800    6.2580 O.2    36  TYR36      -0.2867
     29  CB        28.0760   26.1750    3.7320 C.3    36  TYR36       0.0534
     30  CG        27.6380   27.4400    3.0570 C.ar   36  TYR36      -0.0201
     31  CD1       28.0820   28.6750    3.5060 C.ar   36  TYR36      -0.0009
     32  CD2       26.8230   27.4040    1.8950 C.ar   36  TYR36      -0.0009
     33  CE1       27.6460   29.8780    2.8810 C.ar   36  TYR36       0.0417
     34  CE2       26.4500   28.5780    1.2300 C.ar   36  TYR36       0.0417
     35  CZ        26.8430   29.8100    1.7280 C.ar   36  TYR36       0.1957
     36  OH        26.4750   30.9900    1.0910 O.3    36  TYR36      -0.2866
     37  N         23.1430   25.9080    2.6380 N.3    45  ASN45      -0.1240
     38  CA        23.3220   27.1500    3.3470 C.3    45  ASN45       0.1653
     39  C         22.2120   27.1240    4.3790 C.2    45  ASN45       0.2266
     40  O         21.0110   27.0390    4.0350 O.2    45  ASN45      -0.2867
     41  CB        23.1700   28.3330    2.3550 C.3    45  ASN45       0.1155
     42  CG        23.5500   29.7000    2.9140 C.2    45  ASN45       0.2627
     43  OD1       23.3070   30.7040    2.2390 O.2    45  ASN45      -0.2716
     44  ND2       24.1000   29.7680    4.1350 N.am   45  ASN45      -0.0877
     45  N         20.1880   29.1050    7.2600 N.3    47  LEU47      -0.1245
     46  CA        19.8560   30.4440    7.6870 C.3    47  LEU47       0.1561
     47  C         18.7500   30.3740    8.7530 C.2    47  LEU47       0.2260
     48  O         17.8770   29.4720    8.6860 O.2    47  LEU47      -0.2867
     49  CB        19.4300   31.3040    6.5210 C.3    47  LEU47       0.0270
     50  CG        20.4760   31.5020    5.3930 C.3    47  LEU47       0.0019
     51  CD1       20.1360   30.5640    4.2090 C.3    47  LEU47       0.0001
     52  CD2       20.5830   32.9840    4.9880 C.3    47  LEU47       0.0001
     53  N         15.1250   33.1360   -4.6100 N.3    67  LEU67      -0.1245
     54  CA        16.3080   32.2810   -4.3630 C.3    67  LEU67       0.1561
     55  C         16.8880   31.7320   -5.6510 C.2    67  LEU67       0.2260
     56  O         18.0860   31.8100   -5.8490 O.2    67  LEU67      -0.2867
     57  CB        16.0330   31.1440   -3.3960 C.3    67  LEU67       0.0270
     58  CG        15.8020   31.5320   -1.9430 C.3    67  LEU67       0.0019
     59  CD1       15.2840   30.3430   -1.1820 C.3    67  LEU67       0.0001
     60  CD2       17.0890   32.0960   -1.2590 C.3    67  LEU67       0.0001
     61  N         18.7720   34.2910   -7.7730 N.3    70  SER70      -0.1217
     62  CA        20.0790   34.5220   -7.1460 C.3    70  SER70       0.1889
     63  C         21.0670   33.3690   -7.4440 C.2    70  SER70       0.2288
     64  O         22.1800   33.6060   -7.9360 O.2    70  SER70      -0.2866
     65  CB        19.8760   34.6960   -5.6300 C.3    70  SER70       0.2089
     66  OG        21.0760   34.9840   -4.9320 O.3    70  SER70      -0.2183
     67  N         24.5640   33.0100  -10.1130 N.3    74  ASN74      -0.1240
     68  CA        25.7890   33.0550   -9.3100 C.3    74  ASN74       0.1653
     69  C         26.8130   32.2100  -10.0610 C.2    74  ASN74       0.2266
     70  O         26.6290   30.9990  -10.2380 O.2    74  ASN74      -0.2867
     71  CB        25.5100   32.4930   -7.9230 C.3    74  ASN74       0.1155
     72  CG        26.6760   32.5900   -6.9580 C.2    74  ASN74       0.2627
     73  OD1       27.7570   32.0300   -7.1800 O.2    74  ASN74      -0.2716
     74  ND2       26.3940   33.1690   -5.7750 N.am   74  ASN74      -0.0877
     75  N         28.1790   29.2030   -8.0700 N.3    77  TYR77      -0.1241
     76  CA        27.1650   28.1550   -7.8800 C.3    77  TYR77       0.1605
     77  C         26.8670   27.4270   -9.1680 C.2    77  TYR77       0.2264
     78  O         26.6820   26.2010   -9.1400 O.2    77  TYR77      -0.2867
     79  CB        25.8840   28.6720   -7.2090 C.3    77  TYR77       0.0534
     80  CG        26.0200   29.1300   -5.7740 C.ar   77  TYR77      -0.0201
     81  CD1       27.1370   28.7910   -4.9760 C.ar   77  TYR77      -0.0009
     82  CD2       25.0240   29.9260   -5.1860 C.ar   77  TYR77      -0.0009
     83  CE1       27.2490   29.2140   -3.6480 C.ar   77  TYR77       0.0417
     84  CE2       25.1280   30.3390   -3.8050 C.ar   77  TYR77       0.0417
     85  CZ        26.2690   29.9790   -3.0730 C.ar   77  TYR77       0.1957
     86  OH        26.4450   30.3620   -1.7640 O.3    77  TYR77      -0.2866
     87  N         18.8790   25.6580    0.3170 N.3    89  TYR89      -0.1241
     88  CA        18.6840   26.6880    1.3410 C.3    89  TYR89       0.1605
     89  C         17.7860   26.1010    2.3860 C.2    89  TYR89       0.2264
     90  O         16.6490   25.7220    2.0920 O.2    89  TYR89      -0.2867
     91  CB        18.0400   27.9580    0.7820 C.3    89  TYR89       0.0534
     92  CG        19.0290   28.6640   -0.0220 C.ar   89  TYR89      -0.0201
     93  CD1       19.9220   29.5520    0.5970 C.ar   89  TYR89      -0.0009
     94  CD2       19.2020   28.3680   -1.3590 C.ar   89  TYR89      -0.0009
     95  CE1       20.9370   30.1520   -0.0970 C.ar   89  TYR89       0.0417
     96  CE2       20.2120   28.9840   -2.0870 C.ar   89  TYR89       0.0417
     97  CZ        21.0720   29.8930   -1.4490 C.ar   89  TYR89       0.1957
     98  OH        22.0770   30.5310   -2.1370 O.3    89  TYR89      -0.2866
     99  N         16.0820   27.1900    5.7840 N.3    91  PHE91      -0.1241
    100  CA        15.6860   28.2630    6.7260 C.3    91  PHE91       0.1605
    101  C         14.9460   27.6540    7.8820 C.2    91  PHE91       0.2264
    102  O         14.0100   26.8440    7.6940 O.2    91  PHE91      -0.2867
    103  CB        14.7500   29.2530    6.0540 C.3    91  PHE91       0.0534
    104  CG        15.3620   30.0520    4.9470 C.ar   91  PHE91      -0.0203
    105  CD1       15.3620   29.5630    3.6260 C.ar   91  PHE91      -0.0042
    106  CD2       15.8980   31.3320    5.1860 C.ar   91  PHE91      -0.0042
    107  CE1       15.9200   30.3280    2.5930 C.ar   91  PHE91      -0.0003
    108  CE2       16.4570   32.0760    4.1440 C.ar   91  PHE91      -0.0003
    109  CZ        16.4700   31.5710    2.8690 C.ar   91  PHE91      -0.0000
@<TRIPOS>BOND
     1    70    69    2
     2    67    68    1
     3    69    68    1
     4    68    71    1
     5    77    78    2
     6    77    76    1
     7    75    76    1
     8    64    63    2
     9    71    72    1
    10    76    79    1
    11    61    62    1
    12    63    62    1
    13    79    80    1
    14    73    72    2
    15    62    65    1
    16    72    74   am
    17    56    55    2
    18    80    82   ar
    19    80    81   ar
    20    55    54    1
    21    65    66    1
    22    82    84   ar
    23    81    83   ar
    24    53    54    1
    25    54    57    1
    26    84    85   ar
    27    83    85   ar
    28    57    58    1
    29    85    86    1
    30    98    97    1
    31    96    97   ar
    32    96    94   ar
    33    58    60    1
    34    58    59    1
    35    97    95   ar
    36    94    92   ar
    37    95    93   ar
    38    92    93   ar
    39    92    91    1
    40    87    88    1
    41    91    88    1
    42    36    35    1
    43    34    35   ar
    44    34    32   ar
    45    88    89    1
    46    35    33   ar
    47    32    30   ar
    48    90    89    2
    49    43    42    2
    50    41    42    1
    51    41    38    1
    52   107   109   ar
    53   107   105   ar
    54    37    38    1
    55   109   108   ar
    56    33    31   ar
    57    42    44   am
    58    30    31   ar
    59    30    29    1
    60    38    39    1
    61   105   104   ar
    62    29    26    1
    63    40    39    2
    64     7     5    1
    65   108   106   ar
    66    51    50    1
    67     8     6    1
    68    24    22   ar
    69   104   106   ar
    70   104   103    1
    71    52    50    1
    72    26    27    1
    73    26    25    1
    74     6     5    1
    75    50    49    1
    76    16    14    1
    77     5     2    1
    78    27    28    2
    79     4     3    2
    80    22    23   ar
    81    22    21    1
    82    99   100    1
    83   103   100    1
    84     2     3    1
    85     2     1    1
    86    21    18    1
    87    49    46    1
    88    15    13    1
    89   100   101    1
    90    14    13    1
    91    13    10    1
    92    45    46    1
    93    18    17    1
    94    18    19    1
    95    46    47    1
    96   102   101    2
    97    19    20    2
    98    48    47    2
    99    10    11    1
   100    10     9    1
   101    12    11    2
