@<TRIPOS>MOLECULE
tmp/3npkA00.pdb
 106 104 0 0 0
SMALL
GASTEIGER

@<TRIPOS>ATOM
      1  N         25.8880   14.4800   41.9910 N.3    36  GLY36      -0.1210
      2  CA        26.2830   15.8520   41.7650 C.3    36  GLY36       0.1956
      3  C         25.7010   16.6970   42.8750 C.2    36  GLY36       0.2612
      4  O         24.5070   16.6150   43.1760 O.2    36  GLY36      -0.2717
      5  N         26.5440   17.5120   43.4930 N.am   37  LYS37      -0.1965
      6  CA        26.0890   18.3970   44.5580 C.3    37  LYS37       0.1728
      7  C         25.3190   19.6070   44.0200 C.2    37  LYS37       0.2616
      8  O         24.6660   20.3230   44.7870 O.2    37  LYS37      -0.2715
      9  CB        27.2770   18.8430   45.4140 C.3    37  LYS37       0.0311
     10  CG        27.9780   17.6880   46.1290 C.3    37  LYS37       0.0038
     11  CD        29.2460   18.1470   46.8630 C.3    37  LYS37       0.0206
     12  CE        30.3950   18.4540   45.9000 C.3    37  LYS37       0.1093
     13  NZ        30.7730   17.2700   45.0670 N.3    37  LYS37      -0.1314
     14  N         25.3860   19.8050   42.7030 N.am   38  HIS38      -0.1959
     15  CA        24.7380   20.9430   42.0250 C.3    38  HIS38       0.1787
     16  C         25.1420   22.2810   42.5950 C.2    38  HIS38       0.2620
     17  O         24.3320   23.2080   42.6320 O.2    38  HIS38      -0.2715
     18  CB        23.2150   20.8540   42.0590 C.3    38  HIS38       0.0785
     19  CG        22.6730   19.5740   41.5260 C.ar   38  HIS38       0.0821
     20  ND1       23.2400   18.8890   40.4700 N.ar   38  HIS38      -0.2267
     21  CD2       21.5950   18.8550   41.9070 C.ar   38  HIS38       0.1154
     22  CE1       22.5360   17.7940   40.2330 C.ar   38  HIS38       0.1986
     23  NE2       21.5330   17.7520   41.0900 N.ar   38  HIS38      -0.2212
     24  N         26.3880   22.3810   43.0350 N.am   39  PHE39      -0.1960
     25  CA        26.9120   23.6140   43.6240 C.3    39  PHE39       0.1771
     26  C         26.7340   24.7960   42.6620 C.2    39  PHE39       0.2619
     27  O         26.2960   25.8780   43.0660 O.2    39  PHE39      -0.2715
     28  CB        28.3940   23.3880   43.9880 C.3    39  PHE39       0.0574
     29  CG        29.1180   24.6090   44.4890 C.ar   39  PHE39      -0.0200
     30  CD1       28.8010   25.1780   45.7210 C.ar   39  PHE39      -0.0042
     31  CD2       30.1580   25.1590   43.7530 C.ar   39  PHE39      -0.0042
     32  CE1       29.5030   26.2940   46.1890 C.ar   39  PHE39      -0.0003
     33  CE2       30.8520   26.2660   44.2140 C.ar   39  PHE39      -0.0003
     34  CZ        30.5270   26.8330   45.4250 C.ar   39  PHE39      -0.0000
     35  N         27.0590   24.5970   41.3890 N.am   40  ARG40      -0.1977
     36  CA        26.9620   25.7030   40.4430 C.3    40  ARG40       0.1597
     37  C         25.5070   26.1370   40.2320 C.2    40  ARG40       0.2287
     38  O         25.1880   27.3390   40.2870 O.2    40  ARG40      -0.2864
     39  CB        27.6480   25.3330   39.1300 C.3    40  ARG40       0.0334
     40  CG        29.1470   25.1370   39.3330 C.3    40  ARG40       0.0492
     41  CD        29.8070   24.2650   38.2770 C.3    40  ARG40       0.2205
     42  NE        31.2120   24.0040   38.6120 N.pl3  40  ARG40      -0.0865
     43  CZ        31.6280   23.1010   39.5020 C.cat  40  ARG40       0.5346
     44  NH1       30.7530   22.3390   40.1480 N.pl3  40  ARG40       0.1354
     45  NH2       32.9330   22.9460   39.7440 N.pl3  40  ARG40       0.1354
     46  N         24.6390   22.8760   34.7720 N.3    67  GLU67      -0.1245
     47  CA        24.9220   21.5020   35.1680 C.3    67  GLU67       0.1567
     48  C         25.1430   20.5820   33.9550 C.2    67  GLU67       0.2260
     49  O         25.8990   19.6070   34.0540 O.2    67  GLU67      -0.2867
     50  CB        23.8420   20.9770   36.1200 C.3    67  GLU67       0.0388
     51  CG        23.8490   21.7480   37.4300 C.3    67  GLU67       0.1160
     52  CD        25.1040   21.5200   38.3000 C.2    67  GLU67       0.3649
     53  OE1       25.7270   20.4280   38.2550 O.co2  67  GLU67      -0.2457
     54  OE2       25.4570   22.4450   39.0570 O.co2  67  GLU67      -0.2457
     55  N         28.7310   21.2920   33.1660 N.3    70  HIS70      -0.1241
     56  CA        29.5870   20.6850   34.1690 C.3    70  HIS70       0.1621
     57  C         29.6520   19.1630   33.9850 C.2    70  HIS70       0.2264
     58  O         30.7330   18.5600   34.0250 O.2    70  HIS70      -0.2867
     59  CB        29.1100   21.0840   35.5600 C.3    70  HIS70       0.0745
     60  CG        29.9500   20.5200   36.6520 C.ar   70  HIS70       0.0817
     61  ND1       29.4490   19.7060   37.6420 N.ar   70  HIS70      -0.2268
     62  CD2       31.2770   20.6310   36.8840 C.ar   70  HIS70       0.1154
     63  CE1       30.4300   19.3630   38.4600 C.ar   70  HIS70       0.1986
     64  NE2       31.5520   19.8980   38.0110 N.ar   70  HIS70      -0.2212
     65  N         32.8880   16.5410   33.0540 N.3    74  LEU74      -0.1245
     66  CA        33.3070   15.4010   33.8570 C.3    74  LEU74       0.1561
     67  C         33.4360   14.1480   33.0000 C.2    74  LEU74       0.2260
     68  O         34.3820   13.3810   33.1620 O.2    74  LEU74      -0.2867
     69  CB        32.3260   15.1350   34.9930 C.3    74  LEU74       0.0270
     70  CG        32.1190   16.2850   35.9820 C.3    74  LEU74       0.0019
     71  CD1       31.2080   15.8540   37.1080 C.3    74  LEU74       0.0001
     72  CD2       33.4450   16.8270   36.5340 C.3    74  LEU74       0.0001
     73  N         32.5700    7.5180   38.6580 N.3    87  ARG87      -0.1231
     74  CA        32.2370    8.9260   38.8810 C.3    87  ARG87       0.1694
     75  C         30.8350    8.9750   39.4950 C.2    87  ARG87       0.2591
     76  O         29.9410    8.2620   39.0560 O.2    87  ARG87      -0.2718
     77  CB        32.2730    9.6960   37.5560 C.3    87  ARG87       0.0321
     78  CG        31.6180   11.0890   37.5780 C.3    87  ARG87       0.0489
     79  CD        32.4550   12.1120   38.2990 C.3    87  ARG87       0.2205
     80  NE        33.6510   12.4500   37.5400 N.pl3  87  ARG87      -0.0865
     81  CZ        34.4780   13.4370   37.8590 C.cat  87  ARG87       0.5346
     82  NH1       35.5460   13.6550   37.1090 N.pl3  87  ARG87       0.1354
     83  NH2       34.2370   14.2060   38.9230 N.pl3  87  ARG87       0.1354
     84  N         30.6530    9.7980   40.5200 N.am   88  ARG88      -0.1980
     85  CA        29.3460    9.9440   41.1710 C.3    88  ARG88       0.1597
     86  C         28.7530    8.5980   41.6160 C.2    88  ARG88       0.2287
     87  O         27.5310    8.3930   41.6180 O.2    88  ARG88      -0.2864
     88  CB        28.3790   10.7150   40.2650 C.3    88  ARG88       0.0334
     89  CG        28.7430   12.1870   40.1380 C.3    88  ARG88       0.0492
     90  CD        27.9590   12.8830   39.0330 C.3    88  ARG88       0.2205
     91  NE        28.1650   14.3280   39.0700 N.pl3  88  ARG88      -0.0865
     92  CZ        27.6540   15.1740   38.1760 C.cat  88  ARG88       0.5346
     93  NH1       26.8900   14.7210   37.1840 N.pl3  88  ARG88       0.1354
     94  NH2       27.9050   16.4700   38.2640 N.pl3  88  ARG88       0.1354
     95  N         30.9620   22.9550   50.8650 N.3   259  TYR259     -0.1241
     96  CA        32.0260   22.5530   49.9500 C.3   259  TYR259      0.1605
     97  C         33.3130   22.2270   50.6970 C.2   259  TYR259      0.2264
     98  O         33.8960   21.1600   50.5010 O.2   259  TYR259     -0.2867
     99  CB        32.2650   23.6290   48.8880 C.3   259  TYR259      0.0534
    100  CG        32.6350   23.0660   47.5330 C.ar  259  TYR259     -0.0201
    101  CD1       31.6540   22.7760   46.5890 C.ar  259  TYR259     -0.0009
    102  CD2       33.9570   22.8240   47.2020 C.ar  259  TYR259     -0.0009
    103  CE1       31.9800   22.2600   45.3520 C.ar  259  TYR259      0.0417
    104  CE2       34.3000   22.3090   45.9600 C.ar  259  TYR259      0.0417
    105  CZ        33.3060   22.0300   45.0410 C.ar  259  TYR259      0.1957
    106  OH        33.6400   21.5240   43.8070 O.3   259  TYR259     -0.2866
@<TRIPOS>BOND
     1    67    68    2
     2    67    66    1
     3    65    66    1
     4    55    56    1
     5    66    69    1
     6    48    49    2
     7    48    47    1
     8    57    58    2
     9    57    56    1
    10    56    59    1
    11    46    47    1
    12    69    70    1
    13    47    50    1
    14    59    60    1
    15    70    72    1
    16    70    71    1
    17    50    51    1
    18    60    62   ar
    19    60    61   ar
    20    62    64   ar
    21    82    81    1
    22    93    92    1
    23    51    52    1
    24    80    81    2
    25    80    79    1
    26    77    78    1
    27    77    74    1
    28    78    79    1
    29    61    63   ar
    30    81    83    1
    31    64    63   ar
    32    92    94    1
    33    92    91    2
    34    53    52   ar
    35    41    42    1
    36    41    40    1
    37    52    54   ar
    38    42    43    2
    39    73    74    1
    40    74    75    1
    41    90    91    1
    42    90    89    1
    43    76    75    2
    44    39    40    1
    45    39    36    1
    46    75    84   am
    47    43    45    1
    48    43    44    1
    49    89    88    1
    50    37    38    2
    51    37    36    1
    52    22    20   ar
    53    22    23   ar
    54    88    85    1
    55    36    35    1
    56    20    19   ar
    57    84    85    1
    58    23    21   ar
    59    85    86    1
    60    35    26   am
    61    19    21   ar
    62    19    18    1
    63    86    87    2
    64     2     1    1
    65     2     3    1
    66    15    18    1
    67    15    16    1
    68    15    14    1
    69    16    17    2
    70    16    24   am
    71    26    27    2
    72    26    25    1
    73    14     7   am
    74     3     4    2
    75     3     5   am
    76    24    25    1
    77     5     6    1
    78    25    28    1
    79    31    33   ar
    80    31    29   ar
    81   106   105    1
    82    28    29    1
    83     7     6    1
    84     7     8    2
    85    33    34   ar
    86    29    30   ar
    87     6     9    1
    88   105   103   ar
    89   105   104   ar
    90    13    12    1
    91   103   101   ar
    92     9    10    1
    93    34    32   ar
    94    30    32   ar
    95    12    11    1
    96   104   102   ar
    97    10    11    1
    98   101   100   ar
    99   102   100   ar
   100   100    99    1
   101    99    96    1
   102    96    97    1
   103    96    95    1
   104    98    97    2
