@<TRIPOS>MOLECULE
tmp/3nq1B00.pdb
 90 86 0 0 0
SMALL
GASTEIGER

@<TRIPOS>ATOM
      1  N        -34.8360  -12.3020  -30.7030 N.3   155  GLU155     -0.1245
      2  CA       -35.0650  -10.9260  -30.2740 C.3   155  GLU155      0.1567
      3  C        -34.1680   -9.8810  -30.9340 C.2   155  GLU155      0.2260
      4  O        -34.5420   -8.7080  -31.0200 O.2   155  GLU155     -0.2867
      5  CB       -34.9240  -10.8140  -28.7530 C.3   155  GLU155      0.0388
      6  CG       -36.0190  -11.5090  -27.9660 C.3   155  GLU155      0.1160
      7  CD       -36.0190  -11.1120  -26.5000 C.2   155  GLU155      0.3649
      8  OE1      -34.9820  -11.3010  -25.8290 O.co2 155  GLU155     -0.2457
      9  OE2      -37.0560  -10.6100  -26.0180 O.co2 155  GLU155     -0.2457
     10  N        -35.1920    1.2020  -16.2180 N.3   181  MET181     -0.1245
     11  CA       -35.6070    0.5620  -17.4580 C.3   181  MET181      0.1570
     12  C        -36.9500    1.0320  -17.9960 C.2   181  MET181      0.2261
     13  O        -37.1760    0.9960  -19.2040 O.2   181  MET181     -0.2867
     14  CB       -35.6740   -0.9510  -17.2700 C.3   181  MET181      0.0387
     15  CG       -34.3280   -1.6340  -17.2120 C.3   181  MET181      0.0595
     16  SD       -34.5070   -3.3980  -16.9180 S.3   181  MET181     -0.1393
     17  CE       -35.6740   -3.8330  -18.2240 C.3   181  MET181      0.0692
     18  N        -31.3050    1.0330  -24.9470 N.3   193  GLY193     -0.1210
     19  CA       -32.0360   -0.0250  -25.6270 C.3   193  GLY193      0.1956
     20  C        -33.2440   -0.6510  -24.9580 C.2   193  GLY193      0.2611
     21  O        -33.6960   -1.7170  -25.3860 O.2   193  GLY193     -0.2717
     22  N        -33.7940   -0.0160  -23.9340 N.am  194  PHE194     -0.1976
     23  CA       -34.9370   -0.6170  -23.2640 C.3   194  PHE194      0.1639
     24  C        -36.3250   -0.2760  -23.8090 C.2   194  PHE194      0.2290
     25  O        -37.2880   -0.9840  -23.5230 O.2   194  PHE194     -0.2864
     26  CB       -34.8420   -0.3420  -21.7610 C.3   194  PHE194      0.0560
     27  CG       -33.7580   -1.1300  -21.0880 C.ar  194  PHE194     -0.0200
     28  CD1      -33.8420   -2.5180  -21.0110 C.ar  194  PHE194     -0.0042
     29  CD2      -32.6270   -0.5020  -20.5850 C.ar  194  PHE194     -0.0042
     30  CE1      -32.8100   -3.2660  -20.4430 C.ar  194  PHE194     -0.0003
     31  CE2      -31.5950   -1.2360  -20.0200 C.ar  194  PHE194     -0.0003
     32  CZ       -31.6800   -2.6180  -19.9500 C.ar  194  PHE194     -0.0000
     33  N        -37.3530   -2.9350  -26.0800 N.3   197  GLY197     -0.1210
     34  CA       -36.1500   -3.7410  -26.1050 C.3   197  GLY197      0.1940
     35  C        -36.2480   -5.0590  -26.8440 C.2   197  GLY197      0.2453
     36  O        -37.3340   -5.6220  -26.9660 O.2   197  GLY197     -0.2732
     37  N        -35.1170   -5.5730  -27.3590 N.am  198  PRO198     -0.2728
     38  CA       -33.8120   -4.9170  -27.2390 C.3   198  PRO198      0.1401
     39  C        -33.5130   -4.0020  -28.4310 C.2   198  PRO198      0.2269
     40  O        -33.5890   -4.4270  -29.5860 O.2   198  PRO198     -0.2865
     41  CB       -32.8510   -6.0960  -27.1700 C.3   198  PRO198      0.0296
     42  CG       -33.4690   -7.0600  -28.1410 C.3   198  PRO198      0.0237
     43  CD       -34.9670   -6.9640  -27.8320 C.3   198  PRO198      0.0939
     44  N        -28.3800   -2.2890  -26.3000 N.3   202  ASN202     -0.1240
     45  CA       -28.7060   -3.6540  -25.8830 C.3   202  ASN202      0.1653
     46  C        -28.7940   -4.5820  -27.0780 C.2   202  ASN202      0.2266
     47  O        -28.4470   -5.7620  -26.9870 O.2   202  ASN202     -0.2867
     48  CB       -30.0600   -3.7090  -25.1600 C.3   202  ASN202      0.1155
     49  CG       -30.0270   -3.0720  -23.7910 C.2   202  ASN202      0.2627
     50  OD1      -31.0740   -2.8620  -23.1770 O.2   202  ASN202     -0.2716
     51  ND2      -28.8360   -2.7690  -23.3000 N.am  202  ASN202     -0.0877
     52  N        -25.3450   -5.8060  -28.3510 N.3   205  HIS205     -0.1226
     53  CA       -24.8530   -6.8260  -27.4420 C.3   205  HIS205      0.1752
     54  C        -25.5280   -8.1490  -27.7990 C.2   205  HIS205      0.2595
     55  O        -24.8690   -9.1540  -28.0320 O.2   205  HIS205     -0.2718
     56  CB       -25.1860   -6.4600  -25.9860 C.3   205  HIS205      0.0759
     57  CG       -24.2330   -5.4830  -25.3610 C.ar  205  HIS205      0.0818
     58  ND1      -22.9580   -5.8270  -24.9680 N.ar  205  HIS205     -0.2268
     59  CD2      -24.3950   -4.1860  -25.0070 C.ar  205  HIS205      0.1154
     60  CE1      -22.3770   -4.7900  -24.3950 C.ar  205  HIS205      0.1986
     61  NE2      -23.2290   -3.7810  -24.4050 N.ar  205  HIS205     -0.2212
     62  N        -26.8530   -8.1280  -27.8560 N.am  206  ARG206     -0.1980
     63  CA       -27.6290   -9.3130  -28.1790 C.3   206  ARG206      0.1597
     64  C        -27.2870   -9.8810  -29.5550 C.2   206  ARG206      0.2287
     65  O        -27.2240  -11.0960  -29.7200 O.2   206  ARG206     -0.2864
     66  CB       -29.1210   -8.9890  -28.1130 C.3   206  ARG206      0.0334
     67  CG       -29.6190   -8.5980  -26.7350 C.3   206  ARG206      0.0492
     68  CD       -30.1110   -9.8050  -25.9700 C.3   206  ARG206      0.2205
     69  NE       -29.0360  -10.6830  -25.5300 N.pl3 206  ARG206     -0.0865
     70  CZ       -29.2240  -11.9410  -25.1380 C.cat 206  ARG206      0.5346
     71  NH1      -30.4440  -12.4600  -25.1420 N.pl3 206  ARG206      0.1354
     72  NH2      -28.1990  -12.6710  -24.7210 N.pl3 206  ARG206      0.1354
     73  N        -23.1630  -11.0020  -25.2200 N.3   213  GLY213     -0.1210
     74  CA       -24.5870  -11.0460  -24.9540 C.3   213  GLY213      0.1956
     75  C        -25.0190  -10.9210  -23.5110 C.2   213  GLY213      0.2612
     76  O        -26.1940  -10.6900  -23.2500 O.2   213  GLY213     -0.2717
     77  N        -24.0890  -11.0660  -22.5710 N.am  214  VAL214     -0.1965
     78  CA       -24.4380  -10.9630  -21.1570 C.3   214  VAL214      0.1727
     79  C        -23.5420   -9.9990  -20.3830 C.2   214  VAL214      0.2616
     80  O        -22.3270   -9.9360  -20.6020 O.2   214  VAL214     -0.2715
     81  CB       -24.4090  -12.3450  -20.4600 C.3   214  VAL214      0.0290
     82  CG1      -25.4400  -13.2680  -21.1020 C.3   214  VAL214      0.0023
     83  CG2      -23.0170  -12.9450  -20.5450 C.3   214  VAL214      0.0023
     84  N        -24.1610   -9.2690  -19.4620 N.am  215  VAL215     -0.1977
     85  CA       -23.4780   -8.2750  -18.6430 C.3   215  VAL215      0.1596
     86  C        -22.1840   -8.6980  -17.9400 C.2   215  VAL215      0.2287
     87  O        -21.1530   -8.0480  -18.0940 O.2   215  VAL215     -0.2864
     88  CB       -24.4390   -7.6890  -17.5740 C.3   215  VAL215      0.0276
     89  CG1      -23.6600   -6.8390  -16.5720 C.3   215  VAL215      0.0022
     90  CG2      -25.5190   -6.8480  -18.2520 C.3   215  VAL215      0.0022
@<TRIPOS>BOND
     1     4     3    2
     2     3     2    1
     3     1     2    1
     4     2     5    1
     5    65    64    2
     6    40    39    2
     7    64    63    1
     8     5     6    1
     9    39    38    1
    10    52    53    1
    11    63    66    1
    12    63    62    1
    13    42    43    1
    14    42    41    1
    15    66    67    1
    16    55    54    2
    17     6     7    1
    18    62    54   am
    19    43    37    1
    20    54    53    1
    21    53    56    1
    22    37    38    1
    23    37    35   am
    24    38    41    1
    25    46    47    2
    26    46    45    1
    27    36    35    2
    28    35    34    1
    29    67    68    1
    30     7     9   ar
    31     7     8   ar
    32    44    45    1
    33    34    33    1
    34    56    57    1
    35    68    69    1
    36    45    48    1
    37    19    20    1
    38    19    18    1
    39    69    70    2
    40    21    20    2
    41    57    59   ar
    42    57    58   ar
    43    73    74    1
    44    48    49    1
    45    71    70    1
    46    70    72    1
    47    59    61   ar
    48    58    60   ar
    49    20    22   am
    50    74    75    1
    51    61    60   ar
    52    22    23    1
    53    24    25    2
    54    24    23    1
    55    49    51   am
    56    49    50    2
    57    75    76    2
    58    75    77   am
    59    23    26    1
    60    77    78    1
    61    26    27    1
    62    78    81    1
    63    78    79    1
    64    82    81    1
    65    27    28   ar
    66    27    29   ar
    67    28    30   ar
    68    80    79    2
    69    29    31   ar
    70    83    81    1
    71    30    32   ar
    72    79    84   am
    73    31    32   ar
    74    84    85    1
    75    13    12    2
    76    85    86    1
    77    85    88    1
    78    90    88    1
    79    17    16    1
    80    87    86    2
    81    12    11    1
    82    88    89    1
    83    11    14    1
    84    11    10    1
    85    14    15    1
    86    15    16    1
