@<TRIPOS>MOLECULE
tmp/3nq3A00.pdb
 133 119 0 0 0
SMALL
GASTEIGER

@<TRIPOS>ATOM
      1  N         21.6970  -11.5010   -5.7670 N.3    15  VAL15      -0.1245
      2  CA        21.0350  -11.3570   -4.4740 C.3    15  VAL15       0.1561
      3  C         19.7160  -12.1410   -4.4990 C.2    15  VAL15       0.2260
      4  O         18.9830  -12.1480   -3.5240 O.2    15  VAL15      -0.2867
      5  CB        20.7660   -9.8810   -4.0870 C.3    15  VAL15       0.0252
      6  CG1       22.0630   -9.0900   -4.1090 C.3    15  VAL15       0.0019
      7  CG2       19.7090   -9.2640   -4.9610 C.3    15  VAL15       0.0019
      8  N          4.3950    1.8830    9.0220 N.3    38  PRO38      -0.2102
      9  CA         4.6460    1.9190    7.5720 C.3    38  PRO38       0.1504
     10  C          5.8460    1.1050    7.0330 C.2    38  PRO38       0.2575
     11  O          5.6810    0.3950    6.0320 O.2    38  PRO38      -0.2718
     12  CB         4.7630    3.4240    7.2470 C.3    38  PRO38       0.0282
     13  CG         4.6350    4.1450    8.5310 C.3    38  PRO38       0.0208
     14  CD         4.1000    3.2210    9.5640 C.3    38  PRO38       0.0893
     15  N          7.0170    1.1820    7.6700 N.am   39  LEU39      -0.1980
     16  CA         8.2140    0.4840    7.1560 C.3    39  LEU39       0.1596
     17  C          8.5860   -0.7990    7.8930 C.2    39  LEU39       0.2287
     18  O          9.6520   -1.3640    7.6630 O.2    39  LEU39      -0.2864
     19  CB         9.4210    1.4300    7.1090 C.3    39  LEU39       0.0297
     20  CG         9.5370    2.5390    6.0480 C.3    39  LEU39       0.0022
     21  CD1        9.0270    2.0910    4.7100 C.3    39  LEU39       0.0001
     22  CD2        8.7830    3.7730    6.4710 C.3    39  LEU39       0.0001
     23  N          8.4150   -3.9350    7.5080 N.3    41  VAL41      -0.1245
     24  CA         8.1640   -4.8880    6.4390 C.3    41  VAL41       0.1561
     25  C          9.1550   -6.0100    6.5940 C.2    41  VAL41       0.2260
     26  O         10.2960   -5.7760    7.0020 O.2    41  VAL41      -0.2867
     27  CB         8.1790   -4.2580    5.0090 C.3    41  VAL41       0.0252
     28  CG1        7.0450   -3.2940    4.8970 C.3    41  VAL41       0.0019
     29  CG2        9.5380   -3.5670    4.6720 C.3    41  VAL41       0.0019
     30  N         11.0720   -9.0350    4.7790 N.3    43  VAL43      -0.1245
     31  CA        11.4300   -9.4660    3.4620 C.3    43  VAL43       0.1561
     32  C         11.3730  -10.9940    3.4090 C.2    43  VAL43       0.2260
     33  O         11.8480  -11.6630    4.3300 O.2    43  VAL43      -0.2867
     34  CB        12.8090   -8.9800    3.0400 C.3    43  VAL43       0.0252
     35  CG1       13.1260   -9.5090    1.6700 C.3    43  VAL43       0.0019
     36  CG2       12.8530   -7.4270    3.0390 C.3    43  VAL43       0.0019
     37  N         13.9940  -12.0280   -2.7740 N.3    46  LEU46      -0.1245
     38  CA        14.3820  -11.0500   -3.7950 C.3    46  LEU46       0.1561
     39  C         14.4400  -11.7160   -5.1680 C.2    46  LEU46       0.2260
     40  O         15.1680  -12.6780   -5.3520 O.2    46  LEU46      -0.2867
     41  CB        15.7250  -10.3890   -3.4410 C.3    46  LEU46       0.0270
     42  CG        15.7590   -9.5210   -2.1650 C.3    46  LEU46       0.0019
     43  CD1       17.1230   -8.8850   -1.9980 C.3    46  LEU46       0.0001
     44  CD2       14.6710   -8.4850   -2.1790 C.3    46  LEU46       0.0001
     45  N         14.1950   -4.9160   -9.6670 N.3    54  LEU54      -0.1245
     46  CA        14.2140   -5.7530   -8.4510 C.3    54  LEU54       0.1561
     47  C         12.8190   -5.9670   -7.8880 C.2    54  LEU54       0.2260
     48  O         12.2090   -5.0610   -7.3380 O.2    54  LEU54      -0.2867
     49  CB        15.1600   -5.1830   -7.3740 C.3    54  LEU54       0.0270
     50  CG        15.3960   -6.0220   -6.1000 C.3    54  LEU54       0.0019
     51  CD1       16.1120   -7.3610   -6.4050 C.3    54  LEU54       0.0001
     52  CD2       16.1960   -5.2030   -5.0560 C.3    54  LEU54       0.0001
     53  N         10.3380   -7.3780   -5.1660 N.3    56  ILE56      -0.1245
     54  CA        10.4550   -7.7190   -3.7690 C.3    56  ILE56       0.1561
     55  C          9.1430   -8.3440   -3.2880 C.2    56  ILE56       0.2260
     56  O          8.0910   -7.7250   -3.3920 O.2    56  ILE56      -0.2867
     57  CB        10.8720   -6.5090   -2.8950 C.3    56  ILE56       0.0252
     58  CG1       12.0650   -5.7610   -3.5420 C.3    56  ILE56       0.0019
     59  CG2       11.2870   -6.9840   -1.4990 C.3    56  ILE56       0.0019
     60  CD1       12.0230   -4.2500   -3.3120 C.3    56  ILE56       0.0001
     61  N          7.3510   -9.4910    0.1540 N.3    58  LEU58      -0.1245
     62  CA         7.4340   -9.3200    1.6060 C.3    58  LEU58       0.1561
     63  C          6.1070   -9.4950    2.3410 C.2    58  LEU58       0.2260
     64  O          5.0510   -9.5830    1.7200 O.2    58  LEU58      -0.2867
     65  CB         8.0880   -7.9690    1.9620 C.3    58  LEU58       0.0270
     66  CG         7.5720   -6.5780    1.5450 C.3    58  LEU58       0.0019
     67  CD1        7.8710   -6.1970    0.1120 C.3    58  LEU58       0.0001
     68  CD2        6.1390   -6.3520    1.8490 C.3    58  LEU58       0.0001
     69  N          6.4110   -5.7980   -4.2440 N.3    71  ILE71      -0.1245
     70  CA         6.9450   -4.4880   -4.5820 C.3    71  ILE71       0.1561
     71  C          7.8920   -4.6530   -5.7760 C.2    71  ILE71       0.2260
     72  O          8.7050   -5.5950   -5.8030 O.2    71  ILE71      -0.2867
     73  CB         7.7180   -3.8950   -3.3540 C.3    71  ILE71       0.0252
     74  CG1        6.7560   -3.5550   -2.2070 C.3    71  ILE71       0.0019
     75  CG2        8.5070   -2.6540   -3.7180 C.3    71  ILE71       0.0019
     76  CD1        5.4270   -2.8950   -2.6270 C.3    71  ILE71       0.0001
     77  N         11.1770    2.9370   -6.2630 N.3    84  ILE84      -0.1245
     78  CA         9.8190    2.3790   -6.1340 C.3    84  ILE84       0.1561
     79  C          8.7920    3.4520   -6.4790 C.2    84  ILE84       0.2260
     80  O          8.7650    4.5160   -5.8700 O.2    84  ILE84      -0.2867
     81  CB         9.5610    1.7950   -4.6960 C.3    84  ILE84       0.0252
     82  CG1       10.4600    0.5840   -4.4450 C.3    84  ILE84       0.0019
     83  CG2        8.0790    1.4420   -4.4880 C.3    84  ILE84       0.0019
     84  CD1       10.6570    0.2850   -2.9910 C.3    84  ILE84       0.0001
     85  N         15.4660    2.5790   -2.9420 N.3    92  VAL92      -0.1245
     86  CA        16.1400    1.4750   -2.2920 C.3    92  VAL92       0.1561
     87  C         17.6060    1.5490   -2.6430 C.2    92  VAL92       0.2260
     88  O         17.9480    1.5810   -3.8180 O.2    92  VAL92      -0.2867
     89  CB        15.5530    0.1430   -2.7660 C.3    92  VAL92       0.0252
     90  CG1       16.2620   -1.0020   -2.1640 C.3    92  VAL92       0.0019
     91  CG2       14.1310    0.0960   -2.3960 C.3    92  VAL92       0.0019
     92  N         21.2640   -0.4570   -1.9670 N.3    94  VAL94      -0.1245
     93  CA        22.0280   -1.5890   -1.4330 C.3    94  VAL94       0.1561
     94  C         23.4000   -1.0960   -0.9260 C.2    94  VAL94       0.2260
     95  O         24.1930   -0.5990   -1.7270 O.2    94  VAL94      -0.2867
     96  CB        22.1970   -2.6900   -2.5290 C.3    94  VAL94       0.0252
     97  CG1       23.0810   -3.8120   -2.0400 C.3    94  VAL94       0.0019
     98  CG2       20.7990   -3.1770   -3.0050 C.3    94  VAL94       0.0019
     99  N         22.8700   -9.0500    3.5100 N.3   103  LEU103     -0.1245
    100  CA        22.6770   -7.9160    2.6420 C.3   103  LEU103      0.1561
    101  C         22.1820   -6.7600    3.5150 C.2   103  LEU103      0.2260
    102  O         21.2610   -6.9370    4.2920 O.2   103  LEU103     -0.2867
    103  CB        21.6630   -8.2290    1.5300 C.3   103  LEU103      0.0270
    104  CG        21.5210   -7.1660    0.4400 C.3   103  LEU103      0.0019
    105  CD1       21.3400   -7.7750   -0.9930 C.3   103  LEU103      0.0001
    106  CD2       20.3790   -6.1720    0.7570 C.3   103  LEU103      0.0001
    107  N         20.5280   -2.9430    3.3050 N.3   105  PHE105     -0.1241
    108  CA        19.8840   -1.9950    2.4230 C.3   105  PHE105      0.1605
    109  C         19.1210   -0.9540    3.2210 C.2   105  PHE105      0.2264
    110  O         18.7570   -1.2060    4.3970 O.2   105  PHE105     -0.2867
    111  CB        18.9180   -2.6770    1.4270 C.3   105  PHE105      0.0534
    112  CG        17.5580   -3.0150    2.0070 C.ar  105  PHE105     -0.0203
    113  CD1       16.5220   -2.0870    1.9760 C.ar  105  PHE105     -0.0042
    114  CD2       17.3280   -4.2730    2.5630 C.ar  105  PHE105     -0.0042
    115  CE1       15.2780   -2.4060    2.5140 C.ar  105  PHE105     -0.0003
    116  CE2       16.1040   -4.6030    3.0870 C.ar  105  PHE105     -0.0003
    117  CZ        15.0710   -3.6970    3.0610 C.ar  105  PHE105     -0.0000
    118  N         15.9130    2.2410    2.6820 N.3   107  MET107     -0.1245
    119  CA        14.8560    2.8210    1.8920 C.3   107  MET107      0.1570
    120  C         14.7040    4.2300    2.4080 C.2   107  MET107      0.2261
    121  O         14.5670    4.4240    3.6270 O.2   107  MET107     -0.2867
    122  CB        13.5300    2.1030    2.1520 C.3   107  MET107      0.0387
    123  CG        13.5410    0.5780    2.0460 C.3   107  MET107      0.0595
    124  SD        12.1270   -0.2190    2.9090 S.3   107  MET107     -0.1393
    125  CE        12.8130   -0.4390    4.5650 C.3   107  MET107      0.0692
    126  N         19.6480   -8.0120    6.2560 N.3   122  LEU122     -0.1245
    127  CA        19.0600   -9.2170    5.6900 C.3   122  LEU122      0.1561
    128  C         20.0770  -10.2920    5.8050 C.2   122  LEU122      0.2260
    129  O         21.2740  -10.0740    5.5630 O.2   122  LEU122     -0.2867
    130  CB        18.7760   -9.0300    4.2190 C.3   122  LEU122      0.0270
    131  CG        17.6910   -8.0610    3.8520 C.3   122  LEU122      0.0019
    132  CD1       17.4030   -8.1550    2.3650 C.3   122  LEU122      0.0001
    133  CD2       16.4500   -8.3190    4.6800 C.3   122  LEU122      0.0001
@<TRIPOS>BOND
     1    45    46    1
     2    46    47    1
     3    46    49    1
     4    47    48    2
     5    49    50    1
     6    79    78    1
     7    79    80    2
     8    51    50    1
     9    77    78    1
    10    78    81    1
    11    50    52    1
    12    72    71    2
    13    71    70    1
    14     1     2    1
    15    40    39    2
    16    39    38    1
    17    53    54    1
    18     7     5    1
    19    81    83    1
    20    81    82    1
    21    70    69    1
    22    70    73    1
    23     3     2    1
    24     3     4    2
    25     2     5    1
    26    82    84    1
    27     6     5    1
    28    88    87    2
    29    38    41    1
    30    38    37    1
    31    54    55    1
    32    54    57    1
    33    75    73    1
    34    58    60    1
    35    58    57    1
    36    41    42    1
    37    56    55    2
    38    73    74    1
    39    98    96    1
    40    85    86    1
    41    57    59    1
    42    89    91    1
    43    89    86    1
    44    89    90    1
    45    87    86    1
    46    76    74    1
    47    96    97    1
    48    96    93    1
    49    44    42    1
    50    42    43    1
    51    92    93    1
    52    95    94    2
    53    93    94    1
    54   105   104    1
    55    67    66    1
    56    61    62    1
    57   104   106    1
    58   104   103    1
    59   111   112    1
    60   111   108    1
    61   103   100    1
    62    66    68    1
    63    66    65    1
    64    62    65    1
    65    62    63    1
    66    35    34    1
    67    64    63    2
    68   119   122    1
    69   119   120    1
    70   119   118    1
    71   113   112   ar
    72   113   115   ar
    73   112   114   ar
    74   123   122    1
    75   123   124    1
    76   132   131    1
    77   120   121    2
    78   108   109    1
    79   108   107    1
    80   115   117   ar
    81   114   116   ar
    82   100    99    1
    83   100   101    1
    84   124   125    1
    85    36    34    1
    86    34    31    1
    87   117   116   ar
    88   109   110    2
    89    32    31    1
    90    32    33    2
    91    31    30    1
    92   101   102    2
    93   131   130    1
    94   131   133    1
    95   130   127    1
    96    29    27    1
    97    21    20    1
    98    28    27    1
    99    27    24    1
   100   129   128    2
   101   127   128    1
   102   127   126    1
   103    11    10    2
   104    20    22    1
   105    20    19    1
   106    24    25    1
   107    24    23    1
   108    25    26    2
   109    10     9    1
   110    10    15   am
   111    19    16    1
   112    16    15    1
   113    16    17    1
   114    12     9    1
   115    12    13    1
   116     9     8    1
   117    18    17    2
   118    13    14    1
   119     8    14    1
