@<TRIPOS>MOLECULE
tmp/3nq9A00.pdb
 107 97 0 0 0
SMALL
GASTEIGER

@<TRIPOS>ATOM
      1  N         -0.4710   -4.4690   -9.5620 N.3    38  PRO38      -0.2102
      2  CA        -0.5570   -4.7020  -11.0060 C.3    38  PRO38       0.1504
      3  C         -1.8550   -5.3300  -11.5540 C.2    38  PRO38       0.2575
      4  O         -2.3040   -4.9490  -12.6460 O.2    38  PRO38      -0.2718
      5  CB         0.6300   -5.6470  -11.2830 C.3    38  PRO38       0.0282
      6  CG         1.5910   -5.4110  -10.1820 C.3    38  PRO38       0.0208
      7  CD         0.8400   -4.8750   -9.0120 C.3    38  PRO38       0.0893
      8  N         -2.4280   -6.3140  -10.8600 N.am   39  LEU39      -0.1980
      9  CA        -3.5730   -7.0620  -11.4230 C.3    39  LEU39       0.1596
     10  C         -4.8950   -6.7650  -10.7490 C.2    39  LEU39       0.2287
     11  O         -5.9160   -7.4140  -11.0160 O.2    39  LEU39      -0.2864
     12  CB        -3.3010   -8.5630  -11.4430 C.3    39  LEU39       0.0297
     13  CG        -2.9120   -9.2530  -12.7620 C.3    39  LEU39       0.0022
     14  CD1       -2.1490   -8.4050  -13.7330 C.3    39  LEU39       0.0001
     15  CD2       -2.1500  -10.5280  -12.4400 C.3    39  LEU39       0.0001
     16  N         -7.5700   -5.0220  -11.1490 N.3    41  VAL41      -0.1245
     17  CA        -8.3240   -4.3910  -12.2340 C.3    41  VAL41       0.1561
     18  C         -9.7950   -4.7180  -12.0700 C.2    41  VAL41       0.2260
     19  O        -10.1550   -5.8510  -11.7110 O.2    41  VAL41      -0.2867
     20  CB        -7.7940   -4.7750  -13.6700 C.3    41  VAL41       0.0252
     21  CG1       -6.3600   -4.2930  -13.8280 C.3    41  VAL41       0.0019
     22  CG2       -7.8590   -6.2900  -13.9200 C.3    41  VAL41       0.0019
     23  N        -11.4730   -5.1360  -23.7220 N.3    56  ILE56      -0.1245
     24  CA       -11.8650   -5.1260  -22.3160 C.3    56  ILE56       0.1561
     25  C        -11.7560   -3.6940  -21.7960 C.2    56  ILE56       0.2260
     26  O        -10.6720   -3.1150  -21.8270 O.2    56  ILE56      -0.2867
     27  CB       -11.0100   -6.1170  -21.4570 C.3    56  ILE56       0.0252
     28  CG1      -11.0540   -7.5340  -22.0720 C.3    56  ILE56       0.0019
     29  CG2      -11.5110   -6.1810  -20.0050 C.3    56  ILE56       0.0019
     30  CD1       -9.8220   -8.3690  -21.7950 C.3    56  ILE56       0.0001
     31  N        -11.7770   -1.4700  -18.5200 N.3    58  LEU58      -0.1245
     32  CA       -11.6620   -1.5800  -17.0620 C.3    58  LEU58       0.1561
     33  C        -11.2450   -0.3020  -16.3620 C.2    58  LEU58       0.2260
     34  O        -10.8910    0.6640  -17.0190 O.2    58  LEU58      -0.2867
     35  CB       -10.7190   -2.7240  -16.6690 C.3    58  LEU58       0.0270
     36  CG        -9.2860   -2.9100  -17.1730 C.3    58  LEU58       0.0019
     37  CD1       -9.1980   -3.2970  -18.6310 C.3    58  LEU58       0.0001
     38  CD2       -8.3240   -1.7700  -16.8440 C.3    58  LEU58       0.0001
     39  N         -8.4930    0.9860  -13.1650 N.3    60  LYS60      -0.1245
     40  CA        -7.5260    0.6430  -12.1300 C.3    60  LYS60       0.1561
     41  C         -6.8920    1.8670  -11.5030 C.2    60  LYS60       0.2260
     42  O         -6.8130    2.9150  -12.1440 O.2    60  LYS60      -0.2867
     43  CB        -6.4650   -0.3620  -12.6240 C.3    60  LYS60       0.0271
     44  CG        -5.2060    0.2280  -13.2650 C.3    60  LYS60       0.0035
     45  CD        -3.9520   -0.6140  -12.9530 C.3    60  LYS60       0.0206
     46  CE        -4.0760   -1.3810  -11.6080 C.3    60  LYS60       0.1093
     47  NZ        -2.9820   -1.1440  -10.6190 N.3    60  LYS60      -0.1314
     48  N         -3.9960    4.1020  -10.6340 N.3    62  GLU62      -0.1245
     49  CA        -2.6570    4.3520  -11.1890 C.3    62  GLU62       0.1567
     50  C         -1.8660    5.5620  -10.6520 C.2    62  GLU62       0.2260
     51  O         -0.6440    5.4980  -10.5520 O.2    62  GLU62      -0.2867
     52  CB        -2.6640    4.3310  -12.7150 C.3    62  GLU62       0.0388
     53  CG        -1.9190    3.1230  -13.2770 C.3    62  GLU62       0.1160
     54  CD        -2.2610    2.8360  -14.7160 C.2    62  GLU62       0.3649
     55  OE1       -2.9610    3.6760  -15.3470 O.co2  62  GLU62      -0.2457
     56  OE2       -1.8360    1.7690  -15.2190 O.co2  62  GLU62      -0.2457
     57  N         -9.0660    2.1930  -18.3850 N.3    69  LYS69      -0.1245
     58  CA        -8.1700    1.5690  -19.3590 C.3    69  LYS69       0.1561
     59  C         -8.9370    0.7250  -20.3710 C.2    69  LYS69       0.2260
     60  O         -9.9600    0.1560  -20.0510 O.2    69  LYS69      -0.2867
     61  CB        -7.0670    0.7550  -18.6640 C.3    69  LYS69       0.0271
     62  CG        -5.9180    1.6330  -18.1470 C.3    69  LYS69       0.0035
     63  CD        -4.8370    0.8810  -17.4000 C.3    69  LYS69       0.0206
     64  CE        -3.7860    0.3080  -18.3550 C.3    69  LYS69       0.1093
     65  NZ        -2.8390    1.3570  -18.8710 N.3    69  LYS69      -0.1314
     66  N         -8.1580   -2.4420  -22.8680 N.3    71  ILE71      -0.1245
     67  CA        -7.2680   -3.5350  -23.2280 C.3    71  ILE71       0.1561
     68  C         -7.8620   -4.3270  -24.4270 C.2    71  ILE71       0.2260
     69  O         -9.0690   -4.6140  -24.4650 O.2    71  ILE71      -0.2867
     70  CB        -7.0700   -4.4560  -21.9540 C.3    71  ILE71       0.0252
     71  CG1       -6.2380   -3.7390  -20.8690 C.3    71  ILE71       0.0019
     72  CG2       -6.5170   -5.8220  -22.2850 C.3    71  ILE71       0.0019
     73  CD1       -4.7700   -3.4370  -21.2090 C.3    71  ILE71       0.0001
     74  N         -2.9940  -10.9780  -25.1260 N.3    84  ILE84      -0.1245
     75  CA        -2.7690   -9.5220  -24.9730 C.3    84  ILE84       0.1561
     76  C         -1.3100   -9.2010  -25.2600 C.2    84  ILE84       0.2260
     77  O         -0.4100   -9.8090  -24.6760 O.2    84  ILE84      -0.2867
     78  CB        -3.1180   -9.0140  -23.5430 C.3    84  ILE84       0.0252
     79  CG1       -4.5930   -9.2480  -23.2150 C.3    84  ILE84       0.0019
     80  CG2       -2.7380   -7.5300  -23.3770 C.3    84  ILE84       0.0019
     81  CD1       -4.8960   -9.1080  -21.7500 C.3    84  ILE84       0.0001
     82  N         -5.4630  -14.5070  -21.8130 N.3    92  VAL92      -0.1245
     83  CA        -6.7450  -14.4800  -21.1200 C.3    92  VAL92       0.1561
     84  C         -7.4660  -15.7660  -21.4550 C.2    92  VAL92       0.2260
     85  O         -7.5660  -16.1180  -22.6350 O.2    92  VAL92      -0.2867
     86  CB        -7.5510  -13.2020  -21.4810 C.3    92  VAL92       0.0252
     87  CG1       -8.9200  -13.2040  -20.8720 C.3    92  VAL92       0.0019
     88  CG2       -6.7820  -11.9910  -20.9980 C.3    92  VAL92       0.0019
     89  N        -12.8460  -16.0140  -15.4170 N.3   105  PHE105     -0.1241
     90  CA       -11.7160  -15.9240  -16.3380 C.3   105  PHE105      0.1605
     91  C        -10.4120  -15.7910  -15.5720 C.2   105  PHE105      0.2264
     92  O        -10.4370  -15.3280  -14.4270 O.2   105  PHE105     -0.2867
     93  CB       -11.8570  -14.7710  -17.3520 C.3   105  PHE105      0.0534
     94  CG       -11.4640  -13.4010  -16.8220 C.ar  105  PHE105     -0.0203
     95  CD1      -10.1730  -12.9020  -17.0210 C.ar  105  PHE105     -0.0042
     96  CD2      -12.3990  -12.6040  -16.1570 C.ar  105  PHE105     -0.0042
     97  CE1       -9.8140  -11.6320  -16.5610 C.ar  105  PHE105     -0.0003
     98  CE2      -12.0500  -11.3270  -15.6800 C.ar  105  PHE105     -0.0003
     99  CZ       -10.7840  -10.8240  -15.8870 C.ar  105  PHE105     -0.0000
    100  N         -6.0130  -14.6040  -16.0740 N.3   107  MET107     -0.1245
    101  CA        -4.9360  -13.9690  -16.8170 C.3   107  MET107      0.1570
    102  C         -3.6520  -14.6480  -16.3660 C.2   107  MET107      0.2261
    103  O         -3.3810  -14.6920  -15.1630 O.2   107  MET107     -0.2867
    104  CB        -4.8830  -12.4710  -16.4860 C.3   107  MET107      0.0387
    105  CG        -6.2050  -11.7480  -16.6200 C.3   107  MET107      0.0595
    106  SD        -6.3600  -10.2700  -15.5580 S.3   107  MET107     -0.1393
    107  CE        -7.1380  -10.9950  -14.1160 C.3   107  MET107      0.0692
@<TRIPOS>BOND
     1    76    75    1
     2    76    77    2
     3    74    75    1
     4    75    78    1
     5    69    68    2
     6    68    67    1
     7    23    24    1
     8    78    80    1
     9    78    79    1
    10    67    66    1
    11    67    70    1
    12    79    81    1
    13    85    84    2
    14    24    25    1
    15    24    27    1
    16    72    70    1
    17    28    30    1
    18    28    27    1
    19    70    71    1
    20    26    25    2
    21    82    83    1
    22    86    83    1
    23    86    88    1
    24    86    87    1
    25    27    29    1
    26    84    83    1
    27    73    71    1
    28    59    60    2
    29    59    58    1
    30    58    61    1
    31    58    57    1
    32    65    64    1
    33    61    62    1
    34    37    36    1
    35    31    32    1
    36    64    63    1
    37    62    63    1
    38    93    94    1
    39    93    90    1
    40    36    38    1
    41    36    35    1
    42    32    35    1
    43    32    33    1
    44    95    94   ar
    45    95    97   ar
    46    34    33    2
    47    94    96   ar
    48   101   104    1
    49   101   102    1
    50   101   100    1
    51   105   104    1
    52   105   106    1
    53    97    99   ar
    54   102   103    2
    55    90    91    1
    56    90    89    1
    57    96    98   ar
    58    99    98   ar
    59    91    92    2
    60   106   107    1
    61    55    54   ar
    62    56    54   ar
    63    54    53    1
    64    22    20    1
    65    21    20    1
    66    14    13    1
    67    20    17    1
    68    53    52    1
    69    44    45    1
    70    44    43    1
    71    39    40    1
    72    45    46    1
    73    13    15    1
    74    13    12    1
    75    52    49    1
    76     4     3    2
    77    43    40    1
    78    17    18    1
    79    17    16    1
    80    42    41    2
    81    40    41    1
    82    18    19    2
    83    46    47    1
    84     3     2    1
    85     3     8   am
    86    12     9    1
    87     9     8    1
    88     9    10    1
    89     5     2    1
    90     5     6    1
    91    49    50    1
    92    49    48    1
    93    11    10    2
    94     2     1    1
    95    50    51    2
    96     6     7    1
    97     1     7    1
