@<TRIPOS>MOLECULE
tmp/3nqeB00.pdb
 186 177 0 0 0
SMALL
GASTEIGER

@<TRIPOS>ATOM
      1  N         -2.1170   -3.2440   29.3290 N.3    10  ALA10      -0.1245
      2  CA        -1.0640   -2.4850   28.6470 C.3    10  ALA10       0.1562
      3  C         -0.4650   -1.4930   29.6270 C.2    10  ALA10       0.2260
      4  O         -1.0240   -0.4170   29.8590 O.2    10  ALA10      -0.2867
      5  CB        -1.6040   -1.7550   27.3910 C.3    10  ALA10       0.0290
      6  N          1.6400    1.1670   30.2070 N.3    12  ASP12      -0.1239
      7  CA         2.3670    2.2440   29.5370 C.3    12  ASP12       0.1674
      8  C          2.6270    3.4750   30.4140 C.2    12  ASP12       0.2266
      9  O          2.9570    4.5490   29.9000 O.2    12  ASP12      -0.2867
     10  CB         1.6430    2.6450   28.2460 C.3    12  ASP12       0.1410
     11  CG         1.5300    1.4920   27.2580 C.2    12  ASP12       0.3668
     12  OD1        2.5390    0.7890   27.0300 O.co2  12  ASP12      -0.2456
     13  OD2        0.4310    1.2730   26.7110 O.co2  12  ASP12      -0.2456
     14  N          1.3220   -6.5230   29.0220 N.3    34  LYS34      -0.1245
     15  CA         2.0500   -6.0500   27.8430 C.3    34  LYS34       0.1561
     16  C          2.9080   -4.8650   28.2690 C.2    34  LYS34       0.2260
     17  O          2.3970   -3.8520   28.7670 O.2    34  LYS34      -0.2867
     18  CB         1.0780   -5.6510   26.7160 C.3    34  LYS34       0.0271
     19  CG         1.7640   -5.2530   25.3910 C.3    34  LYS34       0.0035
     20  CD         0.7560   -4.9190   24.2770 C.3    34  LYS34       0.0206
     21  CE         0.1490   -3.5260   24.4260 C.3    34  LYS34       0.1093
     22  NZ         1.1680   -2.4470   24.3590 N.3    34  LYS34      -0.1314
     23  N          5.9500   -5.4770   23.7720 N.3    62  ASP62      -0.1239
     24  CA         5.3440   -4.8430   22.6060 C.3    62  ASP62       0.1674
     25  C          6.3190   -3.8650   21.9820 C.2    62  ASP62       0.2266
     26  O          6.2360   -2.6620   22.2140 O.2    62  ASP62      -0.2867
     27  CB         4.0630   -4.1110   23.0050 C.3    62  ASP62       0.1410
     28  CG         3.3950   -3.4650   21.8180 C.2    62  ASP62       0.3668
     29  OD1        3.7780   -3.7860   20.6720 O.co2  62  ASP62      -0.2456
     30  OD2        2.4870   -2.6360   22.0330 O.co2  62  ASP62      -0.2456
     31  N          7.0460   -3.6590   18.6110 N.3    64  LYS64      -0.1245
     32  CA         6.7270   -3.3340   17.2290 C.3    64  LYS64       0.1561
     33  C          7.9560   -3.5090   16.3460 C.2    64  LYS64       0.2260
     34  O          8.2970   -2.6090   15.5750 O.2    64  LYS64      -0.2867
     35  CB         6.2500   -1.8790   17.1030 C.3    64  LYS64       0.0271
     36  CG         4.9990   -1.5390   17.8960 C.3    64  LYS64       0.0035
     37  CD         3.7810   -2.2480   17.3520 C.3    64  LYS64       0.0206
     38  CE         2.5040   -1.6620   17.9520 C.3    64  LYS64       0.1093
     39  NZ         2.5770   -1.5800   19.4430 N.3    64  LYS64      -0.1314
     40  N          6.2280   -8.6200   20.1110 N.3    88  ILE88      -0.1245
     41  CA         5.3590   -8.2300   19.0130 C.3    88  ILE88       0.1561
     42  C          6.1750   -7.6200   17.8810 C.2    88  ILE88       0.2260
     43  O          6.9920   -6.7300   18.1140 O.2    88  ILE88      -0.2867
     44  CB         4.2650   -7.2630   19.4750 C.3    88  ILE88       0.0252
     45  CG1        3.4400   -7.9160   20.5910 C.3    88  ILE88       0.0019
     46  CG2        3.3660   -6.9430   18.3010 C.3    88  ILE88       0.0019
     47  CD1        2.3440   -7.0300   21.1910 C.3    88  ILE88       0.0001
     48  N          1.8140   -8.1640   14.2480 N.3   115  ASN115     -0.1240
     49  CA         0.8270   -7.1160   14.0900 C.3   115  ASN115      0.1653
     50  C          0.3860   -7.0120   12.6460 C.2   115  ASN115      0.2266
     51  O          1.2030   -6.7710   11.7570 O.2   115  ASN115     -0.2867
     52  CB         1.3750   -5.7760   14.5810 C.3   115  ASN115      0.1155
     53  CG         0.2820   -4.7520   14.7800 C.2   115  ASN115      0.2627
     54  OD1       -0.4070   -4.3680   13.8340 O.2   115  ASN115     -0.2716
     55  ND2        0.0930   -4.3240   16.0210 N.am  115  ASN115     -0.0877
     56  N         -3.0030   -5.3530   11.4410 N.3   117  GLU117     -0.1231
     57  CA        -3.5970   -4.0430   11.1890 C.3   117  GLU117      0.1699
     58  C         -3.7080   -3.2930   12.5010 C.2   117  GLU117      0.2592
     59  O         -4.1930   -3.8270   13.4990 O.2   117  GLU117     -0.2718
     60  CB        -4.9870   -4.1580   10.5320 C.3   117  GLU117      0.0402
     61  CG        -5.7080   -2.7990   10.3710 C.3   117  GLU117      0.1161
     62  CD        -6.9930   -2.8710    9.5430 C.2   117  GLU117      0.3649
     63  OE1       -7.1600   -3.8430    8.7790 O.co2 117  GLU117     -0.2457
     64  OE2       -7.8200   -1.9370    9.6480 O.co2 117  GLU117     -0.2457
     65  N         -3.2600   -2.0440   12.4970 N.am  118  MET118     -0.1965
     66  CA        -3.2670   -1.2460   13.7160 C.3   118  MET118      0.1736
     67  C         -4.5920   -0.5240   13.9340 C.2   118  MET118      0.2617
     68  O         -5.4100   -0.3880   13.0040 O.2   118  MET118     -0.2715
     69  CB        -2.1230   -0.2470   13.6910 C.3   118  MET118      0.0427
     70  CG        -0.7700   -0.9260   13.7620 C.3   118  MET118      0.0599
     71  SD         0.6040    0.2130   13.7200 S.3   118  MET118     -0.1393
     72  CE         0.4480    1.0210   15.3100 C.3   118  MET118      0.0692
     73  N         -4.7970   -0.0410   15.1620 N.am  119  SER119     -0.1936
     74  CA        -6.1050    0.4560   15.5680 C.3   119  SER119      0.2055
     75  C         -6.3820    1.9330   15.3440 C.2   119  SER119      0.2643
     76  O         -7.5250    2.3580   15.4490 O.2   119  SER119     -0.2714
     77  CB        -6.3040    0.1780   17.0590 C.3   119  SER119      0.2130
     78  OG        -5.2810    0.8150   17.8140 O.3   119  SER119     -0.2179
     79  N         -5.3380    2.7170   15.0980 N.am  120  HIS120     -0.1973
     80  CA        -5.4730    4.1720   15.0320 C.3   120  HIS120      0.1656
     81  C         -5.8510    4.6250   13.6250 C.2   120  HIS120      0.2291
     82  O         -5.7310    3.8600   12.6710 O.2   120  HIS120     -0.2864
     83  CB        -4.1500    4.8140   15.4560 C.3   120  HIS120      0.0771
     84  CG        -3.0170    4.4980   14.5320 C.ar  120  HIS120      0.0820
     85  ND1       -2.5740    3.2130   14.3180 N.ar  120  HIS120     -0.2267
     86  CD2       -2.2940    5.2910   13.7030 C.ar  120  HIS120      0.1154
     87  CE1       -1.6000    3.2310   13.4230 C.ar  120  HIS120      0.1986
     88  NE2       -1.4100    4.4810   13.0370 N.ar  120  HIS120     -0.2212
     89  N         -2.0400   -9.8220   16.2140 N.3   147  VAL147     -0.1231
     90  CA        -2.6240   -8.6320   16.8290 C.3   147  VAL147      0.1692
     91  C         -3.4500   -7.9180   15.7680 C.2   147  VAL147      0.2593
     92  O         -2.9870   -7.7520   14.6340 O.2   147  VAL147     -0.2718
     93  CB        -1.5360   -7.6460   17.3030 C.3   147  VAL147      0.0266
     94  CG1       -2.1680   -6.5140   18.1180 C.3   147  VAL147      0.0020
     95  CG2       -0.4650   -8.3730   18.0980 C.3   147  VAL147      0.0020
     96  N         -4.6650   -7.5000   16.1240 N.am  148  GLY148     -0.1943
     97  CA        -5.5460   -6.7890   15.2020 C.3   148  GLY148      0.1998
     98  C         -6.4520   -5.8430   15.9730 C.2   148  GLY148      0.2480
     99  O         -6.5130   -5.9160   17.1950 O.2   148  GLY148     -0.2729
    100  N         -7.1680   -4.9640   15.2580 N.am  149  PRO149     -0.2726
    101  CA        -7.7420   -3.7380   15.8320 C.3   149  PRO149      0.1402
    102  C         -9.1490   -3.8410   16.4120 C.2   149  PRO149      0.2269
    103  O        -10.0960   -4.1670   15.6930 O.2   149  PRO149     -0.2865
    104  CB        -7.7450   -2.7870   14.6390 C.3   149  PRO149      0.0296
    105  CG        -7.9710   -3.6750   13.4910 C.3   149  PRO149      0.0237
    106  CD        -7.2680   -4.9830   13.7940 C.3   149  PRO149      0.0939
    107  N         -5.9000   -4.6200   20.7760 N.3   172  PRO172     -0.2102
    108  CA        -5.8820   -3.3260   21.4660 C.3   172  PRO172      0.1504
    109  C         -6.8380   -2.3340   20.8110 C.2   172  PRO172      0.2576
    110  O         -7.3670   -2.5750   19.7300 O.2   172  PRO172     -0.2718
    111  CB        -4.4390   -2.8500   21.2640 C.3   172  PRO172      0.0282
    112  CG        -4.1200   -3.3410   19.8800 C.3   172  PRO172      0.0208
    113  CD        -4.8940   -4.6540   19.6940 C.3   172  PRO172      0.0893
    114  N         -7.0190   -1.2020   21.4670 N.am  173  GLY173     -0.1943
    115  CA        -7.9740   -0.2000   21.0330 C.3   173  GLY173      0.2014
    116  C         -9.2730   -0.2420   21.8090 C.2   173  GLY173      0.2638
    117  O        -10.2470    0.3830   21.3940 O.2   173  GLY173     -0.2714
    118  N         -9.2880   -0.9770   22.9180 N.am  174  VAL174     -0.1977
    119  CA       -10.4720   -1.1080   23.7670 C.3   174  VAL174      0.1596
    120  C        -10.5040   -0.0080   24.8150 C.2   174  VAL174      0.2287
    121  O         -9.5270    0.2090   25.5280 O.2   174  VAL174     -0.2864
    122  CB       -10.4660   -2.4680   24.4790 C.3   174  VAL174      0.0276
    123  CG1      -11.6510   -2.5950   25.4410 C.3   174  VAL174      0.0022
    124  CG2      -10.4590   -3.5820   23.4470 C.3   174  VAL174      0.0022
    125  N        -10.2200    3.5530   25.6870 N.3   176  ALA176     -0.1231
    126  CA        -9.8090    4.8860   25.2910 C.3   176  ALA176      0.1694
    127  C         -9.9860    5.1590   23.7870 C.2   176  ALA176      0.2591
    128  O        -10.4370    6.2330   23.3870 O.2   176  ALA176     -0.2718
    129  CB        -8.3670    5.1380   25.7220 C.3   176  ALA176      0.0304
    130  N         -9.6210    4.1970   22.9430 N.am  177  GLN177     -0.1979
    131  CA        -9.6930    4.3970   21.4980 C.3   177  GLN177      0.1601
    132  C        -11.0720    4.0900   20.9150 C.2   177  GLN177      0.2287
    133  O        -11.3070    4.2830   19.7210 O.2   177  GLN177     -0.2864
    134  CB        -8.6340    3.5630   20.7790 C.3   177  GLN177      0.0394
    135  CG        -7.2130    3.9140   21.1470 C.3   177  GLN177      0.0908
    136  CD        -6.2200    3.0200   20.4470 C.2   177  GLN177      0.2608
    137  OE1       -6.2150    2.9240   19.2260 O.2   177  GLN177     -0.2717
    138  NE2       -5.3820    2.3410   21.2310 N.am  177  GLN177     -0.0878
    139  N         -6.5850   -6.1790   24.9080 N.3   192  ILE192     -0.1231
    140  CA        -5.5320   -5.3940   25.5240 C.3   192  ILE192      0.1692
    141  C         -6.1570   -4.0760   25.9860 C.2   192  ILE192      0.2592
    142  O         -6.8630   -3.4360   25.2130 O.2   192  ILE192     -0.2718
    143  CB        -4.4180   -5.0680   24.5130 C.3   192  ILE192      0.0266
    144  CG1       -3.6740   -6.3410   24.1060 C.3   192  ILE192      0.0019
    145  CG2       -3.4570   -4.0510   25.1140 C.3   192  ILE192      0.0020
    146  CD1       -2.8970   -6.2030   22.8270 C.3   192  ILE192      0.0001
    147  N         -5.9150   -3.6850   27.2360 N.am  193  VAL193     -0.1966
    148  CA        -6.4920   -2.4600   27.7710 C.3   193  VAL193      0.1727
    149  C         -5.4160   -1.7100   28.5490 C.2   193  VAL193      0.2617
    150  O         -4.8220   -2.2690   29.4710 O.2   193  VAL193     -0.2715
    151  CB        -7.6890   -2.7430   28.7200 C.3   193  VAL193      0.0290
    152  CG1       -8.2490   -1.4360   29.2530 C.3   193  VAL193      0.0023
    153  CG2       -8.7860   -3.4990   27.9890 C.3   193  VAL193      0.0023
    154  N         -5.1930   -0.4520   28.1800 N.am  194  GLY194     -0.1940
    155  CA        -4.2090    0.4050   28.8250 C.3   194  GLY194      0.2014
    156  C         -4.8820    1.4840   29.6490 C.2   194  GLY194      0.2639
    157  O         -5.2550    1.2530   30.8040 O.2   194  GLY194     -0.2714
    158  N         -5.0750    2.6480   29.0440 N.am  195  ARG195     -0.1963
    159  CA        -5.5350    3.8450   29.7690 C.3   195  ARG195      0.1729
    160  C         -6.8250    3.7020   30.5620 C.2   195  ARG195      0.2616
    161  O         -6.9300    4.2410   31.6610 O.2   195  ARG195     -0.2715
    162  CB        -5.6490    5.0230   28.8100 C.3   195  ARG195      0.0348
    163  CG        -4.3000    5.5880   28.4040 C.3   195  ARG195      0.0492
    164  CD        -4.4400    6.4930   27.2010 C.3   195  ARG195      0.2205
    165  NE        -4.6730    5.7380   25.9740 N.pl3 195  ARG195     -0.0865
    166  CZ        -5.0010    6.2950   24.8150 C.cat 195  ARG195      0.5346
    167  NH1       -5.1290    7.6130   24.7290 N.pl3 195  ARG195      0.1354
    168  NH2       -5.1860    5.5380   23.7380 N.pl3 195  ARG195      0.1354
    169  N         -7.8030    2.9990   30.0060 N.am  196  SER196     -0.1950
    170  CA        -9.0740    2.7840   30.6990 C.3   196  SER196      0.1924
    171  C         -8.8550    2.1820   32.0790 C.2   196  SER196      0.2314
    172  O         -9.6700    2.3800   32.9860 O.2   196  SER196     -0.2863
    173  CB        -9.9840    1.8840   29.8680 C.3   196  SER196      0.2116
    174  OG       -10.4670    2.5910   28.7490 O.3   196  SER196     -0.2180
    175  N         -5.2240    2.0060   33.5980 N.3   198  TYR198     -0.1241
    176  CA        -4.1230    2.6220   34.3390 C.3   198  TYR198      0.1605
    177  C         -4.2650    4.1270   34.5900 C.2   198  TYR198      0.2264
    178  O         -3.5660    4.6780   35.4420 O.2   198  TYR198     -0.2867
    179  CB        -2.7440    2.2300   33.7690 C.3   198  TYR198      0.0534
    180  CG        -2.3430    2.8700   32.4580 C.ar  198  TYR198     -0.0201
    181  CD1       -2.0570    4.2240   32.3850 C.ar  198  TYR198     -0.0009
    182  CD2       -2.1910    2.1090   31.3020 C.ar  198  TYR198     -0.0009
    183  CE1       -1.6640    4.8200   31.1940 C.ar  198  TYR198      0.0417
    184  CE2       -1.8080    2.6960   30.1100 C.ar  198  TYR198      0.0417
    185  CZ        -1.5370    4.0430   30.0590 C.ar  198  TYR198      0.1957
    186  OH        -1.1490    4.6210   28.8670 O.3   198  TYR198     -0.2866
@<TRIPOS>BOND
     1    63    62   ar
     2    62    64   ar
     3    62    61    1
     4    61    60    1
     5    60    57    1
     6    57    56    1
     7    57    58    1
     8    51    50    2
     9    65    58   am
    10    65    66    1
    11    58    59    2
    12    50    49    1
    13    82    81    2
    14    68    67    2
    15    88    87   ar
    16    88    86   ar
    17    87    85   ar
    18   105   106    1
    19   105   104    1
    20    81    80    1
    21    69    66    1
    22    69    70    1
    23    86    84   ar
    24    66    67    1
    25    71    70    1
    26    71    72    1
    27   106   100    1
    28    54    53    2
    29    67    73   am
    30    49    48    1
    31    49    52    1
    32    85    84   ar
    33    84    83    1
    34    52    53    1
    35    92    91    2
    36   104   101    1
    37    53    55   am
    38    80    79    1
    39    80    83    1
    40    79    75   am
    41    73    74    1
    42    97    98    1
    43    97    96    1
    44   100   101    1
    45   100    98   am
    46    75    76    2
    47    75    74    1
    48    74    77    1
    49    34    33    2
    50   103   102    2
    51    91    96   am
    52    91    90    1
    53   101   102    1
    54    98    99    2
    55    89    90    1
    56    33    32    1
    57    90    93    1
    58    77    78    1
    59    35    32    1
    60    35    36    1
    61    32    31    1
    62    93    95    1
    63    93    94    1
    64    37    36    1
    65    37    38    1
    66    42    43    2
    67    42    41    1
    68    38    39    1
    69    46    44    1
    70    41    44    1
    71    41    40    1
    72   137   136    2
    73    44    45    1
    74   113   112    1
    75   113   107    1
    76   133   132    2
    77   110   109    2
    78   112   111    1
    79   136   135    1
    80   136   138   am
    81    45    47    1
    82    29    28   ar
    83   107   108    1
    84   134   135    1
    85   134   131    1
    86   109   108    1
    87   109   114   am
    88   132   131    1
    89   115   114    1
    90   115   116    1
    91   111   108    1
    92   117   116    2
    93   131   130    1
    94   116   118   am
    95    28    30   ar
    96    28    27    1
    97    25    26    2
    98    25    24    1
    99    24    27    1
   100    24    23    1
   101   146   144    1
   102   118   119    1
   103   130   127   am
   104   128   127    2
   105   124   122    1
   106   168   166    1
   107   119   122    1
   108   119   120    1
   109   127   126    1
   110   144   143    1
   111    20    21    1
   112    20    19    1
   113    22    21    1
   114   122   123    1
   115   143   145    1
   116   143   140    1
   117   167   166    1
   118   120   121    2
   119   166   165    2
   120   139   140    1
   121   142   141    2
   122   126   125    1
   123   126   129    1
   124    19    18    1
   125   140   141    1
   126   165   164    1
   127   141   147   am
   128    13    11   ar
   129    18    15    1
   130    12    11   ar
   131   164   163    1
   132   147   148    1
   133    11    10    1
   134     5     2    1
   135   148   149    1
   136   148   151    1
   137    15    16    1
   138    15    14    1
   139   153   151    1
   140   154   149   am
   141   154   155    1
   142    10     7    1
   143    16    17    2
   144   163   162    1
   145   149   150    2
   146     2     1    1
   147     2     3    1
   148   151   152    1
   149   174   173    1
   150   162   159    1
   151   155   156    1
   152   186   185    1
   153   158   156   am
   154   158   159    1
   155     7     6    1
   156     7     8    1
   157     3     4    2
   158   156   157    2
   159   159   160    1
   160   173   170    1
   161     9     8    2
   162   169   160   am
   163   169   170    1
   164   185   184   ar
   165   185   183   ar
   166   184   182   ar
   167   160   161    2
   168   170   171    1
   169   183   181   ar
   170   182   180   ar
   171   171   172    2
   172   181   180   ar
   173   180   179    1
   174   175   176    1
   175   179   176    1
   176   176   177    1
   177   177   178    2
