@<TRIPOS>MOLECULE
tmp/3nqiA01.pdb
 72 70 0 0 0
SMALL
GASTEIGER

@<TRIPOS>ATOM
      1  N        -18.4700   22.3780   13.2910 N.3     9  LYS9       -0.1245
      2  CA       -18.3600   23.0910   12.0480 C.3     9  LYS9        0.1561
      3  C        -17.0520   23.8990   12.1310 C.2     9  LYS9        0.2260
      4  O        -16.6470   24.3120   13.2060 O.2     9  LYS9       -0.2867
      5  CB       -19.5310   24.0490   11.8910 C.3     9  LYS9        0.0271
      6  CG       -19.5010   24.8600   10.6230 C.3     9  LYS9        0.0035
      7  CD       -20.6010   25.9170   10.6170 C.3     9  LYS9        0.0206
      8  CE       -20.5670   26.7060    9.3080 C.3     9  LYS9        0.1093
      9  NZ       -21.8780   27.3480    9.0110 N.3     9  LYS9       -0.1314
     10  N        -17.4730   25.6700   15.6290 N.3    19  THR19      -0.1203
     11  CA       -18.8060   25.8320   16.2560 C.3    19  THR19       0.1994
     12  C        -19.3850   24.4680   16.6030 C.2    19  THR19       0.2618
     13  O        -19.5020   23.6280   15.7220 O.2    19  THR19      -0.2717
     14  CB       -19.7670   26.5870   15.3250 C.3    19  THR19       0.1784
     15  OG1      -19.2090   27.8750   15.0390 O.3    19  THR19      -0.2211
     16  CG2      -21.1710   26.7540   15.9530 C.3    19  THR19       0.0376
     17  N        -19.7390   24.2330   17.8750 N.am   20  ASP20      -0.1959
     18  CA       -20.2780   22.9170   18.2430 C.3    20  ASP20       0.1840
     19  C        -21.7550   22.8430   17.8620 C.2    20  ASP20       0.2622
     20  O        -22.3240   23.8220   17.3600 O.2    20  ASP20      -0.2715
     21  CB       -20.0200   22.5790   19.7320 C.3    20  ASP20       0.1450
     22  CG       -20.8200   23.4310   20.7020 C.2    20  ASP20       0.3671
     23  OD1      -21.7670   24.1510   20.2970 O.co2  20  ASP20      -0.2456
     24  OD2      -20.5000   23.3710   21.9200 O.co2  20  ASP20      -0.2456
     25  N        -22.3610   21.6720   18.0730 N.am   21  ALA21      -0.1963
     26  CA       -23.7800   21.4250   17.6950 C.3    21  ALA21       0.1728
     27  C        -24.7630   22.2960   18.4850 C.2    21  ALA21       0.2616
     28  O        -25.8490   22.6110   18.0080 O.2    21  ALA21      -0.2715
     29  CB       -24.1230   19.9440   17.8540 C.3    21  ALA21       0.0334
     30  N        -24.3700   22.7080   19.6770 N.am   22  ALA22      -0.1963
     31  CA       -25.1600   23.6610   20.4610 C.3    22  ALA22       0.1728
     32  C        -25.0870   25.1040   19.9310 C.2    22  ALA22       0.2616
     33  O        -25.8240   25.9540   20.4270 O.2    22  ALA22      -0.2715
     34  CB       -24.7250   23.6270   21.9220 C.3    22  ALA22       0.0334
     35  N        -24.2270   25.3650   18.9370 N.am   23  GLY23      -0.1955
     36  CA       -23.9930   26.7090   18.4060 C.3    23  GLY23       0.1869
     37  C        -22.9360   27.5480   19.1200 C.2    23  GLY23       0.2309
     38  O        -22.7750   28.7190   18.8150 O.2    23  GLY23      -0.2863
     39  N        -26.6580   17.3280   12.5250 N.3   103  PHE103     -0.1227
     40  CA       -25.7910   18.3420   13.1610 C.3   103  PHE103      0.1736
     41  C        -26.4600   19.7370   13.1600 C.2   103  PHE103      0.2596
     42  O        -26.4820   20.4640   14.1800 O.2   103  PHE103     -0.2718
     43  CB       -24.4400   18.4070   12.4390 C.3   103  PHE103      0.0547
     44  CG       -23.5400   19.4610   12.9700 C.ar  103  PHE103     -0.0202
     45  CD1      -22.8220   19.2230   14.1430 C.ar  103  PHE103     -0.0042
     46  CD2      -23.4470   20.7110   12.3540 C.ar  103  PHE103     -0.0042
     47  CE1      -22.0150   20.2150   14.6900 C.ar  103  PHE103     -0.0003
     48  CE2      -22.6430   21.7080   12.8910 C.ar  103  PHE103     -0.0003
     49  CZ       -21.8970   21.4330   14.0720 C.ar  103  PHE103     -0.0000
     50  N        -26.9680   20.1130   12.0030 N.am  104  SER104     -0.1938
     51  CA       -27.6310   21.4210   11.8040 C.3   104  SER104      0.2055
     52  C        -28.7210   21.2240   10.7270 C.2   104  SER104      0.2643
     53  O        -28.9440   20.1230   10.2640 O.2   104  SER104     -0.2714
     54  CB       -26.6440   22.4650   11.3130 C.3   104  SER104      0.2130
     55  OG       -26.2810   22.1290    9.9840 O.3   104  SER104     -0.2179
     56  N        -29.4090   22.2910   10.3410 N.am  105  GLU105     -0.1963
     57  CA       -30.4320   22.1800    9.3210 C.3   105  GLU105      0.1733
     58  C        -29.8380   21.7510    8.0080 C.2   105  GLU105      0.2616
     59  O        -30.5330   21.1470    7.2110 O.2   105  GLU105     -0.2715
     60  CB       -31.1660   23.5040    9.1550 C.3   105  GLU105      0.0429
     61  CG       -32.0720   23.7760   10.3550 C.3   105  GLU105      0.1163
     62  CD       -32.8170   25.0900   10.1980 C.2   105  GLU105      0.3649
     63  OE1      -32.6750   25.6890    9.1060 O.co2 105  GLU105     -0.2457
     64  OE2      -33.5110   25.4920   11.1580 O.co2 105  GLU105     -0.2457
     65  N        -28.5590   22.0320    7.8160 N.am  106  ASN106     -0.1972
     66  CA       -27.8620   21.7480    6.5240 C.3   106  ASN106      0.1688
     67  C        -26.9280   20.5330    6.4880 C.2   106  ASN106      0.2292
     68  O        -26.3510   20.2160    5.4330 O.2   106  ASN106     -0.2864
     69  CB       -26.9770   22.9520    6.2130 C.3   106  ASN106      0.1181
     70  CG       -27.7920   24.2510    6.0010 C.2   106  ASN106      0.2629
     71  OD1      -28.6300   24.3290    5.1150 O.2   106  ASN106     -0.2716
     72  ND2      -27.5310   25.2520    6.8230 N.am  106  ASN106     -0.0877
@<TRIPOS>BOND
     1    71    70    2
     2    68    67    2
     3    70    69    1
     4    70    72   am
     5    69    66    1
     6    67    66    1
     7    66    65    1
     8    59    58    2
     9    65    58   am
    10    58    57    1
    11     9     8    1
    12    63    62   ar
    13    60    57    1
    14    60    61    1
    15     8     7    1
    16    57    56    1
    17    55    54    1
    18    62    61    1
    19    62    64   ar
    20    53    52    2
    21    56    52   am
    22     7     6    1
    23     6     5    1
    24    52    51    1
    25    54    51    1
    26    51    50    1
    27     5     2    1
    28    50    41   am
    29     2     3    1
    30     2     1    1
    31     3     4    2
    32    46    48   ar
    33    46    44   ar
    34    43    44    1
    35    43    40    1
    36    39    40    1
    37    48    49   ar
    38    44    45   ar
    39    41    40    1
    40    41    42    2
    41    49    47   ar
    42    45    47   ar
    43    15    14    1
    44    14    16    1
    45    14    11    1
    46    10    11    1
    47    13    12    2
    48    11    12    1
    49    12    17   am
    50    20    19    2
    51    26    29    1
    52    26    25    1
    53    26    27    1
    54    19    25   am
    55    19    18    1
    56    17    18    1
    57    28    27    2
    58    18    21    1
    59    36    35    1
    60    36    37    1
    61    27    30   am
    62    38    37    2
    63    35    32   am
    64    30    31    1
    65    21    22    1
    66    32    33    2
    67    32    31    1
    68    23    22   ar
    69    31    34    1
    70    22    24   ar
