@<TRIPOS>MOLECULE
tmp/3nqnA00.pdb
 116 110 0 0 0
SMALL
GASTEIGER

@<TRIPOS>ATOM
      1  N          9.7040    4.4850   34.3830 N.3    22  VAL22      -0.1231
      2  CA         8.4720    5.1800   34.7930 C.3    22  VAL22       0.1692
      3  C          7.5240    4.2850   35.5700 C.2    22  VAL22       0.2591
      4  O          6.6540    4.7850   36.2970 O.2    22  VAL22      -0.2718
      5  CB         7.7100    5.8460   33.5810 C.3    22  VAL22       0.0266
      6  CG1        8.6120    6.9180   32.8890 C.3    22  VAL22       0.0020
      7  CG2        7.2360    4.8060   32.6050 C.3    22  VAL22       0.0020
      8  N          7.6810    2.9720   35.4330 N.am   23  ARG23      -0.1980
      9  CA         6.7780    2.0240   36.1010 C.3    23  ARG23       0.1597
     10  C          7.2200    1.6420   37.4920 C.2    23  ARG23       0.2287
     11  O          6.4450    1.0170   38.2250 O.2    23  ARG23      -0.2864
     12  CB         6.5880    0.7700   35.2610 C.3    23  ARG23       0.0334
     13  CG         5.7150    1.0000   34.0430 C.3    23  ARG23       0.0492
     14  CD         5.7370   -0.1550   33.1140 C.3    23  ARG23       0.2205
     15  NE         4.6750   -0.0600   32.1210 N.pl3  23  ARG23      -0.0865
     16  CZ         4.6010   -0.8110   31.0260 C.cat  23  ARG23       0.5346
     17  NH1        5.5340   -1.7190   30.7660 N.pl3  23  ARG23       0.1354
     18  NH2        3.5890   -0.6570   30.1880 N.pl3  23  ARG23       0.1354
     19  N          8.4220    3.3300   40.9350 N.3    25  PRO25      -0.2116
     20  CA         8.6000    4.5880   41.6410 C.3    25  PRO25       0.1372
     21  C          9.9900    4.7600   42.2670 C.2    25  PRO25       0.2244
     22  O         10.5150    5.8550   42.2700 O.2    25  PRO25      -0.2868
     23  CB         7.5050    4.5510   42.7310 C.3    25  PRO25       0.0268
     24  CG         7.0870    3.1730   42.8300 C.3    25  PRO25       0.0207
     25  CD         7.3280    2.5290   41.5130 C.3    25  PRO25       0.0892
     26  N         12.0460    6.0440   39.1930 N.3    28  ALA28      -0.1231
     27  CA        11.5890    7.3630   38.7200 C.3    28  ALA28       0.1694
     28  C         11.7400    8.4590   39.7660 C.2    28  ALA28       0.2591
     29  O         12.1110    9.5700   39.4310 O.2    28  ALA28      -0.2718
     30  CB        10.1150    7.2790   38.2480 C.3    28  ALA28       0.0304
     31  N         11.4440    8.1510   41.0280 N.am   29  LEU29      -0.1980
     32  CA        11.5010    9.1600   42.0950 C.3    29  LEU29       0.1596
     33  C         12.7750    9.1180   42.9820 C.2    29  LEU29       0.2287
     34  O         12.8410    9.8120   43.9820 O.2    29  LEU29      -0.2864
     35  CB        10.2660    9.0590   42.9770 C.3    29  LEU29       0.0297
     36  CG         8.9140    9.1340   42.2630 C.3    29  LEU29       0.0022
     37  CD1        7.7830    8.8690   43.2630 C.3    29  LEU29       0.0001
     38  CD2        8.7290   10.4900   41.5490 C.3    29  LEU29       0.0001
     39  N         -0.3660    3.2170   42.4380 N.3    67  ILE67      -0.1245
     40  CA         0.4570    3.0920   41.2360 C.3    67  ILE67       0.1561
     41  C         -0.3370    2.2860   40.2170 C.2    67  ILE67       0.2260
     42  O         -0.8020    1.1890   40.5160 O.2    67  ILE67      -0.2867
     43  CB         1.7630    2.3340   41.5160 C.3    67  ILE67       0.0252
     44  CG1        2.5620    3.0090   42.6250 C.3    67  ILE67       0.0019
     45  CG2        2.6060    2.2260   40.2420 C.3    67  ILE67       0.0019
     46  CD1        3.6590    2.0950   43.1890 C.3    67  ILE67       0.0001
     47  N          2.8850    4.5490   33.2400 N.3    74  ALA74      -0.1231
     48  CA         2.2670    4.3790   34.5450 C.3    74  ALA74       0.1694
     49  C          1.6900    5.6940   35.0150 C.2    74  ALA74       0.2592
     50  O          2.0790    6.7710   34.5280 O.2    74  ALA74      -0.2718
     51  CB         3.3090    3.8780   35.5610 C.3    74  ALA74       0.0304
     52  N          0.7780    5.6110   35.9770 N.am   75  GLU75      -0.1966
     53  CA         0.2060    6.7900   36.6210 C.3    75  GLU75       0.1733
     54  C          0.2580    6.6440   38.1260 C.2    75  GLU75       0.2616
     55  O          0.3490    5.5240   38.6560 O.2    75  GLU75      -0.2715
     56  CB        -1.2760    6.9340   36.2870 C.3    75  GLU75       0.0429
     57  CG        -1.6140    7.2040   34.8720 C.3    75  GLU75       0.1163
     58  CD        -3.1170    7.2470   34.6620 C.2    75  GLU75       0.3649
     59  OE1       -3.8340    7.8720   35.4980 O.co2  75  GLU75      -0.2457
     60  OE2       -3.5830    6.6700   33.6750 O.co2  75  GLU75      -0.2457
     61  N          0.1750    7.7850   38.8100 N.am   76  LEU76      -0.1977
     62  CA        -0.1590    7.8250   40.2330 C.3    76  LEU76       0.1596
     63  C         -1.5480    8.4170   40.3290 C.2    76  LEU76       0.2287
     64  O         -1.8260    9.4790   39.7470 O.2    76  LEU76      -0.2864
     65  CB         0.8060    8.7100   41.0270 C.3    76  LEU76       0.0297
     66  CG         2.2580    8.2580   41.1110 C.3    76  LEU76       0.0022
     67  CD1        3.0200    9.1980   41.9940 C.3    76  LEU76       0.0001
     68  CD2        2.3680    6.8170   41.6310 C.3    76  LEU76       0.0001
     69  N         -0.0790   11.8920   38.8640 N.3    92  GLY92      -0.1210
     70  CA         0.9280   11.9520   37.8210 C.3    92  GLY92       0.1956
     71  C          0.6870   10.9450   36.7180 C.2    92  GLY92       0.2612
     72  O          0.0730    9.8670   36.9380 O.2    92  GLY92      -0.2717
     73  N          1.1110   11.3080   35.5140 N.am   93  GLN93      -0.1965
     74  CA         1.0150   10.4340   34.3750 C.3    93  GLN93       0.1733
     75  C          2.3440   10.4840   33.6290 C.2    93  GLN93       0.2616
     76  O          2.9560   11.5570   33.4890 O.2    93  GLN93      -0.2715
     77  CB        -0.1320   10.8380   33.4370 C.3    93  GLN93       0.0408
     78  CG        -1.5250   11.0650   34.1210 C.3    93  GLN93       0.0908
     79  CD        -1.6320   12.4320   34.7960 C.2    93  GLN93       0.2608
     80  OE1       -1.1960   13.4300   34.2500 O.2    93  GLN93      -0.2717
     81  NE2       -2.2500   12.4710   35.9900 N.am   93  GLN93      -0.0878
     82  N          2.7960    9.3220   33.1680 N.am   94  ALA94      -0.1977
     83  CA         4.0620    9.2110   32.4670 C.3    94  ALA94       0.1597
     84  C          3.9310    8.2760   31.2830 C.2    94  ALA94       0.2287
     85  O          3.3090    7.1970   31.3800 O.2    94  ALA94      -0.2864
     86  CB         5.1680    8.6990   33.4210 C.3    94  ALA94       0.0319
     87  N          6.0590   13.5530   31.1170 N.3   103  PHE103     -0.1241
     88  CA         5.5250   13.5520   32.4620 C.3   103  PHE103      0.1605
     89  C          4.5660   14.7150   32.6500 C.2   103  PHE103      0.2264
     90  O          4.7630   15.7870   32.0830 O.2   103  PHE103     -0.2867
     91  CB         6.6650   13.7020   33.4750 C.3   103  PHE103      0.0534
     92  CG         7.6450   12.5760   33.4570 C.ar  103  PHE103     -0.0203
     93  CD1        7.4550   11.4700   34.2660 C.ar  103  PHE103     -0.0042
     94  CD2        8.7790   12.6260   32.6360 C.ar  103  PHE103     -0.0042
     95  CE1        8.3610   10.4030   34.2440 C.ar  103  PHE103     -0.0003
     96  CE2        9.6850   11.5800   32.6180 C.ar  103  PHE103     -0.0003
     97  CZ         9.4790   10.4650   33.4260 C.ar  103  PHE103     -0.0000
     98  N          2.4590   16.1200   36.2760 N.3   105  PHE105     -0.1241
     99  CA         2.1090   15.9540   37.6930 C.3   105  PHE105      0.1605
    100  C          1.1560   17.0150   38.1370 C.2   105  PHE105      0.2264
    101  O          1.2400   18.1600   37.6820 O.2   105  PHE105     -0.2867
    102  CB         3.3460   16.0160   38.5610 C.3   105  PHE105      0.0534
    103  CG         4.2350   14.8350   38.4090 C.ar  105  PHE105     -0.0203
    104  CD1        4.0340   13.7010   39.1800 C.ar  105  PHE105     -0.0042
    105  CD2        5.2330   14.8230   37.4490 C.ar  105  PHE105     -0.0042
    106  CE1        4.8180   12.5890   39.0220 C.ar  105  PHE105     -0.0003
    107  CE2        6.0340   13.7100   37.2910 C.ar  105  PHE105     -0.0003
    108  CZ         5.8160   12.5830   38.0840 C.ar  105  PHE105     -0.0000
    109  N         13.4170   14.2250   38.5100 N.3   142  LEU142     -0.1245
    110  CA        13.3180   13.0860   37.6280 C.3   142  LEU142      0.1561
    111  C         14.6060   12.9080   36.8220 C.2   142  LEU142      0.2260
    112  O         15.0860   11.7930   36.6640 O.2   142  LEU142     -0.2867
    113  CB        12.0950   13.1760   36.6990 C.3   142  LEU142      0.0270
    114  CG        10.8530   12.4640   37.2580 C.3   142  LEU142      0.0019
    115  CD1       10.2200   13.2660   38.3860 C.3   142  LEU142      0.0001
    116  CD2        9.8810   12.2220   36.2020 C.3   142  LEU142      0.0001
@<TRIPOS>BOND
     1    18    16    1
     2    17    16    1
     3    16    15    2
     4    87    88    1
     5    84    85    2
     6    84    83    1
     7    90    89    2
     8    15    14    1
     9    88    89    1
    10    88    91    1
    11    83    82    1
    12    83    86    1
    13     7     5    1
    14    96    94   ar
    15    96    97   ar
    16    94    92   ar
    17     6     5    1
    18    14    13    1
    19    82    75   am
    20    47    48    1
    21    97    95   ar
    22    77    78    1
    23    77    74    1
    24    92    91    1
    25    92    93   ar
    26    76    75    2
    27     5     2    1
    28    75    74    1
    29    60    58   ar
    30    13    12    1
    31    78    79    1
    32    95    93   ar
    33    80    79    2
    34    74    73    1
    35     1     2    1
    36    50    49    2
    37    48    49    1
    38    48    51    1
    39    58    57    1
    40    58    59   ar
    41     2     3    1
    42    79    81   am
    43    57    56    1
    44    49    52   am
    45    12     9    1
    46     8     3   am
    47     8     9    1
    48    73    71   am
    49     3     4    2
    50    52    53    1
    51     9    10    1
    52   116   114    1
    53    98    99    1
    54    56    53    1
    55    53    54    1
    56   112   111    2
    57   113   114    1
    58   113   110    1
    59    71    72    2
    60    71    70    1
    61   111   110    1
    62   114   115    1
    63   107   105   ar
    64   107   108   ar
    65   105   103   ar
    66    10    11    2
    67   110   109    1
    68   101   100    2
    69    99   100    1
    70    99   102    1
    71    70    69    1
    72   108   106   ar
    73    54    55    2
    74    54    61   am
    75    30    27    1
    76   103   102    1
    77   103   104   ar
    78    27    26    1
    79    27    28    1
    80    61    62    1
    81   106   104   ar
    82    29    28    2
    83    64    63    2
    84    28    31   am
    85    41    42    2
    86    41    40    1
    87    62    63    1
    88    62    65    1
    89    45    43    1
    90    19    25    1
    91    19    20    1
    92    65    66    1
    93    31    32    1
    94    66    68    1
    95    66    67    1
    96    40    43    1
    97    40    39    1
    98    25    24    1
    99    43    44    1
   100    38    36    1
   101    20    21    1
   102    20    23    1
   103    32    35    1
   104    32    33    1
   105    36    35    1
   106    36    37    1
   107    21    22    2
   108    44    46    1
   109    23    24    1
   110    33    34    2
