@<TRIPOS>MOLECULE
tmp/3nqoB01.pdb
 98 93 0 0 0
SMALL
GASTEIGER

@<TRIPOS>ATOM
      1  N         74.7960   41.3540   47.0820 N.3    32  PHE32      -0.1241
      2  CA        74.9720   40.8160   45.7130 C.3    32  PHE32       0.1605
      3  C         74.1520   41.5780   44.6980 C.2    32  PHE32       0.2264
      4  O         74.6340   41.8860   43.6270 O.2    32  PHE32      -0.2867
      5  CB        74.6350   39.3150   45.5940 C.3    32  PHE32       0.0534
      6  CG        75.5650   38.4130   46.3340 C.ar   32  PHE32      -0.0203
      7  CD1       76.9350   38.5120   46.1850 C.ar   32  PHE32      -0.0042
      8  CD2       75.0620   37.4310   47.1880 C.ar   32  PHE32      -0.0042
      9  CE1       77.7940   37.6360   46.8710 C.ar   32  PHE32      -0.0003
     10  CE2       75.9030   36.5740   47.8710 C.ar   32  PHE32      -0.0003
     11  CZ        77.2620   36.6660   47.7070 C.ar   32  PHE32      -0.0000
     12  N         74.0430   32.3190   43.8640 N.3    40  TYR40      -0.1241
     13  CA        75.5100   32.5080   43.9160 C.3    40  TYR40       0.1605
     14  C         76.2360   31.2410   44.3630 C.2    40  TYR40       0.2264
     15  O         77.2330   30.8110   43.7520 O.2    40  TYR40      -0.2867
     16  CB        75.8740   33.7030   44.8560 C.3    40  TYR40       0.0534
     17  CG        77.3580   33.9020   44.9910 C.ar   40  TYR40      -0.0201
     18  CD1       78.0470   34.6680   44.0780 C.ar   40  TYR40      -0.0009
     19  CD2       78.0800   33.2940   46.0050 C.ar   40  TYR40      -0.0009
     20  CE1       79.4150   34.8420   44.1650 C.ar   40  TYR40       0.0417
     21  CE2       79.4910   33.4600   46.1060 C.ar   40  TYR40       0.0417
     22  CZ        80.1460   34.2290   45.1640 C.ar   40  TYR40       0.1957
     23  OH        81.5250   34.4180   45.1900 O.3    40  TYR40      -0.2866
     24  N         78.7640   28.7650   42.2600 N.3    43  LEU43      -0.1245
     25  CA        80.0860   28.5180   42.8290 C.3    43  LEU43       0.1561
     26  C         80.3170   27.0030   43.0210 C.2    43  LEU43       0.2260
     27  O         81.3670   26.4740   42.5970 O.2    43  LEU43      -0.2867
     28  CB        80.2450   29.2810   44.1490 C.3    43  LEU43       0.0270
     29  CG        81.6300   29.5220   44.7350 C.3    43  LEU43       0.0019
     30  CD1       82.6210   30.2140   43.7620 C.3    43  LEU43       0.0001
     31  CD2       81.4320   30.3750   46.0190 C.3    43  LEU43       0.0001
     32  N         83.2250   24.6770   41.2860 N.3    47  HIS47      -0.1241
     33  CA        84.1140   23.8310   42.0920 C.3    47  HIS47       0.1621
     34  C         84.0610   22.3220   41.7510 C.2    47  HIS47       0.2264
     35  O         84.8220   21.5520   42.3330 O.2    47  HIS47      -0.2867
     36  CB        83.8020   23.9940   43.5890 C.3    47  HIS47       0.0745
     37  CG        84.4480   25.1800   44.2230 C.ar   47  HIS47       0.0817
     38  ND1       83.8830   26.4370   44.2040 N.ar   47  HIS47      -0.2268
     39  CD2       85.5880   25.2920   44.9460 C.ar   47  HIS47       0.1154
     40  CE1       84.6550   27.2760   44.8710 C.ar   47  HIS47       0.1986
     41  NE2       85.7020   26.6090   45.3210 N.ar   47  HIS47      -0.2212
     42  N         81.2910   38.2460   43.1170 N.3   108  SER108     -0.1217
     43  CA        82.4890   37.9000   43.9310 C.3   108  SER108      0.1889
     44  C         83.1680   39.1120   44.5230 C.2   108  SER108      0.2288
     45  O         83.6190   39.0650   45.6660 O.2   108  SER108     -0.2866
     46  CB        83.5350   37.1620   43.0990 C.3   108  SER108      0.2089
     47  OG        83.0570   35.8830   42.8350 O.3   108  SER108     -0.2183
     48  N         81.0000   40.1800   47.2060 N.3   111  GLY111     -0.1210
     49  CA        81.1900   39.1490   48.1990 C.3   111  GLY111      0.1956
     50  C         82.3470   39.4110   49.1330 C.2   111  GLY111      0.2611
     51  O         82.2390   39.1160   50.3070 O.2   111  GLY111     -0.2717
     52  N         83.4400   39.9790   48.6180 N.am  112  ILE112     -0.1979
     53  CA        84.5750   40.3190   49.4300 C.3   112  ILE112      0.1595
     54  C         84.2210   41.4120   50.4750 C.2   112  ILE112      0.2287
     55  O         84.6480   41.3100   51.6190 O.2   112  ILE112     -0.2864
     56  CB        85.7810   40.8030   48.5780 C.3   112  ILE112      0.0276
     57  CG1       86.3410   39.6400   47.7290 C.3   112  ILE112      0.0022
     58  CG2       86.8650   41.3980   49.4830 C.3   112  ILE112      0.0022
     59  CD1       87.4170   40.0590   46.6620 C.3   112  ILE112      0.0001
     60  N         81.1910   41.9090   51.5970 N.3   114  PHE114     -0.1241
     61  CA        80.2280   41.2690   52.4840 C.3   114  PHE114      0.1605
     62  C         80.9300   40.4450   53.6460 C.2   114  PHE114      0.2264
     63  O         80.5460   40.5270   54.8100 O.2   114  PHE114     -0.2867
     64  CB        79.2660   40.4260   51.6290 C.3   114  PHE114      0.0534
     65  CG        78.1540   39.7590   52.4080 C.ar  114  PHE114     -0.0203
     66  CD1       77.4160   40.4640   53.3590 C.ar  114  PHE114     -0.0042
     67  CD2       77.8400   38.4200   52.1730 C.ar  114  PHE114     -0.0042
     68  CE1       76.3750   39.8290   54.0660 C.ar  114  PHE114     -0.0003
     69  CE2       76.8060   37.7980   52.8510 C.ar  114  PHE114     -0.0003
     70  CZ        76.0850   38.4890   53.8060 C.ar  114  PHE114     -0.0000
     71  N         84.6420   23.5270   50.3460 N.3   146  PHE146     -0.1241
     72  CA        84.8900   24.4180   49.1990 C.3   146  PHE146      0.1605
     73  C         86.3740   24.7810   49.0110 C.2   146  PHE146      0.2264
     74  O         87.1470   24.8300   49.9680 O.2   146  PHE146     -0.2867
     75  CB        84.0700   25.7090   49.3740 C.3   146  PHE146      0.0534
     76  CG        82.6140   25.5670   48.9940 C.ar  146  PHE146     -0.0203
     77  CD1       81.7060   24.9620   49.8650 C.ar  146  PHE146     -0.0042
     78  CD2       82.1460   26.0500   47.7650 C.ar  146  PHE146     -0.0042
     79  CE1       80.3550   24.8270   49.5130 C.ar  146  PHE146     -0.0003
     80  CE2       80.8040   25.9230   47.4160 C.ar  146  PHE146     -0.0003
     81  CZ        79.9110   25.3080   48.2910 C.ar  146  PHE146     -0.0000
     82  N         92.3910   30.8890   41.7650 N.3   148  GLU148     -0.1245
     83  CA        91.3750   31.5830   42.5930 C.3   148  GLU148      0.1567
     84  C         92.0650   32.7580   43.3360 C.2   148  GLU148      0.2260
     85  O         91.6230   33.9090   43.2430 O.2   148  GLU148     -0.2867
     86  CB        90.6890   30.6300   43.6010 C.3   148  GLU148      0.0388
     87  CG        89.3710   31.1610   44.1840 C.3   148  GLU148      0.1160
     88  CD        88.1990   31.0500   43.2010 C.2   148  GLU148      0.3649
     89  OE1       87.7570   29.9150   42.9340 O.co2 148  GLU148     -0.2457
     90  OE2       87.7090   32.0900   42.6980 O.co2 148  GLU148     -0.2457
     91  N         92.2920   37.5980   42.4530 N.3   152  ILE152     -0.1245
     92  CA        91.8510   38.6950   43.3250 C.3   152  ILE152      0.1561
     93  C         92.8120   39.8810   43.2000 C.2   152  ILE152      0.2260
     94  O         94.0020   39.7690   43.4580 O.2   152  ILE152     -0.2867
     95  CB        91.7170   38.2770   44.7750 C.3   152  ILE152      0.0252
     96  CG1       90.5950   37.2390   44.9350 C.3   152  ILE152      0.0019
     97  CG2       91.4080   39.4800   45.6560 C.3   152  ILE152      0.0019
     98  CD1       90.7080   36.4420   46.2090 C.3   152  ILE152      0.0001
@<TRIPOS>BOND
     1    32    33    1
     2    34    33    1
     3    34    35    2
     4    82    83    1
     5    33    36    1
     6    24    25    1
     7    91    92    1
     8    83    84    1
     9    83    86    1
    10    27    26    2
    11    90    88   ar
    12    25    26    1
    13    25    28    1
    14    47    46    1
    15    89    88   ar
    16    46    43    1
    17    42    43    1
    18    93    92    1
    19    93    94    2
    20    88    87    1
    21    85    84    2
    22    92    95    1
    23    36    37    1
    24    86    87    1
    25     4     3    2
    26    15    14    2
    27    30    29    1
    28    12    13    1
    29    13    14    1
    30    13    16    1
    31    43    44    1
    32    18    20   ar
    33    18    17   ar
    34    28    29    1
    35    20    22   ar
    36    38    37   ar
    37    38    40   ar
    38    37    39   ar
    39    44    45    2
    40     3     2    1
    41    29    31    1
    42    95    96    1
    43    95    97    1
    44    16    17    1
    45    40    41   ar
    46    96    98    1
    47    39    41   ar
    48    17    19   ar
    49    22    23    1
    50    22    21   ar
    51     5     2    1
    52     5     6    1
    53     2     1    1
    54    19    21   ar
    55     7     6   ar
    56     7     9   ar
    57     6     8   ar
    58    59    57    1
    59     9    11   ar
    60     8    10   ar
    61    48    49    1
    62    80    78   ar
    63    80    81   ar
    64    11    10   ar
    65    57    56    1
    66    78    76   ar
    67    49    50    1
    68    81    79   ar
    69    56    53    1
    70    56    58    1
    71    52    50   am
    72    52    53    1
    73    76    75    1
    74    76    77   ar
    75    73    72    1
    76    73    74    2
    77    50    51    2
    78    72    75    1
    79    72    71    1
    80    53    54    1
    81    79    77   ar
    82    54    55    2
    83    60    61    1
    84    64    65    1
    85    64    61    1
    86    67    65   ar
    87    67    69   ar
    88    65    66   ar
    89    61    62    1
    90    69    70   ar
    91    66    68   ar
    92    62    63    2
    93    70    68   ar
