@<TRIPOS>MOLECULE
tmp/3nqvA00.pdb
 99 89 0 0 0
SMALL
GASTEIGER

@<TRIPOS>ATOM
      1  N         23.1940  -14.4840    9.2820 N.3    13  HIS13      -0.1241
      2  CA        24.3740  -14.2670   10.1250 C.3    13  HIS13       0.1621
      3  C         24.8360  -15.6940   10.3460 C.2    13  HIS13       0.2264
      4  O         24.2790  -16.4390   11.1600 O.2    13  HIS13      -0.2867
      5  CB        23.9780  -13.6120   11.4470 C.3    13  HIS13       0.0745
      6  CG        23.5850  -12.1740   11.3090 C.ar   13  HIS13       0.0817
      7  ND1       23.3010  -11.3710   12.3950 N.ar   13  HIS13      -0.2268
      8  CD2       23.4460  -11.3910   10.2160 C.ar   13  HIS13       0.1154
      9  CE1       23.0060  -10.1510   11.9730 C.ar   13  HIS13       0.1986
     10  NE2       23.0890  -10.1370   10.6560 N.ar   13  HIS13      -0.2212
     11  N         29.0020  -15.0460   12.4420 N.3    41  PHE41      -0.1241
     12  CA        28.9200  -14.9510   13.8820 C.3    41  PHE41       0.1605
     13  C         30.0000  -15.8300   14.4920 C.2    41  PHE41       0.2264
     14  O         30.0280  -17.0520   14.2620 O.2    41  PHE41      -0.2867
     15  CB        27.5590  -15.4150   14.3960 C.3    41  PHE41       0.0534
     16  CG        27.4650  -15.4260   15.8920 C.ar   41  PHE41      -0.0203
     17  CD1       27.8450  -16.5470   16.6270 C.ar   41  PHE41      -0.0042
     18  CD2       27.0360  -14.3010   16.5740 C.ar   41  PHE41      -0.0042
     19  CE1       27.7830  -16.5370   18.0190 C.ar   41  PHE41      -0.0003
     20  CE2       26.9690  -14.3030   17.9800 C.ar   41  PHE41      -0.0003
     21  CZ        27.3550  -15.4160   18.6830 C.ar   41  PHE41      -0.0000
     22  N         29.6990  -10.4100   13.5050 N.3    65  CYS65      -0.1221
     23  CA        28.9030  -10.2940   14.7110 C.3    65  CYS65       0.1808
     24  C         29.5040  -11.1680   15.7830 C.2    65  CYS65       0.2601
     25  O         30.0490  -12.2230   15.4790 O.2    65  CYS65      -0.2717
     26  CB        27.4820  -10.7670   14.4170 C.3    65  CYS65       0.0970
     27  SG        26.7430   -9.7440   13.1320 S.3    65  CYS65      -0.0800
     28  N         29.4080  -10.7470   17.0320 N.am   66  THR66      -0.1953
     29  CA        29.9330  -11.6080   18.1090 C.3    66  THR66       0.1897
     30  C         29.0310  -11.5060   19.3280 C.2    66  THR66       0.2313
     31  O         27.9680  -10.8510   19.2790 O.2    66  THR66      -0.2863
     32  CB        31.4010  -11.2410   18.4290 C.3    66  THR66       0.1794
     33  OG1       31.9610  -12.2140   19.3090 O.3    66  THR66      -0.2208
     34  CG2       31.4630   -9.8720   19.0850 C.3    66  THR66       0.0378
     35  N         28.8740   -5.7990   15.2910 N.3    94  SER94      -0.1217
     36  CA        27.7500   -5.8700   16.2080 C.3    94  SER94       0.1889
     37  C         28.1850   -6.7560   17.3670 C.2    94  SER94       0.2288
     38  O         28.9310   -7.7260   17.1560 O.2    94  SER94      -0.2866
     39  CB        26.5410   -6.5090   15.4910 C.3    94  SER94       0.2089
     40  OG        25.5110   -6.8710   16.3890 O.3    94  SER94      -0.2183
     41  N         26.2490   -8.9810   20.3900 N.3    96  ALA96      -0.1245
     42  CA        25.0170   -9.4840   20.9890 C.3    96  ALA96       0.1562
     43  C         25.2950   -9.8290   22.4300 C.2    96  ALA96       0.2260
     44  O         25.9940  -10.8260   22.7170 O.2    96  ALA96      -0.2867
     45  CB        24.5110  -10.7430   20.2530 C.3    96  ALA96       0.0290
     46  N         23.0700   -5.8780   19.9420 N.3   131  ALA131     -0.1245
     47  CA        21.9310   -6.7760   19.9530 C.3   131  ALA131      0.1562
     48  C         21.8070   -7.3560   21.3640 C.2   131  ALA131      0.2260
     49  O         22.8070   -7.4650   22.0990 O.2   131  ALA131     -0.2867
     50  CB        22.1220   -7.9000   18.9060 C.3   131  ALA131      0.0290
     51  N         20.3530  -10.7310   23.3460 N.3   133  ILE133     -0.1245
     52  CA        19.8150  -12.1200   23.3290 C.3   133  ILE133      0.1561
     53  C         19.0430  -12.3460   24.6220 C.2   133  ILE133      0.2260
     54  O         19.6430  -12.3320   25.7200 O.2   133  ILE133     -0.2867
     55  CB        20.9620  -13.1510   23.2600 C.3   133  ILE133      0.0252
     56  CG1       21.6870  -13.0420   21.9050 C.3   133  ILE133      0.0019
     57  CG2       20.3720  -14.5720   23.5230 C.3   133  ILE133      0.0019
     58  CD1       23.0460  -13.7870   21.8130 C.3   133  ILE133      0.0001
     59  N         18.8390   -4.3760   18.4070 N.3   159  ASN159     -0.1240
     60  CA        18.2140   -5.5950   17.8680 C.3   159  ASN159      0.1653
     61  C         17.8660   -6.4600   19.0610 C.2   159  ASN159      0.2266
     62  O         18.5470   -6.4060   20.0930 O.2   159  ASN159     -0.2867
     63  CB        19.1910   -6.3770   16.9890 C.3   159  ASN159      0.1155
     64  CG        19.3320   -5.8050   15.5960 C.2   159  ASN159      0.2627
     65  OD1       18.3400   -5.5560   14.8960 O.2   159  ASN159     -0.2716
     66  ND2       20.5830   -5.6090   15.1730 N.am  159  ASN159     -0.0877
     67  N         16.9890  -10.5220   20.1120 N.3   161  VAL161     -0.1245
     68  CA        17.4200  -11.7960   19.5260 C.3   161  VAL161      0.1561
     69  C         16.8650  -12.9400   20.3450 C.2   161  VAL161      0.2260
     70  O         16.8400  -12.8780   21.5650 O.2   161  VAL161     -0.2867
     71  CB        18.9700  -11.8510   19.5030 C.3   161  VAL161      0.0252
     72  CG1       19.4810  -13.1340   18.8180 C.3   161  VAL161      0.0019
     73  CG2       19.5480  -10.5750   18.8230 C.3   161  VAL161      0.0019
     74  N         23.3060  -18.6640   19.9150 N.3   165  PRO165     -0.2116
     75  CA        23.6680  -19.6460   18.9170 C.3   165  PRO165      0.1372
     76  C         24.2640  -20.8940   19.5640 C.2   165  PRO165      0.2244
     77  O         25.1410  -20.8050   20.4310 O.2   165  PRO165     -0.2868
     78  CB        24.6910  -18.9060   18.0460 C.3   165  PRO165      0.0268
     79  CG        24.2530  -17.4650   18.1220 C.3   165  PRO165      0.0207
     80  CD        23.7310  -17.2950   19.5290 C.3   165  PRO165      0.0892
     81  N         16.1300  -10.8090   15.4460 N.3   196  ILE196     -0.1245
     82  CA        16.9590  -11.9190   14.9620 C.3   196  ILE196      0.1561
     83  C         16.5060  -13.2340   15.5630 C.2   196  ILE196      0.2260
     84  O         16.6890  -13.4750   16.7590 O.2   196  ILE196     -0.2867
     85  CB        18.4460  -11.6880   15.3470 C.3   196  ILE196      0.0252
     86  CG1       18.9100  -10.3210   14.8470 C.3   196  ILE196      0.0019
     87  CG2       19.3140  -12.7920   14.7730 C.3   196  ILE196      0.0019
     88  CD1       20.3770  -10.1160   15.0780 C.3   196  ILE196      0.0001
     89  N         17.3090  -16.8640   16.1780 N.3   198  VAL198     -0.1245
     90  CA        18.4690  -17.7700   16.2070 C.3   198  VAL198      0.1561
     91  C         17.9810  -19.1870   16.4390 C.2   198  VAL198      0.2260
     92  O         17.2540  -19.4480   17.3920 O.2   198  VAL198     -0.2867
     93  CB        19.4500  -17.3830   17.3280 C.3   198  VAL198      0.0252
     94  CG1       20.5580  -18.4230   17.4490 C.3   198  VAL198      0.0019
     95  CG2       20.0250  -15.9580   17.0440 C.3   198  VAL198      0.0019
     96  N         19.9390  -16.0430   12.3380 N.3   231  GLY231     -0.1225
     97  CA        21.1500  -16.5670   12.9860 C.3   231  GLY231      0.1811
     98  C         21.0780  -18.0670   12.8350 C.2   231  GLY231      0.2280
     99  O         20.2810  -18.7270   13.5070 O.2   231  GLY231     -0.2866
@<TRIPOS>BOND
     1     1     2    1
     2     2     3    1
     3     2     5    1
     4     8    10   ar
     5     8     6   ar
     6     3     4    2
     7    10     9   ar
     8     6     5    1
     9     6     7   ar
    10     9     7   ar
    11    96    97    1
    12    11    12    1
    13    98    97    1
    14    98    99    2
    15    27    26    1
    16    22    23    1
    17    12    15    1
    18    12    13    1
    19    14    13    2
    20    15    16    1
    21    26    23    1
    22    23    24    1
    23    87    85    1
    24    86    88    1
    25    86    85    1
    26    65    64    2
    27    82    85    1
    28    82    81    1
    29    82    83    1
    30    66    64   am
    31    35    36    1
    32    25    24    2
    33    39    36    1
    34    39    40    1
    35    83    84    2
    36    64    63    1
    37    24    28   am
    38    16    18   ar
    39    16    17   ar
    40    89    90    1
    41    90    91    1
    42    90    93    1
    43    36    37    1
    44    91    92    2
    45    18    20   ar
    46    17    19   ar
    47    63    60    1
    48    28    29    1
    49    95    93    1
    50    38    37    2
    51    93    94    1
    52    60    59    1
    53    60    61    1
    54    20    21   ar
    55    19    21   ar
    56    78    79    1
    57    78    75    1
    58    29    32    1
    59    29    30    1
    60    79    80    1
    61    32    34    1
    62    32    33    1
    63    72    71    1
    64    73    71    1
    65    50    47    1
    66    75    76    1
    67    75    74    1
    68    61    62    2
    69    31    30    2
    70    71    68    1
    71    68    67    1
    72    68    69    1
    73    80    74    1
    74    76    77    2
    75    46    47    1
    76    47    48    1
    77    45    42    1
    78    69    70    2
    79    41    42    1
    80    42    43    1
    81    48    49    2
    82    58    56    1
    83    56    55    1
    84    43    44    2
    85    55    52    1
    86    55    57    1
    87    52    51    1
    88    52    53    1
    89    53    54    2
