@<TRIPOS>MOLECULE
tmp/3nr3A00.pdb
 200 184 0 0 0
SMALL
GASTEIGER

@<TRIPOS>ATOM
      1  N         -0.4620   35.1780   27.5980 N.3    20  PHE20      -0.1241
      2  CA         0.2200   34.9050   26.3080 C.3    20  PHE20       0.1605
      3  C         -0.6060   35.3800   25.1080 C.2    20  PHE20       0.2264
      4  O         -0.0450   35.8180   24.0930 O.2    20  PHE20      -0.2867
      5  CB         0.5080   33.4190   26.1760 C.3    20  PHE20       0.0534
      6  CG         1.5180   33.0630   25.1110 C.ar   20  PHE20      -0.0203
      7  CD1        2.7070   33.7600   24.9890 C.ar   20  PHE20      -0.0042
      8  CD2        1.2850   31.9830   24.2530 C.ar   20  PHE20      -0.0042
      9  CE1        3.6570   33.3950   24.0180 C.ar   20  PHE20      -0.0003
     10  CE2        2.2190   31.6220   23.2910 C.ar   20  PHE20      -0.0003
     11  CZ         3.4040   32.3180   23.1840 C.ar   20  PHE20      -0.0000
     12  N         -0.0070   39.0780   24.6310 N.3    23  TYR23      -0.1227
     13  CA         1.3630   39.2590   24.1590 C.3    23  TYR23       0.1736
     14  C          1.4480   38.8900   22.6470 C.2    23  TYR23       0.2595
     15  O          2.0350   39.6280   21.8670 O.2    23  TYR23      -0.2718
     16  CB         2.3530   38.4360   24.9890 C.3    23  TYR23       0.0548
     17  CG         3.7720   38.5000   24.4800 C.ar   23  TYR23      -0.0200
     18  CD1        4.5200   39.6610   24.5790 C.ar   23  TYR23      -0.0009
     19  CD2        4.3520   37.3990   23.8640 C.ar   23  TYR23      -0.0009
     20  CE1        5.8310   39.7100   24.0800 C.ar   23  TYR23       0.0417
     21  CE2        5.6360   37.4420   23.3560 C.ar   23  TYR23       0.0417
     22  CZ         6.3760   38.5870   23.4600 C.ar   23  TYR23       0.1957
     23  OH         7.6680   38.5880   22.9790 O.3    23  TYR23      -0.2866
     24  N          0.8350   37.7730   22.2510 N.am   24  MET24      -0.1979
     25  CA         0.7790   37.3930   20.8180 C.3    24  MET24       0.1605
     26  C          0.0440   38.4590   19.9980 C.2    24  MET24       0.2287
     27  O          0.5070   38.8360   18.9330 O.2    24  MET24      -0.2864
     28  CB         0.1350   36.0100   20.6270 C.3    24  MET24       0.0413
     29  CG         1.0560   34.8680   20.9990 C.3    24  MET24       0.0598
     30  SD         0.3980   33.2420   20.6180 S.3    24  MET24      -0.1393
     31  CE        -1.0250   33.2260   21.7070 C.3    24  MET24       0.0692
     32  N          2.2020   41.2840   19.2610 N.3    27  LEU27      -0.1245
     33  CA         3.2180   40.9080   18.2740 C.3    27  LEU27       0.1561
     34  C          2.6640   40.8860   16.8440 C.2    27  LEU27       0.2260
     35  O          3.4410   40.8270   15.9020 O.2    27  LEU27      -0.2867
     36  CB         3.7990   39.5210   18.5800 C.3    27  LEU27       0.0270
     37  CG         4.7200   39.3760   19.7900 C.3    27  LEU27       0.0019
     38  CD1        5.2080   37.9230   19.8960 C.3    27  LEU27       0.0001
     39  CD2        5.8760   40.3430   19.6720 C.3    27  LEU27       0.0001
     40  N          0.1770   38.5470   15.8930 N.3    29  VAL29      -0.1245
     41  CA        -0.2100   37.1800   15.5630 C.3    29  VAL29       0.1561
     42  C         -1.7030   37.1450   15.3730 C.2    29  VAL29       0.2260
     43  O         -2.4400   37.7700   16.1340 O.2    29  VAL29      -0.2867
     44  CB         0.1960   36.1780   16.6630 C.3    29  VAL29       0.0252
     45  CG1       -0.1880   34.7580   16.2770 C.3    29  VAL29       0.0019
     46  CG2        1.6870   36.2790   16.9310 C.3    29  VAL29       0.0019
     47  N         -3.7680   31.3390   14.8500 N.3    33  THR33      -0.1218
     48  CA        -2.4270   31.0090   15.3010 C.3    33  THR33       0.1862
     49  C         -2.3230   31.2070   16.8290 C.2    33  THR33       0.2287
     50  O         -1.6940   30.4000   17.5000 O.2    33  THR33      -0.2866
     51  CB        -1.4100   31.8650   14.5480 C.3    33  THR33       0.1770
     52  OG1       -1.5750   31.6000   13.1410 O.3    33  THR33      -0.2211
     53  CG2        0.0550   31.5870   15.0020 C.3    33  THR33       0.0375
     54  N         -1.2490   28.6370   19.6530 N.3    37  GLY37      -0.1225
     55  CA        -0.1720   29.0610   20.5220 C.3    37  GLY37       0.1811
     56  C         -0.5270   28.9010   21.9810 C.2    37  GLY37       0.2280
     57  O          0.2740   28.3840   22.7670 O.2    37  GLY37      -0.2866
     58  N         -0.3100   25.3300   23.0870 N.3    40  ALA40      -0.1245
     59  CA         1.0120   24.7080   23.0730 C.3    40  ALA40       0.1562
     60  C          1.6100   24.6570   24.4620 C.2    40  ALA40       0.2260
     61  O          1.4840   25.6090   25.2440 O.2    40  ALA40      -0.2867
     62  CB         1.9380   25.4840   22.1590 C.3    40  ALA40       0.0290
     63  N          5.2800   24.0420   25.1920 N.3    42  PRO42      -0.2116
     64  CA         6.5840   23.6970   24.6610 C.3    42  PRO42       0.1372
     65  C          7.6240   23.2160   25.6520 C.2    42  PRO42       0.2244
     66  O          7.5380   23.4530   26.8590 O.2    42  PRO42      -0.2868
     67  CB         7.0790   25.0130   24.0520 C.3    42  PRO42       0.0268
     68  CG         5.8900   25.8600   23.9130 C.3    42  PRO42       0.0207
     69  CD         4.9860   25.4730   25.0220 C.3    42  PRO42       0.0892
     70  N         11.7480   23.7310   26.0770 N.3    44  VAL44      -0.1245
     71  CA        12.8130   24.6470   25.7130 C.3    44  VAL44       0.1561
     72  C         14.0950   24.0280   26.2110 C.2    44  VAL44       0.2260
     73  O         14.2000   23.6980   27.3910 O.2    44  VAL44      -0.2867
     74  CB        12.5760   26.0450   26.3190 C.3    44  VAL44       0.0252
     75  CG1       13.8020   27.0000   26.1340 C.3    44  VAL44       0.0019
     76  CG2       11.2900   26.6390   25.7420 C.3    44  VAL44       0.0019
     77  N         13.3040   25.4820   20.9560 N.3    57  THR57      -0.1218
     78  CA        11.9380   25.3560   21.4130 C.3    57  THR57       0.1862
     79  C         11.2340   24.3090   20.5720 C.2    57  THR57       0.2287
     80  O         11.3010   24.3460   19.3480 O.2    57  THR57      -0.2866
     81  CB        11.1840   26.6960   21.3520 C.3    57  THR57       0.1770
     82  OG1       11.9150   27.6980   22.0930 O.3    57  THR57      -0.2211
     83  CG2        9.7880   26.5470   21.8950 C.3    57  THR57       0.0375
     84  N          7.5170   22.2740   20.0450 N.3    59  SER59      -0.1217
     85  CA         6.1030   22.0490   20.3140 C.3    59  SER59       0.1889
     86  C          5.5190   21.4030   19.0860 C.2    59  SER59       0.2288
     87  O          6.1580   21.3990   18.0550 O.2    59  SER59      -0.2866
     88  CB         5.3850   23.3710   20.6020 C.3    59  SER59       0.2089
     89  OG         5.3230   24.2020   19.4600 O.3    59  SER59      -0.2183
     90  N          2.9730   22.5180   17.3610 N.3    61  PHE61      -0.1227
     91  CA         2.7070   23.5880   16.4130 C.3    61  PHE61       0.1736
     92  C          3.9960   24.1240   15.7530 C.2    61  PHE61       0.2595
     93  O          4.0520   24.2200   14.5310 O.2    61  PHE61      -0.2718
     94  CB         1.9130   24.6970   17.1010 C.3    61  PHE61       0.0547
     95  CG         1.4490   25.8180   16.1830 C.ar   61  PHE61      -0.0202
     96  CD1        1.0410   25.5790   14.8780 C.ar   61  PHE61      -0.0042
     97  CD2        1.3850   27.1190   16.6630 C.ar   61  PHE61      -0.0042
     98  CE1        0.6230   26.6050   14.0690 C.ar   61  PHE61      -0.0003
     99  CE2        0.9560   28.1460   15.8620 C.ar   61  PHE61      -0.0003
    100  CZ         0.5850   27.8860   14.5480 C.ar   61  PHE61      -0.0000
    101  N          5.0110   24.4700   16.5400 N.am   62  LYS62      -0.1980
    102  CA         6.2290   25.1520   16.0220 C.3    62  LYS62       0.1596
    103  C          7.5060   24.7630   16.7740 C.2    62  LYS62       0.2287
    104  O          7.5540   24.7430   18.0050 O.2    62  LYS62      -0.2864
    105  CB         6.0970   26.6900   16.0780 C.3    62  LYS62       0.0298
    106  CG         5.0190   27.3370   15.1590 C.3    62  LYS62       0.0038
    107  CD         5.4240   27.3690   13.6700 C.3    62  LYS62       0.0206
    108  CE         4.2390   27.7980   12.7530 C.3    62  LYS62       0.1093
    109  NZ         4.4790   27.5520   11.2650 N.3    62  LYS62      -0.1314
    110  N         11.4910   26.0170   17.0660 N.3    64  THR64      -0.1218
    111  CA        12.4090   27.1170   16.7320 C.3    64  THR64       0.1862
    112  C         13.7690   26.7830   17.3050 C.2    64  THR64       0.2287
    113  O         13.8850   26.0060   18.2500 O.2    64  THR64      -0.2866
    114  CB        11.9500   28.4970   17.2760 C.3    64  THR64       0.1770
    115  OG1       11.9640   28.4930   18.7080 O.3    64  THR64      -0.2211
    116  CG2       10.5630   28.8150   16.8250 C.3    64  THR64       0.0375
    117  N         11.4520   34.0620   14.2610 N.3    78  THR78      -0.1203
    118  CA        10.7330   33.7210   15.4790 C.3    78  THR78       0.1994
    119  C          9.6780   32.6780   15.1380 C.2    78  THR78       0.2618
    120  O          9.3820   32.4630   13.9560 O.2    78  THR78      -0.2717
    121  CB        10.0370   34.9440   16.1000 C.3    78  THR78       0.1784
    122  OG1        9.0080   35.4210   15.2290 O.3    78  THR78      -0.2211
    123  CG2       11.0420   36.0620   16.3730 C.3    78  THR78       0.0376
    124  N          9.0840   32.0900   16.1730 N.am   79  ALA79      -0.1965
    125  CA         8.0080   31.0930   16.0200 C.3    79  ALA79       0.1728
    126  C          6.8380   31.5910   15.1900 C.2    79  ALA79       0.2616
    127  O          6.1340   30.7900   14.5670 O.2    79  ALA79      -0.2715
    128  CB         7.5050   30.6420   17.3940 C.3    79  ALA79       0.0334
    129  N          6.5810   32.8920   15.2330 N.am   80  ASP80      -0.1971
    130  CA         5.5000   33.4780   14.4600 C.3    80  ASP80       0.1709
    131  C          6.0180   34.0660   13.1530 C.2    80  ASP80       0.2293
    132  O          5.3510   34.8950   12.5710 O.2    80  ASP80      -0.2864
    133  CB         4.7290   34.5430   15.2650 C.3    80  ASP80       0.1436
    134  CG         5.6100   35.6480   15.8120 C.2    80  ASP80       0.3671
    135  OD1        6.7220   35.3450   16.2910 O.co2  80  ASP80      -0.2456
    136  OD2        5.1630   36.8260   15.7960 O.co2  80  ASP80      -0.2456
    137  N          8.4990   36.2200   12.4110 N.3    82  ARG82      -0.1245
    138  CA         9.0650   37.5520   12.2950 C.3    82  ARG82       0.1563
    139  C         10.5220   37.3130   12.0390 C.2    82  ARG82       0.2260
    140  O         11.0790   36.3060   12.5110 O.2    82  ARG82      -0.2867
    141  CB         8.8860   38.3870   13.5820 C.3    82  ARG82       0.0307
    142  CG         7.5030   38.9850   13.7960 C.3    82  ARG82       0.0489
    143  CD         7.3500   39.5210   15.2340 C.3    82  ARG82       0.2205
    144  NE         7.4070   38.4370   16.2330 N.pl3  82  ARG82      -0.0865
    145  CZ         8.2720   38.3530   17.2520 C.cat  82  ARG82       0.5346
    146  NH1        9.1840   39.3010   17.4900 N.pl3  82  ARG82       0.1354
    147  NH2        8.2230   37.2940   18.0520 N.pl3  82  ARG82       0.1354
    148  N         12.4060   39.2800   26.0490 N.3   108  ILE108     -0.1245
    149  CA        12.1010   38.0670   26.7920 C.3   108  ILE108      0.1561
    150  C         13.2360   37.9470   27.7910 C.2   108  ILE108      0.2260
    151  O         14.4000   37.8230   27.4060 O.2   108  ILE108     -0.2867
    152  CB        12.0340   36.7970   25.9080 C.3   108  ILE108      0.0252
    153  CG1       10.9830   36.9760   24.8000 C.3   108  ILE108      0.0019
    154  CG2       11.6960   35.5750   26.7530 C.3   108  ILE108      0.0019
    155  CD1       11.0260   35.8970   23.7300 C.3   108  ILE108      0.0001
    156  N         14.6040   35.8040   30.9400 N.3   110  ARG110     -0.1245
    157  CA        14.5070   34.5000   31.5490 C.3   110  ARG110      0.1563
    158  C         15.3640   34.5260   32.7980 C.2   110  ARG110      0.2260
    159  O         16.5260   34.9260   32.7580 O.2   110  ARG110     -0.2867
    160  CB        14.9600   33.4080   30.5900 C.3   110  ARG110      0.0307
    161  CG        14.0670   33.2760   29.3710 C.3   110  ARG110      0.0489
    162  CD        14.5460   32.2060   28.4030 C.3   110  ARG110      0.2205
    163  NE        13.6100   31.9340   27.2960 N.pl3 110  ARG110     -0.0865
    164  CZ        13.6650   32.4930   26.0800 C.cat 110  ARG110      0.5346
    165  NH1       14.5700   33.4280   25.7920 N.pl3 110  ARG110      0.1354
    166  NH2       12.7810   32.1420   25.1530 N.pl3 110  ARG110      0.1354
    167  N         10.0040   33.0710   32.3100 N.3   119  ALA119     -0.1245
    168  CA        10.2170   33.9300   31.1540 C.3   119  ALA119      0.1562
    169  C          9.1940   35.0540   31.1800 C.2   119  ALA119      0.2260
    170  O          8.0000   34.8110   31.1450 O.2   119  ALA119     -0.2867
    171  CB        10.1080   33.0990   29.8300 C.3   119  ALA119      0.0290
    172  N          7.7550   38.1060   29.1230 N.3   121  CYS121     -0.1235
    173  CA         7.7120   38.5200   27.7190 C.3   121  CYS121      0.1677
    174  C          6.9820   39.8540   27.6150 C.2   121  CYS121      0.2270
    175  O          5.8070   39.9310   27.9460 O.2   121  CYS121     -0.2867
    176  CB         6.9800   37.4550   26.8910 C.3   121  CYS121      0.0956
    177  SG         7.6180   35.7700   27.1080 S.3   121  CYS121     -0.0801
    178  N          5.6340   33.2210   31.7320 N.3   130  ARG130     -0.1245
    179  CA         5.6100   31.8040   31.4160 C.3   130  ARG130      0.1563
    180  C          6.5700   31.0790   32.3140 C.2   130  ARG130      0.2260
    181  O          7.7370   31.4340   32.4010 O.2   130  ARG130     -0.2867
    182  CB         5.9680   31.5760   29.9250 C.3   130  ARG130      0.0307
    183  CG         4.7820   31.8170   29.0160 C.3   130  ARG130      0.0489
    184  CD         5.1570   32.1040   27.5570 C.3   130  ARG130      0.2205
    185  NE         5.4580   30.9310   26.7350 N.pl3 130  ARG130     -0.0865
    186  CZ         4.5540   30.0820   26.2320 C.cat 130  ARG130      0.5346
    187  NH1        3.2520   30.2050   26.5090 N.pl3 130  ARG130      0.1354
    188  NH2        4.9550   29.0770   25.4570 N.pl3 130  ARG130      0.1354
    189  N          8.5300   27.5880   33.5980 N.3   132  TYR132     -0.1241
    190  CA         9.0640   26.3080   33.1650 C.3   132  TYR132      0.1605
    191  C          9.7080   25.5380   34.3100 C.2   132  TYR132      0.2264
    192  O         10.3400   26.1280   35.1890 O.2   132  TYR132     -0.2867
    193  CB        10.1450   26.5250   32.1230 C.3   132  TYR132      0.0534
    194  CG         9.6460   27.1010   30.8230 C.ar  132  TYR132     -0.0201
    195  CD1        9.3670   26.2770   29.7380 C.ar  132  TYR132     -0.0009
    196  CD2        9.4600   28.4650   30.6700 C.ar  132  TYR132     -0.0009
    197  CE1        8.9220   26.8110   28.5260 C.ar  132  TYR132      0.0417
    198  CE2        9.0340   29.0050   29.4440 C.ar  132  TYR132      0.0417
    199  CZ         8.7510   28.1770   28.3980 C.ar  132  TYR132      0.1957
    200  OH         8.3110   28.7000   27.2020 O.3   132  TYR132     -0.2866
@<TRIPOS>BOND
     1   109   108    1
     2   139   138    1
     3   139   140    2
     4   138   137    1
     5   138   141    1
     6   132   131    2
     7   108   107    1
     8    52    51    1
     9   131   130    1
    10   141   142    1
    11   107   106    1
    12   142   143    1
    13   120   119    2
    14    98   100   ar
    15    98    96   ar
    16   117   118    1
    17   130   129    1
    18   130   133    1
    19    93    92    2
    20    51    53    1
    21    51    48    1
    22   100    99   ar
    23   127   126    2
    24    47    48    1
    25    96    95   ar
    26   119   118    1
    27   119   124   am
    28   106   105    1
    29   126   129   am
    30   126   125    1
    31   122   121    1
    32   143   144    1
    33   133   134    1
    34    48    49    1
    35    42    41    1
    36    42    43    2
    37   118   121    1
    38    41    40    1
    39    41    44    1
    40    92    91    1
    41    92   101   am
    42   136   134   ar
    43   134   135   ar
    44    99    97   ar
    45    35    34    2
    46   125   124    1
    47   125   128    1
    48   102   105    1
    49   102   101    1
    50   102   103    1
    51   121   123    1
    52    95    97   ar
    53    95    94    1
    54   144   145    2
    55    45    44    1
    56    91    94    1
    57    91    90    1
    58    44    46    1
    59   111   110    1
    60   111   114    1
    61   111   112    1
    62   103   104    2
    63   116   114    1
    64    49    50    2
    65    34    33    1
    66   145   146    1
    67   145   147    1
    68   114   115    1
    69   112   113    2
    70    87    86    2
    71    33    36    1
    72    33    32    1
    73    36    37    1
    74    27    26    2
    75    86    85    1
    76    80    79    2
    77    89    88    1
    78    54    55    1
    79    39    37    1
    80    37    38    1
    81    26    25    1
    82    84    85    1
    83    85    88    1
    84    55    56    1
    85    79    78    1
    86    30    29    1
    87    30    31    1
    88    28    25    1
    89    28    29    1
    90    25    24    1
    91    77    78    1
    92    81    78    1
    93    81    83    1
    94    81    82    1
    95    15    14    2
    96    56    57    2
    97    62    59    1
    98    24    14   am
    99    14    13    1
   100    23    22    1
   101    59    58    1
   102    59    60    1
   103    11    10   ar
   104    11     9   ar
   105    10     8   ar
   106    21    22   ar
   107    21    19   ar
   108    22    20   ar
   109   155   153    1
   110    19    17   ar
   111    68    67    1
   112    68    69    1
   113     9     7   ar
   114    67    64    1
   115    20    18   ar
   116     4     3    2
   117    13    12    1
   118    13    16    1
   119     8     6   ar
   120    60    61    2
   121    17    18   ar
   122    17    16    1
   123    64    63    1
   124    64    65    1
   125   153   152    1
   126     7     6   ar
   127    69    63    1
   128     3     2    1
   129     6     5    1
   130   166   164    1
   131   188   186    1
   132    65    66    2
   133    71    70    1
   134    71    72    1
   135    71    74    1
   136    76    74    1
   137   165   164    1
   138   152   154    1
   139   152   149    1
   140   148   149    1
   141   164   163    2
   142    75    74    1
   143     5     2    1
   144    72    73    2
   145   186   187    1
   146   186   185    2
   147     2     1    1
   148   185   184    1
   149   149   150    1
   150   176   177    1
   151   176   173    1
   152   200   199    1
   153   163   162    1
   154   151   150    2
   155   184   183    1
   156   174   173    1
   157   174   175    2
   158   173   172    1
   159   199   197   ar
   160   199   198   ar
   161   162   161    1
   162   197   195   ar
   163   183   182    1
   164   161   160    1
   165   198   196   ar
   166   195   194   ar
   167   171   168    1
   168   182   179    1
   169   160   157    1
   170   196   194   ar
   171   194   193    1
   172   156   157    1
   173   170   169    2
   174   168   169    1
   175   168   167    1
   176   179   178    1
   177   179   180    1
   178   157   158    1
   179   193   190    1
   180   180   181    2
   181   159   158    2
   182   190   189    1
   183   190   191    1
   184   191   192    2
