@<TRIPOS>MOLECULE
tmp/3nr9A00.pdb
 162 152 0 0 0
SMALL
GASTEIGER

@<TRIPOS>ATOM
      1  N         76.8700   -1.8110    1.3890 N.3    33  LEU33      -0.1231
      2  CA        76.7740   -2.2730   -0.0030 C.3    33  LEU33       0.1693
      3  C         78.1210   -2.7200   -0.5910 C.2    33  LEU33       0.2593
      4  O         78.1390   -3.4220   -1.5950 O.2    33  LEU33      -0.2718
      5  CB        76.1460   -1.1980   -0.8930 C.3    33  LEU33       0.0284
      6  CG        74.6400   -0.9750   -0.6740 C.3    33  LEU33       0.0019
      7  CD1       74.1280    0.2850   -1.4190 C.3    33  LEU33       0.0001
      8  CD2       73.8130   -2.2000   -1.0490 C.3    33  LEU33       0.0001
      9  N         79.2340   -2.3130    0.0260 N.am   34  GLY34      -0.1942
     10  CA        80.5750   -2.7100   -0.4320 C.3    34  GLY34       0.2014
     11  C         81.6770   -1.8220    0.1450 C.2    34  GLY34       0.2639
     12  O         81.4100   -0.7990    0.7950 O.2    34  GLY34      -0.2714
     13  N         82.9200   -2.2410   -0.0630 N.am   35  GLU35      -0.1963
     14  CA        84.0720   -1.4690    0.3520 C.3    35  GLU35       0.1733
     15  C         85.0370   -1.3160   -0.8070 C.2    35  GLU35       0.2616
     16  O         85.1480   -2.2120   -1.6540 O.2    35  GLU35      -0.2715
     17  CB        84.7920   -2.1510    1.5120 C.3    35  GLU35       0.0429
     18  CG        85.9740   -1.3080    2.0490 C.3    35  GLU35       0.1163
     19  CD        86.7880   -1.9950    3.1280 C.2    35  GLU35       0.3649
     20  OE1       86.3210   -3.0410    3.6540 O.co2  35  GLU35      -0.2457
     21  OE2       87.9010   -1.4790    3.4260 O.co2  35  GLU35      -0.2457
     22  N         85.7410   -0.1840   -0.8230 N.am   36  GLY36      -0.1955
     23  CA        86.8190    0.0750   -1.7790 C.3    36  GLY36       0.1869
     24  C         87.9370    0.8640   -1.1280 C.2    36  GLY36       0.2309
     25  O         87.7860    1.3250   -0.0020 O.2    36  GLY36      -0.2863
     26  N         88.7490    3.6870   -1.2450 N.3    38  PHE38      -0.1241
     27  CA        88.2620    5.0080   -0.8190 C.3    38  PHE38       0.1605
     28  C         87.4940    5.0080    0.4850 C.2    38  PHE38       0.2264
     29  O         87.4580    6.0210    1.1740 O.2    38  PHE38      -0.2867
     30  CB        87.3550    5.6260   -1.8950 C.3    38  PHE38       0.0534
     31  CG        86.1710    4.7810   -2.2330 C.ar   38  PHE38      -0.0203
     32  CD1       86.2210    3.8800   -3.2910 C.ar   38  PHE38      -0.0042
     33  CD2       85.0320    4.8470   -1.4770 C.ar   38  PHE38      -0.0042
     34  CE1       85.1490    3.0710   -3.5880 C.ar   38  PHE38      -0.0003
     35  CE2       83.9550    4.0370   -1.7720 C.ar   38  PHE38      -0.0003
     36  CZ        84.0120    3.1550   -2.8370 C.ar   38  PHE38      -0.0000
     37  N         80.4980    2.0600    0.9000 N.3    41  VAL41      -0.1245
     38  CA        79.2110    2.5270    0.4460 C.3    41  VAL41       0.1561
     39  C         78.1530    1.8060    1.2810 C.2    41  VAL41       0.2260
     40  O         78.2190    0.5860    1.4120 O.2    41  VAL41      -0.2867
     41  CB        79.0260    2.2310   -1.0300 C.3    41  VAL41       0.0252
     42  CG1       77.7240    2.8080   -1.5380 C.3    41  VAL41       0.0019
     43  CG2       80.1580    2.8120   -1.7830 C.3    41  VAL41       0.0019
     44  N         72.1690    5.4910   -1.7300 N.3    55  ALA55      -0.1245
     45  CA        73.5030    4.9150   -1.5330 C.3    55  ALA55       0.1562
     46  C         74.4050    6.0000   -1.0140 C.2    55  ALA55       0.2260
     47  O         74.6420    6.9770   -1.6900 O.2    55  ALA55      -0.2867
     48  CB        74.0610    4.3600   -2.8450 C.3    55  ALA55       0.0290
     49  N         78.0740    7.1440    0.0720 N.3    57  LYS57      -0.1245
     50  CA        79.4750    6.7810   -0.0700 C.3    57  LYS57       0.1561
     51  C         80.2050    7.5220    1.0320 C.2    57  LYS57       0.2260
     52  O         80.2150    8.7520    1.0100 O.2    57  LYS57      -0.2867
     53  CB        80.0040    7.2150   -1.4320 C.3    57  LYS57       0.0271
     54  CG        81.4930    6.9430   -1.6980 C.3    57  LYS57       0.0035
     55  CD        81.7920    7.1430   -3.2000 C.3    57  LYS57       0.0206
     56  CE        83.2590    7.0550   -3.5530 C.3    57  LYS57       0.1093
     57  NZ        83.4920    7.4460   -4.9650 N.3    57  LYS57      -0.1314
     58  N         85.9980   14.7730   -6.6170 N.3    72  GLU72      -0.1245
     59  CA        84.8450   13.9960   -7.1220 C.3    72  GLU72       0.1567
     60  C         83.5660   14.7790   -6.9850 C.2    72  GLU72       0.2260
     61  O         82.6860   14.6880   -7.8340 O.2    72  GLU72      -0.2867
     62  CB        84.6570   12.6540   -6.3850 C.3    72  GLU72       0.0388
     63  CG        83.5080   11.7950   -6.9860 C.3    72  GLU72       0.1160
     64  CD        83.2600   10.4240   -6.2830 C.2    72  GLU72       0.3649
     65  OE1       83.7450   10.2590   -5.1270 O.co2  72  GLU72      -0.2457
     66  OE2       82.5660    9.5310   -6.8970 O.co2  72  GLU72      -0.2457
     67  N         75.9340    8.6150  -12.8280 N.3    91  VAL91      -0.1245
     68  CA        75.1320    8.4490  -11.6150 C.3    91  VAL91       0.1561
     69  C         74.7020    9.8010  -11.0430 C.2    91  VAL91       0.2260
     70  O         75.4160   10.7980  -11.1790 O.2    91  VAL91      -0.2867
     71  CB        75.9200    7.6510  -10.5440 C.3    91  VAL91       0.0252
     72  CG1       77.1040    8.4620  -10.0340 C.3    91  VAL91       0.0019
     73  CG2       75.0170    7.2150   -9.3950 C.3    91  VAL91       0.0019
     74  N         73.8450    9.0040   -3.3130 N.3   107  PHE107     -0.1227
     75  CA        73.5070    8.6890   -4.6980 C.3   107  PHE107      0.1736
     76  C         72.2430    7.8830   -4.7620 C.2   107  PHE107      0.2595
     77  O         71.9260    7.1670   -3.8160 O.2   107  PHE107     -0.2718
     78  CB        74.5630    7.7990   -5.2860 C.3   107  PHE107      0.0547
     79  CG        75.9130    8.4060   -5.3580 C.ar  107  PHE107     -0.0202
     80  CD1       76.1860    9.3610   -6.2830 C.ar  107  PHE107     -0.0042
     81  CD2       76.9380    7.9560   -4.5550 C.ar  107  PHE107     -0.0042
     82  CE1       77.4440    9.9070   -6.3930 C.ar  107  PHE107     -0.0003
     83  CE2       78.2100    8.5130   -4.6600 C.ar  107  PHE107     -0.0003
     84  CZ        78.4490    9.4940   -5.5870 C.ar  107  PHE107     -0.0000
     85  N         71.5370    7.9690   -5.8850 N.am  108  GLU108     -0.1965
     86  CA        70.4320    7.0460   -6.1640 C.3   108  GLU108      0.1733
     87  C         70.9020    5.6100   -5.9840 C.2   108  GLU108      0.2616
     88  O         72.0130    5.2640   -6.3780 O.2   108  GLU108     -0.2715
     89  CB        69.8820    7.2270   -7.5770 C.3   108  GLU108      0.0429
     90  CG        70.9570    7.2940   -8.6810 C.3   108  GLU108      0.1163
     91  CD        70.3740    7.3010  -10.1140 C.2   108  GLU108      0.3649
     92  OE1       69.1370    7.0960  -10.2690 O.co2 108  GLU108     -0.2457
     93  OE2       71.1640    7.5240  -11.0750 O.co2 108  GLU108     -0.2457
     94  N         70.0690    4.7850   -5.3600 N.am  109  LEU109     -0.1963
     95  CA        70.3990    3.3820   -5.1490 C.3   109  LEU109      0.1728
     96  C         70.3100    2.6400   -6.4740 C.2   109  LEU109      0.2616
     97  O         69.2560    2.6270   -7.1040 O.2   109  LEU109     -0.2715
     98  CB        69.4590    2.7500   -4.1100 C.3   109  LEU109      0.0311
     99  CG        69.8500    1.3560   -3.6160 C.3   109  LEU109      0.0022
    100  CD1       71.1640    1.4610   -2.8670 C.3   109  LEU109      0.0001
    101  CD2       68.7790    0.7140   -2.7310 C.3   109  LEU109      0.0001
    102  N         71.4210    2.0420   -6.9000 N.am  110  LEU110     -0.1963
    103  CA        71.4320    1.2480   -8.1170 C.3   110  LEU110      0.1728
    104  C         71.5040   -0.2360   -7.7880 C.2   110  LEU110      0.2616
    105  O         71.0290   -0.6500   -6.7400 O.2   110  LEU110     -0.2715
    106  CB        72.5810    1.7000   -9.0030 C.3   110  LEU110      0.0311
    107  CG        72.5540    3.1860   -9.3920 C.3   110  LEU110      0.0022
    108  CD1       73.7970    3.5430  -10.1840 C.3   110  LEU110      0.0001
    109  CD2       71.3130    3.5510  -10.1560 C.3   110  LEU110      0.0001
    110  N         72.0390   -1.0460   -8.6950 N.am  111  GLY111     -0.1955
    111  CA        72.1680   -2.4930   -8.4860 C.3   111  GLY111      0.1869
    112  C         73.6270   -2.9060   -8.4480 C.2   111  GLY111      0.2309
    113  O         74.5170   -2.0810   -8.2390 O.2   111  GLY111     -0.2863
    114  N         86.1710    0.8840  -15.5330 N.3   156  LYS156     -0.1245
    115  CA        86.2950   -0.5380  -15.3190 C.3   156  LYS156      0.1561
    116  C         84.9600   -1.0980  -14.9060 C.2   156  LYS156      0.2260
    117  O         84.1010   -0.3650  -14.4580 O.2   156  LYS156     -0.2867
    118  CB        87.3220   -0.8180  -14.2330 C.3   156  LYS156      0.0271
    119  CG        87.2870    0.1330  -13.0060 C.3   156  LYS156      0.0035
    120  CD        88.0490   -0.5020  -11.8090 C.3   156  LYS156      0.0206
    121  CE        88.5630    0.5180  -10.7900 C.3   156  LYS156      0.1093
    122  NZ        89.4520   -0.1160   -9.7450 N.3   156  LYS156     -0.1314
    123  N         83.7360   -2.5630  -12.3900 N.3   158  GLU158     -0.1231
    124  CA        83.2890   -2.2360  -11.0470 C.3   158  GLU158      0.1699
    125  C         82.7360   -0.8220  -10.9810 C.2   158  GLU158      0.2592
    126  O         81.9290   -0.5370  -10.1050 O.2   158  GLU158     -0.2718
    127  CB        84.4100   -2.3540  -10.0230 C.3   158  GLU158      0.0402
    128  CG        84.9490   -3.7370   -9.8340 C.3   158  GLU158      0.1161
    129  CD        86.2400   -3.9780  -10.5650 C.2   158  GLU158      0.3649
    130  OE1       86.2900   -3.6750  -11.7880 O.co2 158  GLU158     -0.2457
    131  OE2       87.2020   -4.4820   -9.9230 O.co2 158  GLU158     -0.2457
    132  N         83.1690    0.0610  -11.8730 N.am  159  ASN159     -0.1974
    133  CA        82.6380    1.4240  -11.9180 C.3   159  ASN159      0.1688
    134  C         81.4630    1.6370  -12.8860 C.2   159  ASN159      0.2292
    135  O         81.1050    2.7920  -13.1770 O.2   159  ASN159     -0.2864
    136  CB        83.7600    2.4090  -12.2310 C.3   159  ASN159      0.1181
    137  CG        84.7490    2.5160  -11.1100 C.2   159  ASN159      0.2629
    138  OD1       84.4590    2.1320   -9.9790 O.2   159  ASN159     -0.2716
    139  ND2       85.9420    3.0160  -11.4080 N.am  159  ASN159     -0.0877
    140  N         77.5830    0.4260  -13.0630 N.3   161  LEU161     -0.1245
    141  CA        76.5340   -0.2410  -12.2780 C.3   161  LEU161      0.1561
    142  C         75.2170   -0.3930  -13.0200 C.2   161  LEU161      0.2260
    143  O         74.7440    0.5590  -13.6390 O.2   161  LEU161     -0.2867
    144  CB        76.2240    0.5420  -10.9860 C.3   161  LEU161      0.0270
    145  CG        77.3420    0.8320   -9.9880 C.3   161  LEU161      0.0019
    146  CD1       76.7400    0.8260   -8.5790 C.3   161  LEU161      0.0001
    147  CD2       78.4370   -0.1940  -10.1060 C.3   161  LEU161      0.0001
    148  N         80.0150    5.3320  -12.4970 N.3   183  VAL183     -0.1231
    149  CA        80.2500    5.8760  -11.1490 C.3   183  VAL183      0.1692
    150  C         81.7350    6.1480  -10.9100 C.2   183  VAL183      0.2592
    151  O         82.5540    5.8370  -11.7540 O.2   183  VAL183     -0.2718
    152  CB        79.7540    4.9120  -10.0530 C.3   183  VAL183      0.0266
    153  CG1       78.3380    4.4830  -10.3340 C.3   183  VAL183      0.0020
    154  CG2       80.6630    3.7110   -9.9560 C.3   183  VAL183      0.0020
    155  N         82.0650    6.7410   -9.7620 N.am  184  ASP184     -0.1974
    156  CA        83.4630    6.9480   -9.3200 C.3   184  ASP184      0.1709
    157  C         84.2010    8.0180  -10.1080 C.2   184  ASP184      0.2293
    158  O         84.8930    7.7140  -11.0670 O.2   184  ASP184     -0.2864
    159  CB        84.2470    5.6260   -9.3840 C.3   184  ASP184      0.1436
    160  CG        85.5410    5.6660   -8.5850 C.2   184  ASP184      0.3671
    161  OD1       86.1440    6.7580   -8.4740 O.co2 184  ASP184     -0.2456
    162  OD2       85.9430    4.5970   -8.0570 O.co2 184  ASP184     -0.2456
@<TRIPOS>BOND
     1   114   115    1
     2   115   116    1
     3   115   118    1
     4   116   117    2
     5   118   119    1
     6   143   142    2
     7   135   134    2
     8   140   141    1
     9   142   141    1
    10   119   120    1
    11   134   133    1
    12    67    68    1
    13   148   149    1
    14   123   124    1
    15   141   144    1
    16   136   133    1
    17   136   137    1
    18   133   132    1
    19   132   125   am
    20   120   121    1
    21   130   129   ar
    22   151   150    2
    23    68    69    1
    24    68    71    1
    25   139   137   am
    26    70    69    2
    27   149   150    1
    28   149   152    1
    29   137   138    2
    30    93    91   ar
    31   158   157    2
    32   124   125    1
    33   124   127    1
    34   144   145    1
    35   125   126    2
    36   150   155   am
    37   121   122    1
    38   129   131   ar
    39   129   128    1
    40    71    72    1
    41    71    73    1
    42   153   152    1
    43    92    91   ar
    44   108   107    1
    45   109   107    1
    46    91    90    1
    47   157   156    1
    48   147   145    1
    49   152   154    1
    50   127   128    1
    51   145   146    1
    52   155   156    1
    53   107   106    1
    54   159   156    1
    55   159   160    1
    56   106   103    1
    57   110   111    1
    58   110   104   am
    59    90    89    1
    60   160   161   ar
    61   160   162   ar
    62   111   112    1
    63   112   113    2
    64   103   104    1
    65   103   102    1
    66    61    60    2
    67   104   105    2
    68    89    86    1
    69    59    60    1
    70    59    58    1
    71    59    62    1
    72    97    96    2
    73    63    62    1
    74    63    64    1
    75   102    96   am
    76    66    64   ar
    77    96    95    1
    78    82    80   ar
    79    82    84   ar
    80    88    87    2
    81    80    79   ar
    82    64    65   ar
    83    86    87    1
    84    86    85    1
    85    87    94   am
    86    85    76   am
    87    84    83   ar
    88    94    95    1
    89    79    78    1
    90    79    81   ar
    91    78    75    1
    92    95    98    1
    93    57    56    1
    94    76    75    1
    95    76    77    2
    96    75    74    1
    97    83    81   ar
    98    98    99    1
    99    99   100    1
   100    99   101    1
   101    34    32   ar
   102    34    36   ar
   103    56    55    1
   104    32    31   ar
   105    55    54    1
   106    48    45    1
   107    36    35   ar
   108    31    30    1
   109    31    33   ar
   110    30    27    1
   111    43    41    1
   112    23    24    1
   113    23    22    1
   114    35    33   ar
   115    44    45    1
   116    54    53    1
   117    47    46    2
   118    16    15    2
   119     4     3    2
   120    42    41    1
   121    45    46    1
   122    53    50    1
   123     7     6    1
   124    26    27    1
   125    24    25    2
   126     8     6    1
   127    41    38    1
   128     5     6    1
   129     5     2    1
   130    22    15   am
   131    27    28    1
   132    15    14    1
   133     3     2    1
   134     3     9   am
   135    10     9    1
   136    10    11    1
   137    50    49    1
   138    50    51    1
   139    13    11   am
   140    13    14    1
   141     2     1    1
   142    11    12    2
   143    14    17    1
   144    38    37    1
   145    38    39    1
   146    28    29    2
   147    52    51    2
   148    39    40    2
   149    17    18    1
   150    18    19    1
   151    19    21   ar
   152    19    20   ar
