@<TRIPOS>MOLECULE
tmp/3nrcB01.pdb
 151 144 0 0 0
SMALL
GASTEIGER

@<TRIPOS>ATOM
      1  N        -23.5410  -46.5400  -24.8320 N.3    89  SER89      -0.1202
      2  CA       -23.0650  -46.6450  -26.2010 C.3    89  SER89       0.2020
      3  C        -23.7560  -45.5710  -27.0140 C.2    89  SER89       0.2619
      4  O        -24.5130  -45.8680  -27.9410 O.2    89  SER89      -0.2717
      5  CB       -23.3950  -48.0170  -26.7790 C.3    89  SER89       0.2103
      6  OG       -22.7720  -48.1950  -28.0380 O.3    89  SER89      -0.2182
      7  N        -23.4810  -44.3210  -26.6560 N.am   90  ILE90      -0.1965
      8  CA       -24.1740  -43.1820  -27.2240 C.3    90  ILE90       0.1727
      9  C        -23.2560  -41.9760  -27.2110 C.2    90  ILE90       0.2616
     10  O        -22.5120  -41.7610  -26.2540 O.2    90  ILE90      -0.2715
     11  CB       -25.4220  -42.8160  -26.3960 C.3    90  ILE90       0.0290
     12  CG1      -25.0160  -42.4650  -24.9660 C.3    90  ILE90       0.0022
     13  CG2      -26.4340  -43.9530  -26.3750 C.3    90  ILE90       0.0023
     14  CD1      -26.1910  -42.0230  -24.1050 C.3    90  ILE90       0.0001
     15  N        -23.3280  -41.1900  -28.2780 N.am   91  ALA91      -0.1963
     16  CA       -22.6190  -39.9230  -28.3640 C.3    91  ALA91       0.1728
     17  C        -23.3770  -39.0090  -29.3220 C.2    91  ALA91       0.2616
     18  O        -24.1990  -39.4750  -30.1110 O.2    91  ALA91      -0.2715
     19  CB       -21.1740  -40.1460  -28.8420 C.3    91  ALA91       0.0334
     20  N        -23.1200  -37.7090  -29.2310 N.am   92  PHE92      -0.1960
     21  CA       -23.6160  -36.7650  -30.2180 C.3    92  PHE92       0.1771
     22  C        -22.8650  -35.4440  -30.1940 C.2    92  PHE92       0.2619
     23  O        -22.5740  -34.8960  -29.1330 O.2    92  PHE92      -0.2715
     24  CB       -25.0990  -36.4700  -30.0150 C.3    92  PHE92       0.0574
     25  CG       -25.6270  -35.4220  -30.9500 C.ar   92  PHE92      -0.0200
     26  CD1      -25.8980  -35.7310  -32.2710 C.ar   92  PHE92      -0.0042
     27  CD2      -25.8370  -34.1270  -30.5140 C.ar   92  PHE92      -0.0042
     28  CE1      -26.3830  -34.7720  -33.1350 C.ar   92  PHE92      -0.0003
     29  CE2      -26.3180  -33.1590  -31.3770 C.ar   92  PHE92      -0.0003
     30  CZ       -26.5910  -33.4810  -32.6890 C.ar   92  PHE92      -0.0000
     31  N        -22.5770  -34.9280  -31.3820 N.am   93  ALA93      -0.1977
     32  CA       -22.1350  -33.5500  -31.5360 C.3    93  ALA93       0.1597
     33  C        -22.7720  -33.0090  -32.8080 C.2    93  ALA93       0.2287
     34  O        -22.9830  -33.7590  -33.7580 O.2    93  ALA93      -0.2864
     35  CB       -20.6070  -33.4720  -31.6220 C.3    93  ALA93       0.0319
     36  N        -17.7730  -31.5600  -36.6380 N.3    98  LEU98      -0.1245
     37  CA       -17.1500  -32.8150  -37.0490 C.3    98  LEU98       0.1561
     38  C        -16.5810  -32.7150  -38.4520 C.2    98  LEU98       0.2260
     39  O        -16.3400  -33.7260  -39.1040 O.2    98  LEU98      -0.2867
     40  CB       -18.1790  -33.9470  -37.0130 C.3    98  LEU98       0.0270
     41  CG       -18.9100  -34.2480  -35.7020 C.3    98  LEU98       0.0019
     42  CD1      -19.9330  -35.3520  -35.9140 C.3    98  LEU98       0.0001
     43  CD2      -17.9390  -34.6630  -34.6240 C.3    98  LEU98       0.0001
     44  N        -13.2250  -43.5890  -28.3290 N.3   145  TYR145     -0.1241
     45  CA       -12.4650  -43.6650  -29.5630 C.3   145  TYR145      0.1605
     46  C        -11.1140  -43.0160  -29.3130 C.2   145  TYR145      0.2264
     47  O        -10.9790  -42.2030  -28.4120 O.2   145  TYR145     -0.2867
     48  CB       -13.2060  -42.9200  -30.6630 C.3   145  TYR145      0.0534
     49  CG       -12.5700  -42.9870  -32.0310 C.ar  145  TYR145     -0.0201
     50  CD1      -12.2850  -44.2020  -32.6260 C.ar  145  TYR145     -0.0009
     51  CD2      -12.2850  -41.8280  -32.7400 C.ar  145  TYR145     -0.0009
     52  CE1      -11.7120  -44.2650  -33.8810 C.ar  145  TYR145      0.0417
     53  CE2      -11.7190  -41.8810  -34.0000 C.ar  145  TYR145      0.0417
     54  CZ       -11.4400  -43.1040  -34.5640 C.ar  145  TYR145      0.1957
     55  OH       -10.8830  -43.1550  -35.8150 O.3   145  TYR145     -0.2866
     56  N        -12.5760  -35.3790  -36.4260 N.3   155  TYR155     -0.1241
     57  CA       -13.2400  -35.8300  -35.2040 C.3   155  TYR155      0.1605
     58  C        -13.4040  -34.6690  -34.2360 C.2   155  TYR155      0.2264
     59  O        -14.4020  -34.5820  -33.5300 O.2   155  TYR155     -0.2867
     60  CB       -12.4850  -36.9990  -34.5690 C.3   155  TYR155      0.0534
     61  CG       -13.3150  -37.8590  -33.6270 C.ar  155  TYR155     -0.0201
     62  CD1      -14.4200  -38.5900  -34.0820 C.ar  155  TYR155     -0.0009
     63  CD2      -12.9770  -37.9590  -32.2890 C.ar  155  TYR155     -0.0009
     64  CE1      -15.1580  -39.3830  -33.2180 C.ar  155  TYR155      0.0417
     65  CE2      -13.7090  -38.7370  -31.4230 C.ar  155  TYR155      0.0417
     66  CZ       -14.7910  -39.4470  -31.8850 C.ar  155  TYR155      0.1957
     67  OH       -15.4800  -40.2170  -30.9880 O.3   155  TYR155     -0.2866
     68  N        -15.7550  -33.7960  -30.9250 N.3   158  MET158     -0.1245
     69  CA       -16.1040  -35.1270  -30.4270 C.3   158  MET158      0.1570
     70  C        -14.8840  -35.7790  -29.7570 C.2   158  MET158      0.2261
     71  O        -14.9990  -36.4520  -28.7280 O.2   158  MET158     -0.2867
     72  CB       -16.6080  -36.0150  -31.5670 C.3   158  MET158      0.0387
     73  CG       -17.1420  -37.3800  -31.1220 C.3   158  MET158      0.0595
     74  SD       -18.7590  -37.3510  -30.3010 S.3   158  MET158     -0.1393
     75  CE       -18.2290  -37.2510  -28.6030 C.3   158  MET158      0.0692
     76  N        -14.7980  -37.0800  -26.0150 N.3   162  LYS162     -0.1245
     77  CA       -14.3590  -38.4310  -25.6290 C.3   162  LYS162      0.1561
     78  C        -13.3150  -38.4190  -24.5130 C.2   162  LYS162      0.2260
     79  O        -13.3330  -39.2980  -23.6400 O.2   162  LYS162     -0.2867
     80  CB       -13.8350  -39.2210  -26.8300 C.3   162  LYS162      0.0271
     81  CG       -14.9290  -39.6030  -27.8450 C.3   162  LYS162      0.0035
     82  CD       -16.0130  -40.4960  -27.2160 C.3   162  LYS162      0.0206
     83  CE       -17.0820  -40.8920  -28.2380 C.3   162  LYS162      0.1093
     84  NZ       -18.1020  -41.8550  -27.6930 N.3   162  LYS162     -0.1314
     85  N        -12.1470  -49.3480  -32.6130 N.3   189  GLY189     -0.1210
     86  CA       -11.6820  -48.8810  -33.9050 C.3   189  GLY189      0.1940
     87  C        -12.8720  -48.4890  -34.7630 C.2   189  GLY189      0.2454
     88  O        -14.0120  -48.7200  -34.3680 O.2   189  GLY189     -0.2732
     89  N        -12.6150  -47.9050  -35.9480 N.am  190  PRO190     -0.2717
     90  CA       -13.6880  -47.4470  -36.8440 C.3   190  PRO190      0.1535
     91  C        -14.5960  -48.5930  -37.3220 C.2   190  PRO190      0.2598
     92  O        -14.1050  -49.6000  -37.8380 O.2   190  PRO190     -0.2715
     93  CB       -12.9370  -46.8530  -38.0380 C.3   190  PRO190      0.0310
     94  CG       -11.4750  -46.7830  -37.6320 C.3   190  PRO190      0.0237
     95  CD       -11.2730  -47.7880  -36.5530 C.3   190  PRO190      0.0939
     96  N        -15.9040  -48.4250  -37.1500 N.am  191  ILE191     -0.1978
     97  CA       -16.9030  -49.4080  -37.5850 C.3   191  ILE191      0.1596
     98  C        -18.0360  -48.7040  -38.3250 C.2   191  ILE191      0.2287
     99  O        -18.5410  -47.6690  -37.8690 O.2   191  ILE191     -0.2864
    100  CB       -17.5220  -50.1520  -36.3920 C.3   191  ILE191      0.0276
    101  CG1      -16.4620  -50.9950  -35.6780 C.3   191  ILE191      0.0022
    102  CG2      -18.6790  -51.0270  -36.8610 C.3   191  ILE191      0.0022
    103  CD1      -16.8720  -51.4370  -34.2850 C.3   191  ILE191      0.0001
    104  N        -21.1100  -47.6500  -38.8570 N.3   193  THR193     -0.1218
    105  CA       -22.4120  -47.5470  -38.2200 C.3   193  THR193      0.1862
    106  C        -23.1680  -46.3550  -38.7910 C.2   193  THR193      0.2287
    107  O        -22.6420  -45.6180  -39.6280 O.2   193  THR193     -0.2866
    108  CB       -22.2710  -47.3250  -36.7170 C.3   193  THR193      0.1770
    109  OG1      -21.6280  -46.0670  -36.4890 O.3   193  THR193     -0.2211
    110  CG2      -21.4490  -48.4400  -36.0870 C.3   193  THR193      0.0375
    111  N        -24.0240  -43.6170  -37.1760 N.3   195  ALA195     -0.1231
    112  CA       -23.3950  -42.4020  -36.6650 C.3   195  ALA195      0.1694
    113  C        -22.1230  -42.0620  -37.4230 C.2   195  ALA195      0.2591
    114  O        -21.7180  -40.8960  -37.4940 O.2   195  ALA195     -0.2718
    115  CB       -23.0910  -42.5600  -35.1980 C.3   195  ALA195      0.0304
    116  N        -21.4930  -43.0890  -37.9800 N.am  196  ALA196     -0.1980
    117  CA       -20.2190  -42.9280  -38.6610 C.3   196  ALA196      0.1597
    118  C        -20.3310  -42.0470  -39.8980 C.2   196  ALA196      0.2287
    119  O        -19.4060  -41.3010  -40.2130 O.2   196  ALA196     -0.2864
    120  CB       -19.6320  -44.2810  -39.0220 C.3   196  ALA196      0.0319
    121  N        -21.7360  -39.4990  -40.1750 N.3   198  GLY198     -0.1210
    122  CA       -21.6700  -38.1210  -39.7230 C.3   198  GLY198      0.1956
    123  C        -20.2430  -37.6130  -39.6160 C.2   198  GLY198      0.2611
    124  O        -20.0110  -36.4250  -39.3760 O.2   198  GLY198     -0.2717
    125  N        -19.2800  -38.5140  -39.7840 N.am  199  ILE199     -0.1979
    126  CA       -17.8770  -38.1290  -39.7360 C.3   199  ILE199      0.1595
    127  C        -17.3120  -37.9660  -41.1440 C.2   199  ILE199      0.2287
    128  O        -17.2880  -38.9210  -41.9280 O.2   199  ILE199     -0.2864
    129  CB       -17.0190  -39.1500  -38.9720 C.3   199  ILE199      0.0276
    130  CG1      -17.5950  -39.4010  -37.5770 C.3   199  ILE199      0.0022
    131  CG2      -15.5820  -38.6500  -38.8710 C.3   199  ILE199      0.0022
    132  CD1      -17.6090  -38.1650  -36.6990 C.3   199  ILE199      0.0001
    133  N        -14.5770  -40.4670  -42.3730 N.3   202  PHE202     -0.1241
    134  CA       -14.7620  -41.8650  -41.9750 C.3   202  PHE202      0.1605
    135  C        -14.2400  -42.9310  -42.9240 C.2   202  PHE202      0.2264
    136  O        -13.5970  -43.8800  -42.4780 O.2   202  PHE202     -0.2867
    137  CB       -16.1940  -42.2050  -41.5730 C.3   202  PHE202      0.0534
    138  CG       -16.3140  -43.5820  -41.0050 C.ar  202  PHE202     -0.0203
    139  CD1      -16.0990  -43.8040  -39.6580 C.ar  202  PHE202     -0.0042
    140  CD2      -16.5770  -44.6650  -41.8290 C.ar  202  PHE202     -0.0042
    141  CE1      -16.1890  -45.0760  -39.1310 C.ar  202  PHE202     -0.0003
    142  CE2      -16.6570  -45.9420  -41.3150 C.ar  202  PHE202     -0.0003
    143  CZ       -16.4640  -46.1510  -39.9620 C.ar  202  PHE202     -0.0000
    144  N        -10.5280  -42.9460  -42.4660 N.3   205  MET205     -0.1245
    145  CA       -10.1950  -43.5350  -41.1710 C.3   205  MET205      0.1570
    146  C        -10.2850  -45.0530  -41.2300 C.2   205  MET205      0.2261
    147  O         -9.3430  -45.7460  -40.8590 O.2   205  MET205     -0.2867
    148  CB       -11.1000  -42.9890  -40.0630 C.3   205  MET205      0.0387
    149  CG       -10.5190  -41.7790  -39.3380 C.3   205  MET205      0.0595
    150  SD       -11.6670  -40.9810  -38.1940 S.3   205  MET205     -0.1393
    151  CE       -12.9790  -40.5690  -39.3240 C.3   205  MET205      0.0692
@<TRIPOS>BOND
     1   135   136    2
     2   135   134    1
     3   144   145    1
     4   133   134    1
     5   134   137    1
     6   128   127    2
     7   140   142   ar
     8   140   138   ar
     9   137   138    1
    10   142   143   ar
    11   146   145    1
    12   146   147    2
    13   145   148    1
    14   127   126    1
    15   138   139   ar
    16   119   118    2
    17   121   122    1
    18   148   149    1
    19   143   141   ar
    20   118   117    1
    21   125   126    1
    22   125   123   am
    23   126   129    1
    24   122   123    1
    25   139   141   ar
    26   107   106    2
    27   123   124    2
    28   149   150    1
    29   151   150    1
    30    39    38    2
    31   120   117    1
    32   129   131    1
    33   129   130    1
    34   104   105    1
    35   106   105    1
    36   117   116    1
    37    38    37    1
    38    98    99    2
    39    98    97    1
    40   105   108    1
    41    93    94    1
    42    93    90    1
    43   116   113   am
    44    92    91    2
    45    94    95    1
    46    97    96    1
    47    97   100    1
    48   130   132    1
    49   114   113    2
    50   113   112    1
    51    91    96   am
    52    91    90    1
    53   111   112    1
    54    37    40    1
    55    37    36    1
    56    40    41    1
    57   102   100    1
    58    90    89    1
    59   108   109    1
    60   108   110    1
    61   112   115    1
    62    95    89    1
    63    56    57    1
    64   100   101    1
    65    89    87   am
    66    42    41    1
    67    55    54    1
    68    41    43    1
    69   101   103    1
    70    57    60    1
    71    57    58    1
    72    87    88    2
    73    87    86    1
    74    60    61    1
    75    54    53   ar
    76    54    52   ar
    77    58    59    2
    78    62    61   ar
    79    62    64   ar
    80    53    51   ar
    81    86    85    1
    82    52    50   ar
    83    34    33    2
    84    61    63   ar
    85    64    66   ar
    86    28    30   ar
    87    28    26   ar
    88    33    32    1
    89    51    49   ar
    90    30    29   ar
    91    50    49   ar
    92    63    65   ar
    93    26    25   ar
    94    49    48    1
    95    66    65   ar
    96    66    67    1
    97    35    32    1
    98    72    73    1
    99    72    69    1
   100    32    31    1
   101    31    22   am
   102    29    27   ar
   103    73    74    1
   104    25    27   ar
   105    25    24    1
   106    68    69    1
   107    48    45    1
   108    69    70    1
   109    74    75    1
   110    21    22    1
   111    21    24    1
   112    21    20    1
   113    22    23    2
   114    18    17    2
   115    70    71    2
   116    45    46    1
   117    45    44    1
   118    17    20   am
   119    17    16    1
   120    46    47    2
   121    19    16    1
   122    16    15    1
   123    15     9   am
   124    83    84    1
   125    83    82    1
   126     6     5    1
   127     4     3    2
   128    81    82    1
   129    81    80    1
   130     8     9    1
   131     8     7    1
   132     8    11    1
   133     9    10    2
   134     3     7   am
   135     3     2    1
   136    80    77    1
   137     5     2    1
   138    11    13    1
   139    11    12    1
   140     2     1    1
   141    76    77    1
   142    77    78    1
   143    12    14    1
   144    78    79    2
