@<TRIPOS>MOLECULE
tmp/3nreB01.pdb
 88 85 0 0 0
SMALL
GASTEIGER

@<TRIPOS>ATOM
      1  N         22.1850   35.8470  -12.3840 N.3    10  SER10      -0.1202
      2  CA        22.7330   37.0380  -11.7360 C.3    10  SER10       0.2020
      3  C         22.8590   36.8760  -10.2230 C.2    10  SER10       0.2618
      4  O         23.2760   37.8280   -9.5370 O.2    10  SER10      -0.2717
      5  CB        21.8630   38.2380  -12.0480 C.3    10  SER10       0.2103
      6  OG        21.7510   38.3800  -13.4340 O.3    10  SER10      -0.2182
      7  N         22.5160   35.6870   -9.7070 N.am   11  LEU11      -0.1979
      8  CA        22.5410   35.4820   -8.2550 C.3    11  LEU11       0.1596
      9  C         23.8850   34.9270   -7.8400 C.2    11  LEU11       0.2287
     10  O         24.4300   34.0500   -8.4860 O.2    11  LEU11      -0.2864
     11  CB        21.4740   34.5140   -7.7430 C.3    11  LEU11       0.0297
     12  CG        20.0190   34.8680   -7.8340 C.3    11  LEU11       0.0022
     13  CD1       19.1610   33.8170   -7.0110 C.3    11  LEU11       0.0001
     14  CD2       19.7780   36.2600   -7.3250 C.3    11  LEU11       0.0001
     15  N         22.2450   39.9760   -6.0090 N.3    27  ARG27      -0.1245
     16  CA        21.7010   39.9410   -7.3830 C.3    27  ARG27       0.1563
     17  C         22.4530   41.0660   -8.0870 C.2    27  ARG27       0.2260
     18  O         22.3490   42.2260   -7.7180 O.2    27  ARG27      -0.2867
     19  CB        20.1780   40.1540   -7.3610 C.3    27  ARG27       0.0307
     20  CG        19.4540   40.7020   -8.5850 C.3    27  ARG27       0.0489
     21  CD        19.5160   39.8200   -9.7480 C.3    27  ARG27       0.2205
     22  NE        18.4070   39.9970  -10.7180 N.pl3  27  ARG27      -0.0865
     23  CZ        18.4480   40.6990  -11.8550 C.cat  27  ARG27       0.5346
     24  NH1       19.5260   41.3860  -12.2660 N.pl3  27  ARG27       0.1354
     25  NH2       17.3720   40.7040  -12.6330 N.pl3  27  ARG27       0.1354
     26  N         21.2450   41.2610   -1.1000 N.3    32  LEU32      -0.1245
     27  CA        19.9380   40.7600   -0.7280 C.3    32  LEU32       0.1561
     28  C         19.9070   40.4790    0.7750 C.2    32  LEU32       0.2260
     29  O         18.8680   40.5740    1.4190 O.2    32  LEU32      -0.2867
     30  CB        19.5940   39.5120   -1.5260 C.3    32  LEU32       0.0270
     31  CG        19.6050   39.7090   -3.0560 C.3    32  LEU32       0.0019
     32  CD1       19.4020   38.3660   -3.7730 C.3    32  LEU32       0.0001
     33  CD2       18.5620   40.7780   -3.5040 C.3    32  LEU32       0.0001
     34  N         17.9240   30.4820  -10.7270 N.3   124  ALA124     -0.1231
     35  CA        17.9890   31.8530  -11.2200 C.3   124  ALA124      0.1694
     36  C         17.3450   32.8800  -10.3110 C.2   124  ALA124      0.2592
     37  O         17.7360   34.0500  -10.3310 O.2   124  ALA124     -0.2718
     38  CB        17.3220   31.9420  -12.6550 C.3   124  ALA124      0.0304
     39  N         16.3640   32.4690   -9.4980 N.am  125  ASP125     -0.1974
     40  CA        15.7060   33.4290   -8.5960 C.3   125  ASP125      0.1709
     41  C         15.5810   33.0000   -7.1490 C.2   125  ASP125      0.2293
     42  O         15.0610   33.7830   -6.3680 O.2   125  ASP125     -0.2864
     43  CB        14.2990   33.8150   -9.1130 C.3   125  ASP125      0.1436
     44  CG        13.2870   32.6280   -9.1320 C.2   125  ASP125      0.3671
     45  OD1       13.6050   31.4670   -8.7710 O.co2 125  ASP125     -0.2456
     46  OD2       12.1360   32.8690   -9.5870 O.co2 125  ASP125     -0.2456
     47  N         12.7040   45.2740   -5.5740 N.3   219  TYR219     -0.1241
     48  CA        12.5050   43.8370   -5.4320 C.3   219  TYR219      0.1605
     49  C         11.8830   43.4820   -4.0960 C.2   219  TYR219      0.2264
     50  O         11.8240   44.3080   -3.1790 O.2   219  TYR219     -0.2867
     51  CB        13.8180   43.0870   -5.5780 C.3   219  TYR219      0.0534
     52  CG        14.7740   43.2900   -4.4430 C.ar  219  TYR219     -0.0201
     53  CD1       14.7610   42.4530   -3.3400 C.ar  219  TYR219     -0.0009
     54  CD2       15.6970   44.3280   -4.4570 C.ar  219  TYR219     -0.0009
     55  CE1       15.6470   42.6310   -2.2980 C.ar  219  TYR219      0.0417
     56  CE2       16.5920   44.5070   -3.4000 C.ar  219  TYR219      0.0417
     57  CZ        16.5790   43.6480   -2.3460 C.ar  219  TYR219      0.1957
     58  OH        17.3960   43.7830   -1.2570 O.3   219  TYR219     -0.2866
     59  N         13.7510   35.8290   -4.9760 N.3   284  VAL284     -0.1231
     60  CA        13.7750   37.2510   -5.3080 C.3   284  VAL284      0.1692
     61  C         12.7970   37.5170   -6.4610 C.2   284  VAL284      0.2592
     62  O         12.7240   36.7620   -7.4380 O.2   284  VAL284     -0.2718
     63  CB        15.2210   37.7180   -5.6690 C.3   284  VAL284      0.0266
     64  CG1       15.3830   39.1840   -5.3770 C.3   284  VAL284      0.0020
     65  CG2       16.2530   36.9350   -4.8680 C.3   284  VAL284      0.0020
     66  N         12.0410   38.5760   -6.3570 N.am  285  GLU285     -0.1966
     67  CA        11.0930   38.9000   -7.4280 C.3   285  GLU285      0.1733
     68  C         11.0450   40.3960   -7.6150 C.2   285  GLU285      0.2616
     69  O         11.3160   41.1650   -6.6970 O.2   285  GLU285     -0.2715
     70  CB         9.7050   38.3050   -7.1580 C.3   285  GLU285      0.0429
     71  CG         8.8560   39.0610   -6.1440 C.3   285  GLU285      0.1163
     72  CD         7.4180   38.5630   -6.0870 C.2   285  GLU285      0.3649
     73  OE1        7.1750   37.4410   -6.5770 O.co2 285  GLU285     -0.2457
     74  OE2        6.5270   39.2940   -5.5730 O.co2 285  GLU285     -0.2457
     75  N         10.7070   40.7890   -8.8280 N.am  286  TRP286     -0.1974
     76  CA        10.6200   42.1760   -9.1740 C.3   286  TRP286      0.1640
     77  C          9.3440   42.7200   -8.5970 C.2   286  TRP286      0.2290
     78  O          8.3030   42.0800   -8.6900 O.2   286  TRP286     -0.2864
     79  CB        10.5500   42.3400  -10.6950 C.3   286  TRP286      0.0576
     80  CG        11.8230   42.1340  -11.3630 C.ar  286  TRP286      0.0006
     81  CD1       12.1140   41.1950  -12.3280 C.ar  286  TRP286      0.0946
     82  CD2       13.0240   42.8730  -11.1460 C.ar  286  TRP286      0.0152
     83  NE1       13.4290   41.3100  -12.7160 N.ar  286  TRP286     -0.2442
     84  CE2       14.0140   42.3260  -12.0010 C.ar  286  TRP286      0.0810
     85  CE3       13.3690   43.9380  -10.3010 C.ar  286  TRP286      0.0012
     86  CZ2       15.3240   42.8280  -12.0520 C.ar  286  TRP286      0.0191
     87  CZ3       14.6740   44.4240  -10.3370 C.ar  286  TRP286      0.0001
     88  CH2       15.6320   43.8700  -11.2100 C.ar  286  TRP286      0.0015
@<TRIPOS>BOND
     1     6     5    1
     2    83    81   ar
     3    83    84   ar
     4    38    35    1
     5    25    23    1
     6     1     2    1
     7    81    80   ar
     8    24    23    1
     9    86    84   ar
    10    86    88   ar
    11     5     2    1
    12    84    82   ar
    13    23    22    2
    14     2     3    1
    15    80    82   ar
    16    80    79    1
    17    35    34    1
    18    35    36    1
    19    88    87   ar
    20    82    85   ar
    21    22    21    1
    22    79    76    1
    23    87    85   ar
    24    37    36    2
    25    36    39   am
    26     3     7   am
    27     3     4    2
    28    21    20    1
    29     7     8    1
    30    46    44   ar
    31    39    40    1
    32    76    75    1
    33    76    77    1
    34    44    43    1
    35    44    45   ar
    36    43    40    1
    37    75    68   am
    38    78    77    2
    39    40    41    1
    40    20    19    1
    41    10     9    2
    42     8     9    1
    43     8    11    1
    44    17    18    2
    45    17    16    1
    46    12    11    1
    47    12    14    1
    48    12    13    1
    49    68    67    1
    50    68    69    2
    51    62    61    2
    52    67    70    1
    53    67    66    1
    54    16    19    1
    55    16    15    1
    56    70    71    1
    57    41    42    2
    58    73    72   ar
    59    61    66   am
    60    61    60    1
    61    71    72    1
    62    72    74   ar
    63    63    64    1
    64    63    60    1
    65    63    65    1
    66    51    48    1
    67    51    52    1
    68    47    48    1
    69    48    49    1
    70    60    59    1
    71    54    52   ar
    72    54    56   ar
    73    52    53   ar
    74    49    50    2
    75    32    31    1
    76    33    31    1
    77    56    57   ar
    78    53    55   ar
    79    31    30    1
    80    57    55   ar
    81    57    58    1
    82    30    27    1
    83    26    27    1
    84    27    28    1
    85    28    29    2
