@<TRIPOS>MOLECULE
tmp/3nreD01.pdb
 172 172 0 0 0
SMALL
GASTEIGER

@<TRIPOS>ATOM
      1  N         21.9420  -12.4690   82.2540 N.3    43  THR43      -0.1218
      2  CA        23.1650  -11.6640   82.3360 C.3    43  THR43       0.1862
      3  C         24.2900  -12.1400   81.4350 C.2    43  THR43       0.2287
      4  O         25.3460  -11.4690   81.3660 O.2    43  THR43      -0.2866
      5  CB        23.6450  -11.5410   83.7970 C.3    43  THR43       0.1770
      6  OG1       23.7490  -12.8420   84.3450 O.3    43  THR43      -0.2211
      7  CG2       22.6610  -10.7090   84.6170 C.3    43  THR43       0.0375
      8  N         18.1750   -7.7450   77.9740 N.3    48  PHE48      -0.1241
      9  CA        16.9860   -8.3010   78.6230 C.3    48  PHE48       0.1605
     10  C         15.9790   -7.2050   78.9830 C.2    48  PHE48       0.2264
     11  O         16.3500   -6.0630   79.1650 O.2    48  PHE48      -0.2867
     12  CB        17.3210   -9.1840   79.8340 C.3    48  PHE48       0.0534
     13  CG        18.1120   -8.5020   80.9440 C.ar   48  PHE48      -0.0203
     14  CD1       17.4750   -7.7610   81.9280 C.ar   48  PHE48      -0.0042
     15  CD2       19.4680   -8.7260   81.0750 C.ar   48  PHE48      -0.0042
     16  CE1       18.2180   -7.2040   82.9620 C.ar   48  PHE48      -0.0003
     17  CE2       20.1970   -8.1510   82.1050 C.ar   48  PHE48      -0.0003
     18  CZ        19.5590   -7.4170   83.0490 C.ar   48  PHE48      -0.0000
     19  N         15.5910   -1.7760   87.8240 N.3    55  ASN55      -0.1225
     20  CA        16.5170   -1.6100   88.9160 C.3    55  ASN55       0.1785
     21  C         15.9210   -2.0830   90.2560 C.2    55  ASN55       0.2597
     22  O         15.2210   -3.1230   90.3050 O.2    55  ASN55      -0.2718
     23  CB        17.0260   -0.1590   88.9010 C.3    55  ASN55       0.1169
     24  CG        18.4670   -0.0350   89.4130 C.2    55  ASN55       0.2627
     25  OD1       18.7260   -0.0940   90.6280 O.2    55  ASN55      -0.2716
     26  ND2       19.4280    0.0820   88.4900 N.am   55  ASN55      -0.0877
     27  N         16.2960   -1.3920   91.3280 N.am   56  ARG56      -0.1979
     28  CA        16.0480   -1.8150   92.7160 C.3    56  ARG56       0.1597
     29  C         15.1690   -0.7690   93.4020 C.2    56  ARG56       0.2287
     30  O         15.2070    0.4510   93.0640 O.2    56  ARG56      -0.2864
     31  CB        17.3530   -1.9020   93.4850 C.3    56  ARG56       0.0334
     32  CG        18.3590   -2.9470   92.9610 C.3    56  ARG56       0.0492
     33  CD        19.7480   -2.7740   93.5000 C.3    56  ARG56       0.2205
     34  NE        20.6960   -3.6870   92.8640 N.pl3  56  ARG56      -0.0865
     35  CZ        21.4060   -3.4210   91.7690 C.cat  56  ARG56       0.5346
     36  NH1       21.2840   -2.2740   91.1310 N.pl3  56  ARG56       0.1354
     37  NH2       22.2120   -4.3740   91.2900 N.pl3  56  ARG56       0.1354
     38  N         22.5100  -13.4100   94.0350 N.3    77  TRP77      -0.1241
     39  CA        23.6650  -12.5050   94.1520 C.3    77  TRP77       0.1605
     40  C         23.3570  -11.0460   94.5300 C.2    77  TRP77       0.2264
     41  O         24.2670  -10.2370   94.5870 O.2    77  TRP77      -0.2867
     42  CB        24.4850  -12.5490   92.8540 C.3    77  TRP77       0.0550
     43  CG        23.7030  -12.4380   91.5520 C.ar   77  TRP77       0.0003
     44  CD1       23.1980  -13.4710   90.7860 C.ar   77  TRP77       0.0946
     45  CD2       23.3690  -11.2440   90.8760 C.ar   77  TRP77       0.0152
     46  NE1       22.5510  -12.9640   89.6950 N.ar   77  TRP77      -0.2442
     47  CE2       22.6570  -11.5980   89.7220 C.ar   77  TRP77       0.0810
     48  CE3       23.6100   -9.8920   91.1350 C.ar   77  TRP77       0.0012
     49  CZ2       22.1730  -10.6560   88.8470 C.ar   77  TRP77       0.0191
     50  CZ3       23.1120   -8.9570   90.2590 C.ar   77  TRP77       0.0001
     51  CH2       22.4180   -9.3450   89.1310 C.ar   77  TRP77       0.0015
     52  N         15.5230   -7.2020   91.9020 N.3    82  LEU82      -0.1231
     53  CA        16.1460   -6.4810   90.8590 C.3    82  LEU82       0.1693
     54  C         15.4630   -6.7110   89.4860 C.2    82  LEU82       0.2592
     55  O         15.2520   -7.8480   89.1230 O.2    82  LEU82      -0.2718
     56  CB        17.6060   -7.0300   90.7540 C.3    82  LEU82       0.0284
     57  CG        18.5650   -6.5230   89.7280 C.3    82  LEU82       0.0019
     58  CD1       18.8760   -5.0160   89.7810 C.3    82  LEU82       0.0001
     59  CD2       19.9230   -7.1920   89.7950 C.3    82  LEU82       0.0001
     60  N         15.1310   -5.5990   88.8000 N.am   83  HIS83      -0.1976
     61  CA        14.7550   -5.5930   87.3830 C.3    83  HIS83       0.1656
     62  C         13.4910   -6.3330   87.0650 C.2    83  HIS83       0.2291
     63  O         13.2640   -6.6670   85.9000 O.2    83  HIS83      -0.2864
     64  CB        15.8650   -6.1730   86.5220 C.3    83  HIS83       0.0771
     65  CG        17.1000   -5.3470   86.4520 C.ar   83  HIS83       0.0820
     66  ND1       17.0920   -3.9680   86.4240 N.ar   83  HIS83      -0.2267
     67  CD2       18.3860   -5.7210   86.3510 C.ar   83  HIS83       0.1154
     68  CE1       18.3420   -3.5430   86.3380 C.ar   83  HIS83       0.1986
     69  NE2       19.1460   -4.5860   86.2640 N.ar   83  HIS83      -0.2212
     70  N         12.7960  -10.8390   82.9790 N.3    87  TRP87      -0.1241
     71  CA        14.1270  -11.3180   82.6350 C.3    87  TRP87       0.1605
     72  C         14.4360  -12.6660   83.1830 C.2    87  TRP87       0.2264
     73  O         15.3790  -13.3000   82.7040 O.2    87  TRP87      -0.2867
     74  CB        15.1750  -10.2840   83.0710 C.3    87  TRP87       0.0550
     75  CG        15.3710  -10.1310   84.5320 C.ar   87  TRP87       0.0003
     76  CD1       14.4210   -9.8880   85.4750 C.ar   87  TRP87       0.0946
     77  CD2       16.6310  -10.1060   85.2160 C.ar   87  TRP87       0.0152
     78  NE1       15.0000   -9.7590   86.7150 N.ar   87  TRP87      -0.2442
     79  CE2       16.3540   -9.8590   86.5830 C.ar   87  TRP87       0.0810
     80  CE3       17.9610  -10.2260   84.8070 C.ar   87  TRP87       0.0012
     81  CZ2       17.3660   -9.7960   87.5460 C.ar   87  TRP87       0.0191
     82  CZ3       18.9550  -10.1540   85.7430 C.ar   87  TRP87       0.0001
     83  CH2       18.6530   -9.9230   87.1010 C.ar   87  TRP87       0.0015
     84  N         17.8920   -3.6050   79.1330 N.3   148  HIS148     -0.1241
     85  CA        19.2570   -3.6950   79.5660 C.3   148  HIS148      0.1621
     86  C         20.1640   -4.2500   78.5040 C.2   148  HIS148      0.2264
     87  O         20.5710   -5.4060   78.5870 O.2   148  HIS148     -0.2867
     88  CB        19.2560   -4.5350   80.8120 C.3   148  HIS148      0.0745
     89  CG        20.5010   -4.4850   81.6270 C.ar  148  HIS148      0.0817
     90  ND1       21.6780   -5.0990   81.2470 N.ar  148  HIS148     -0.2268
     91  CD2       20.6890   -4.0840   82.9080 C.ar  148  HIS148      0.1154
     92  CE1       22.5630   -5.0080   82.2240 C.ar  148  HIS148      0.1986
     93  NE2       21.9900   -4.3880   83.2480 N.ar  148  HIS148     -0.2212
     94  N         23.5370   -4.9160   76.3250 N.3   150  TYR150     -0.1241
     95  CA        24.9950   -5.0180   76.4570 C.3   150  TYR150      0.1605
     96  C         25.6350   -4.6770   75.1050 C.2   150  TYR150      0.2264
     97  O         25.4080   -5.3670   74.1220 O.2   150  TYR150     -0.2867
     98  CB        25.3830   -6.4420   76.8320 C.3   150  TYR150      0.0534
     99  CG        24.9770   -6.9150   78.2180 C.ar  150  TYR150     -0.0201
    100  CD1       23.7040   -7.3730   78.4560 C.ar  150  TYR150     -0.0009
    101  CD2       25.8770   -6.9700   79.2710 C.ar  150  TYR150     -0.0009
    102  CE1       23.3360   -7.8510   79.7290 C.ar  150  TYR150      0.0417
    103  CE2       25.5000   -7.4230   80.5310 C.ar  150  TYR150      0.0417
    104  CZ        24.2420   -7.8530   80.7440 C.ar  150  TYR150      0.1957
    105  OH        23.8580   -8.3330   81.9900 O.3   150  TYR150     -0.2866
    106  N         24.9300   -1.4620   95.9020 N.3   173  TRP173     -0.1241
    107  CA        24.7340   -1.0900   94.4940 C.3   173  TRP173      0.1605
    108  C         23.5530   -0.1910   94.2600 C.2   173  TRP173      0.2264
    109  O         23.0250   -0.1310   93.1360 O.2   173  TRP173     -0.2867
    110  CB        24.6140   -2.3210   93.5930 C.3   173  TRP173      0.0550
    111  CG        25.7810   -3.2000   93.7210 C.ar  173  TRP173      0.0003
    112  CD1       27.0960   -2.8690   93.5830 C.ar  173  TRP173      0.0946
    113  CD2       25.7180   -4.5850   93.9500 C.ar  173  TRP173      0.0152
    114  NE1       27.8710   -3.9890   93.7460 N.ar  173  TRP173     -0.2442
    115  CE2       27.0420   -5.0670   93.9610 C.ar  173  TRP173      0.0810
    116  CE3       24.6430   -5.4830   94.1360 C.ar  173  TRP173      0.0012
    117  CZ2       27.3510   -6.4150   94.2150 C.ar  173  TRP173      0.0191
    118  CZ3       24.9330   -6.8440   94.3610 C.ar  173  TRP173      0.0001
    119  CH2       26.2810   -7.2920   94.3940 C.ar  173  TRP173      0.0015
    120  N         34.9000    0.6280   87.2620 N.3   198  TRP198     -0.1241
    121  CA        33.5430    0.2740   87.6220 C.3   198  TRP198      0.1605
    122  C         32.6640    1.4920   87.4990 C.2   198  TRP198      0.2264
    123  O         32.9590    2.5290   88.0600 O.2   198  TRP198     -0.2867
    124  CB        33.5180   -0.2040   89.0930 C.3   198  TRP198      0.0550
    125  CG        32.1810   -0.4980   89.6400 C.ar  198  TRP198      0.0003
    126  CD1       31.3950    0.3410   90.3740 C.ar  198  TRP198      0.0946
    127  CD2       31.4730   -1.7320   89.5610 C.ar  198  TRP198      0.0152
    128  NE1       30.2470   -0.2780   90.7290 N.ar  198  TRP198     -0.2442
    129  CE2       30.2440   -1.5420   90.2200 C.ar  198  TRP198      0.0810
    130  CE3       31.7200   -2.9660   88.9460 C.ar  198  TRP198      0.0012
    131  CZ2       29.3250   -2.5360   90.3500 C.ar  198  TRP198      0.0191
    132  CZ3       30.7900   -3.9680   89.0870 C.ar  198  TRP198      0.0001
    133  CH2       29.6030   -3.7460   89.7650 C.ar  198  TRP198      0.0015
    134  N         28.4080    2.1810   87.8790 N.3   200  ASN200     -0.1240
    135  CA        27.0440    1.6940   88.1250 C.3   200  ASN200      0.1653
    136  C         26.1900    2.8830   88.5730 C.2   200  ASN200      0.2266
    137  O         26.0720    3.1660   89.7770 O.2   200  ASN200     -0.2867
    138  CB        27.0860    0.5990   89.2100 C.3   200  ASN200      0.1155
    139  CG        25.6980    0.1110   89.6110 C.2   200  ASN200      0.2627
    140  OD1       24.7850    0.0300   88.8020 O.2   200  ASN200     -0.2716
    141  ND2       25.5200   -0.1420   90.8990 N.am  200  ASN200     -0.0877
    142  N         26.4950    0.8940   82.9650 N.3   234  PHE234     -0.1241
    143  CA        27.2400   -0.1340   83.6440 C.3   234  PHE234      0.1605
    144  C         28.5320   -0.4740   82.9140 C.2   234  PHE234      0.2264
    145  O         28.5320   -0.8000   81.7020 O.2   234  PHE234     -0.2867
    146  CB        26.4200   -1.4330   83.7870 C.3   234  PHE234      0.0534
    147  CG        27.1450   -2.5240   84.5000 C.ar  234  PHE234     -0.0203
    148  CD1       27.6310   -2.3400   85.7620 C.ar  234  PHE234     -0.0042
    149  CD2       27.4020   -3.7180   83.8770 C.ar  234  PHE234     -0.0042
    150  CE1       28.3660   -3.3150   86.4090 C.ar  234  PHE234     -0.0003
    151  CE2       28.1250   -4.7500   84.5470 C.ar  234  PHE234     -0.0003
    152  CZ        28.6060   -4.5280   85.8030 C.ar  234  PHE234     -0.0000
    153  N         35.8580   -7.6900   90.1960 N.3   240  PHE240     -0.1241
    154  CA        34.4930   -8.1980   90.5790 C.3   240  PHE240      0.1605
    155  C         33.9680   -9.2810   89.6340 C.2   240  PHE240      0.2264
    156  O         32.9450   -9.9230   89.9210 O.2   240  PHE240     -0.2867
    157  CB        33.4750   -7.0210   90.6550 C.3   240  PHE240      0.0534
    158  CG        31.9600   -7.3900   90.4480 C.ar  240  PHE240     -0.0203
    159  CD1       31.4480   -7.7470   89.1780 C.ar  240  PHE240     -0.0042
    160  CD2       31.0260   -7.2560   91.4960 C.ar  240  PHE240     -0.0042
    161  CE1       30.0480   -8.0420   88.9580 C.ar  240  PHE240     -0.0003
    162  CE2       29.6130   -7.5300   91.2790 C.ar  240  PHE240     -0.0003
    163  CZ        29.1220   -7.9330   90.0240 C.ar  240  PHE240     -0.0000
    164  N         21.2580    1.5960   79.7200 N.3   252  GLU252     -0.1245
    165  CA        19.9500    0.9660   80.0420 C.3   252  GLU252      0.1567
    166  C         18.8540    2.0040   80.0900 C.2   252  GLU252      0.2260
    167  O         18.8030    2.7680   81.0610 O.2   252  GLU252     -0.2867
    168  CB        19.9710    0.2470   81.4080 C.3   252  GLU252      0.0388
    169  CG        21.2100   -0.5260   81.6460 C.3   252  GLU252      0.1160
    170  CD        21.4500   -0.9780   83.1200 C.2   252  GLU252      0.3649
    171  OE1       20.4620   -1.0630   83.9480 O.co2 252  GLU252     -0.2457
    172  OE2       22.6570   -1.2650   83.4140 O.co2 252  GLU252     -0.2457
@<TRIPOS>BOND
     1    97    96    2
     2    96    95    1
     3    94    95    1
     4    95    98    1
     5    98    99    1
     6     8     9    1
     7    99   100   ar
     8    99   101   ar
     9   100   102   ar
    10    86    87    2
    11    86    85    1
    12     9    10    1
    13     9    12    1
    14    10    11    2
    15    84    85    1
    16   101   103   ar
    17    85    88    1
    18   164   165    1
    19   102   104   ar
    20    12    13    1
    21   165   166    1
    22   165   168    1
    23   166   167    2
    24   103   104   ar
    25   104   105    1
    26    88    89    1
    27    13    15   ar
    28    13    14   ar
    29    15    17   ar
    30    90    89   ar
    31    90    92   ar
    32     4     3    2
    33   168   169    1
    34     3     2    1
    35    89    91   ar
    36   169   170    1
    37   145   144    2
    38    14    16   ar
    39    17    18   ar
    40    92    93   ar
    41     1     2    1
    42     2     5    1
    43    71    70    1
    44    71    74    1
    45    71    72    1
    46    73    72    2
    47    91    93   ar
    48   144   143    1
    49    16    18   ar
    50   142   143    1
    51    74    75    1
    52   170   172   ar
    53   170   171   ar
    54   143   146    1
    55   146   147    1
    56     5     6    1
    57     5     7    1
    58   149   147   ar
    59   149   151   ar
    60   147   148   ar
    61    75    77   ar
    62    75    76   ar
    63   151   152   ar
    64    80    77   ar
    65    80    82   ar
    66    77    79   ar
    67    76    78   ar
    68    82    83   ar
    69   148   150   ar
    70   152   150   ar
    71    63    62    2
    72    69    68   ar
    73    69    67   ar
    74    68    66   ar
    75    67    65   ar
    76    66    65   ar
    77    65    64    1
    78    64    61    1
    79    79    78   ar
    80    79    81   ar
    81    62    61    1
    82    83    81   ar
    83   120   121    1
    84    61    60    1
    85   122   121    1
    86   122   123    2
    87   121   124    1
    88    19    20    1
    89   134   135    1
    90   135   136    1
    91   135   138    1
    92    26    24   am
    93   136   137    2
    94    60    54   am
    95   140   139    2
    96    49    51   ar
    97    49    47   ar
    98    23    20    1
    99    23    24    1
   100    20    21    1
   101   130   132   ar
   102   130   127   ar
   103   161   159   ar
   104   161   163   ar
   105   132   133   ar
   106   124   125    1
   107    55    54    2
   108    51    50   ar
   109   159   158   ar
   110   138   139    1
   111    24    25    2
   112    54    53    1
   113   127   125   ar
   114   127   129   ar
   115   139   141   am
   116   155   156    2
   117   155   154    1
   118   125   126   ar
   119    46    47   ar
   120    46    44   ar
   121    47    45   ar
   122    57    58    1
   123    57    59    1
   124    57    56    1
   125   133   131   ar
   126   163   162   ar
   127   153   154    1
   128   129   131   ar
   129   129   128   ar
   130    21    22    2
   131    21    27   am
   132    50    48   ar
   133   126   128   ar
   134   158   157    1
   135   158   160   ar
   136   154   157    1
   137    56    53    1
   138    44    43   ar
   139    53    52    1
   140    45    48   ar
   141    45    43   ar
   142    36    35    1
   143   162   160   ar
   144    37    35    1
   145    27    28    1
   146    43    42    1
   147    35    34    2
   148    28    29    1
   149    28    31    1
   150    42    39    1
   151    34    33    1
   152    32    31    1
   153    32    33    1
   154    30    29    2
   155   109   108    2
   156   112   111   ar
   157   112   114   ar
   158   110   111    1
   159   110   107    1
   160   111   113   ar
   161   114   115   ar
   162   113   115   ar
   163   113   116   ar
   164   115   117   ar
   165    38    39    1
   166   116   118   ar
   167    39    40    1
   168   117   119   ar
   169   108   107    1
   170   118   119   ar
   171   107   106    1
   172    40    41    2
