@<TRIPOS>MOLECULE
tmp/3nriA00.pdb
 225 214 0 0 0
SMALL
GASTEIGER

@<TRIPOS>ATOM
      1  N        -18.1860  -17.4380    4.1220 N.3    17  LYS17      -0.1231
      2  CA       -17.0270  -18.2080    3.6880 C.3    17  LYS17       0.1693
      3  C        -16.6690  -17.8940    2.2380 C.2    17  LYS17       0.2592
      4  O        -15.5130  -17.6130    1.9190 O.2    17  LYS17      -0.2718
      5  CB       -17.2870  -19.7060    3.8560 C.3    17  LYS17       0.0285
      6  CG       -16.0330  -20.5610    3.7900 C.3    17  LYS17       0.0035
      7  CD       -15.5090  -20.8800    5.1840 C.3    17  LYS17       0.0206
      8  CE       -14.6240  -22.1190    5.1740 C.3    17  LYS17       0.1093
      9  NZ       -14.9800  -23.0530    6.2810 N.3    17  LYS17      -0.1314
     10  N        -17.6680  -17.9220    1.3630 N.am   18  HIS18      -0.1962
     11  CA       -17.4120  -18.0170   -0.0630 C.3    18  HIS18       0.1787
     12  C        -17.5610  -16.6850   -0.7880 C.2    18  HIS18       0.2621
     13  O        -16.9310  -16.4700   -1.8220 O.2    18  HIS18      -0.2715
     14  CB       -18.2900  -19.0920   -0.6980 C.3    18  HIS18       0.0785
     15  CG       -17.9870  -20.4770   -0.2120 C.ar   18  HIS18       0.0821
     16  ND1      -16.9670  -21.2440   -0.7380 N.ar   18  HIS18      -0.2267
     17  CD2      -18.5240  -21.2070    0.7950 C.ar   18  HIS18       0.1154
     18  CE1      -16.9090  -22.3970   -0.0950 C.ar   18  HIS18       0.1986
     19  NE2      -17.8350  -22.3950    0.8480 N.ar   18  HIS18      -0.2212
     20  N        -18.2980  -15.7520   -0.1910 N.am   19  SER19      -0.1936
     21  CA       -18.4600  -14.4300   -0.7850 C.3    19  SER19       0.2055
     22  C        -18.3950  -13.2860    0.2230 C.2    19  SER19       0.2643
     23  O        -19.4250  -12.6910    0.5560 O.2    19  SER19      -0.2714
     24  CB       -19.7640  -14.3470   -1.5740 C.3    19  SER19       0.2130
     25  OG       -19.9060  -13.0610   -2.1540 O.3    19  SER19      -0.2179
     26  N        -17.1770  -12.8650    0.5540 N.am   20  LYS20      -0.1963
     27  CA       -16.9690  -11.7500    1.4770 C.3    20  LYS20       0.1728
     28  C        -17.7190  -10.4970    1.0340 C.2    20  LYS20       0.2617
     29  O        -18.0630   -9.6490    1.8590 O.2    20  LYS20      -0.2715
     30  CB       -15.4770  -11.4360    1.6320 C.3    20  LYS20       0.0311
     31  CG       -14.6530  -12.5530    2.2560 C.3    20  LYS20       0.0038
     32  CD       -15.0590  -12.8130    3.7010 C.3    20  LYS20       0.0206
     33  CE       -14.3460  -14.0330    4.2590 C.3    20  LYS20       0.1093
     34  NZ       -14.4220  -15.1850    3.3140 N.3    20  LYS20      -0.1314
     35  N        -17.9560  -10.3760   -0.2700 N.am   21  SER21      -0.1936
     36  CA       -18.6000   -9.1860   -0.8170 C.3    21  SER21       0.2055
     37  C        -20.1070   -9.1870   -0.5640 C.2    21  SER21       0.2643
     38  O        -20.6650   -8.1970   -0.0870 O.2    21  SER21      -0.2714
     39  CB       -18.3080   -9.0390   -2.3130 C.3    21  SER21       0.2130
     40  OG       -16.9140   -9.0340   -2.5700 O.3    21  SER21      -0.2179
     41  N        -20.7620  -10.3050   -0.8580 N.am   22  PHE22      -0.1973
     42  CA       -22.2140  -10.3490   -0.7790 C.3    22  PHE22       0.1639
     43  C        -22.6830  -10.4050    0.6650 C.2    22  PHE22       0.2290
     44  O        -23.5600   -9.6380    1.0660 O.2    22  PHE22      -0.2864
     45  CB       -22.7790  -11.5140   -1.5910 C.3    22  PHE22       0.0560
     46  CG       -22.4570  -11.4380   -3.0550 C.ar   22  PHE22      -0.0200
     47  CD1      -22.3490  -10.2120   -3.6900 C.ar   22  PHE22      -0.0042
     48  CD2      -22.1890  -12.5870   -3.7800 C.ar   22  PHE22      -0.0042
     49  CE1      -21.9620  -10.1280   -5.0150 C.ar   22  PHE22      -0.0003
     50  CE2      -21.8020  -12.5120   -5.1100 C.ar   22  PHE22      -0.0003
     51  CZ       -21.6970  -11.2800   -5.7290 C.ar   22  PHE22      -0.0000
     52  N        -28.5870  -18.3440   -1.1540 N.3    41  TYR41      -0.1241
     53  CA       -27.1750  -18.3980   -1.4870 C.3    41  TYR41       0.1605
     54  C        -26.6220  -19.7830   -1.2160 C.2    41  TYR41       0.2264
     55  O        -25.9290  -20.3630   -2.0510 O.2    41  TYR41      -0.2867
     56  CB       -26.3780  -17.3730   -0.6870 C.3    41  TYR41       0.0534
     57  CG       -24.9330  -17.2960   -1.1150 C.ar   41  TYR41      -0.0201
     58  CD1      -24.0090  -18.2350   -0.6740 C.ar   41  TYR41      -0.0009
     59  CD2      -24.5200  -16.3660   -2.0630 C.ar   41  TYR41      -0.0009
     60  CE1      -22.6860  -18.1870   -1.0880 C.ar   41  TYR41       0.0417
     61  CE2      -23.2000  -16.3050   -2.4830 C.ar   41  TYR41       0.0417
     62  CZ       -22.2870  -17.2230   -1.9990 C.ar   41  TYR41       0.1957
     63  OH       -20.9850  -17.2010   -2.4550 O.3    41  TYR41      -0.2866
     64  N        -27.6140  -22.4770   -3.5520 N.3    44  CYS44      -0.1221
     65  CA       -26.9400  -22.2800   -4.8230 C.3    44  CYS44       0.1808
     66  C        -25.4520  -22.6080   -4.7360 C.2    44  CYS44       0.2601
     67  O        -24.9280  -23.3690   -5.5530 O.2    44  CYS44      -0.2717
     68  CB       -27.1530  -20.8600   -5.3310 C.3    44  CYS44       0.0970
     69  SG       -28.8800  -20.4950   -5.6400 S.3    44  CYS44      -0.0800
     70  N        -24.7840  -22.0600   -3.7250 N.am   45  ARG45      -0.1979
     71  CA       -23.4080  -22.4410   -3.4330 C.3    45  ARG45       0.1597
     72  C        -23.2500  -23.9590   -3.4410 C.2    45  ARG45       0.2287
     73  O        -22.2890  -24.4940   -4.0000 O.2    45  ARG45      -0.2864
     74  CB       -22.9750  -21.8790   -2.0780 C.3    45  ARG45       0.0334
     75  CG       -21.6170  -22.3670   -1.6130 C.3    45  ARG45       0.0492
     76  CD       -20.4900  -21.6820   -2.3700 C.3    45  ARG45       0.2205
     77  NE       -20.6330  -21.8390   -3.8140 N.pl3  45  ARG45      -0.0865
     78  CZ       -20.2670  -20.9260   -4.7070 C.cat  45  ARG45       0.5346
     79  NH1      -19.7070  -19.7900   -4.3060 N.pl3  45  ARG45       0.1354
     80  NH2      -20.4950  -21.1320   -5.9960 N.pl3  45  ARG45       0.1354
     81  N        -23.3620  -25.3250   -6.9920 N.3    48  ASP48      -0.1239
     82  CA       -22.1920  -24.9310   -7.7680 C.3    48  ASP48       0.1674
     83  C        -20.9920  -25.8190   -7.4510 C.2    48  ASP48       0.2266
     84  O        -20.2360  -26.2050   -8.3450 O.2    48  ASP48      -0.2867
     85  CB       -21.8440  -23.4710   -7.4920 C.3    48  ASP48       0.1410
     86  CG       -21.1920  -22.7930   -8.6790 C.2    48  ASP48       0.3668
     87  OD1      -20.0490  -23.1680   -9.0250 O.co2  48  ASP48      -0.2456
     88  OD2      -21.8100  -21.8660   -9.2510 O.co2  48  ASP48      -0.2456
     89  N        -30.3240  -23.5060  -13.0470 N.3   102  LEU102     -0.1245
     90  CA       -28.9920  -23.5090  -12.4640 C.3   102  LEU102      0.1561
     91  C        -28.4740  -24.9340  -12.3770 C.2   102  LEU102      0.2260
     92  O        -27.3520  -25.2250  -12.7920 O.2   102  LEU102     -0.2867
     93  CB       -29.0330  -22.8790  -11.0720 C.3   102  LEU102      0.0270
     94  CG       -27.7690  -22.9740  -10.2220 C.3   102  LEU102      0.0019
     95  CD1      -26.6040  -22.2770  -10.9070 C.3   102  LEU102      0.0001
     96  CD2      -28.0320  -22.3740   -8.8500 C.3   102  LEU102      0.0001
     97  N        -26.0620  -19.6290  -14.6020 N.3   128  VAL128     -0.1231
     98  CA       -25.2480  -19.6580  -13.3950 C.3   128  VAL128      0.1692
     99  C        -25.5870  -18.5570  -12.3890 C.2   128  VAL128      0.2591
    100  O        -25.3710  -18.7250  -11.1890 O.2   128  VAL128     -0.2718
    101  CB       -23.7520  -19.6300  -13.7140 C.3   128  VAL128      0.0266
    102  CG1      -23.0000  -18.8400  -12.6550 C.3   128  VAL128      0.0020
    103  CG2      -23.2180  -21.0420  -13.8130 C.3   128  VAL128      0.0020
    104  N        -26.1260  -17.4380  -12.8660 N.am  129  ALA129     -0.1980
    105  CA       -26.2680  -16.2600  -12.0170 C.3   129  ALA129      0.1597
    106  C        -27.5620  -15.4900  -12.2560 C.2   129  ALA129      0.2287
    107  O        -28.2150  -15.0630  -11.3080 O.2   129  ALA129     -0.2864
    108  CB       -25.0740  -15.3520  -12.1720 C.3   129  ALA129      0.0319
    109  N        -30.0020  -17.0290  -10.1760 N.3   132  VAL132     -0.1231
    110  CA       -29.9360  -16.6470   -8.7750 C.3   132  VAL132      0.1692
    111  C        -30.6930  -15.3480   -8.5340 C.2   132  VAL132      0.2592
    112  O        -31.5880  -15.2930   -7.6900 O.2   132  VAL132     -0.2718
    113  CB       -28.4840  -16.5030   -8.2890 C.3   132  VAL132      0.0266
    114  CG1      -28.4340  -15.7180   -6.9810 C.3   132  VAL132      0.0020
    115  CG2      -27.8420  -17.8780   -8.1350 C.3   132  VAL132      0.0020
    116  N        -30.3950  -14.3370   -9.3450 N.am  133  GLY133     -0.1957
    117  CA       -31.0740  -13.0510   -9.2520 C.3   133  GLY133      0.1869
    118  C        -32.5870  -13.1600   -9.2970 C.2   133  GLY133      0.2309
    119  O        -33.2920  -12.3670   -8.6800 O.2   133  GLY133     -0.2863
    120  N        -33.8810  -14.5470   -5.9400 N.3   136  LEU136     -0.1245
    121  CA       -33.8040  -13.5150   -4.9050 C.3   136  LEU136      0.1561
    122  C        -34.8650  -12.4310   -5.0520 C.2   136  LEU136      0.2260
    123  O        -35.1150  -11.6710   -4.1200 O.2   136  LEU136     -0.2867
    124  CB       -32.4190  -12.8670   -4.8850 C.3   136  LEU136      0.0270
    125  CG       -31.2610  -13.7700   -4.4630 C.3   136  LEU136      0.0019
    126  CD1      -29.9200  -13.0840   -4.6980 C.3   136  LEU136      0.0001
    127  CD2      -31.4080  -14.1970   -3.0120 C.3   136  LEU136      0.0001
    128  N        -27.4730  -10.1060  -11.9360 N.3   156  GLY156     -0.1225
    129  CA       -26.9050  -11.4440  -11.8110 C.3   156  GLY156      0.1811
    130  C        -25.9310  -11.7970  -12.9200 C.2   156  GLY156      0.2280
    131  O        -24.8190  -12.2540  -12.6610 O.2   156  GLY156     -0.2866
    132  N        -22.6630   -9.6690  -12.8990 N.3   159  LEU159     -0.1231
    133  CA       -21.7790  -10.0250  -11.7950 C.3   159  LEU159      0.1693
    134  C        -20.9960  -11.2900  -12.1150 C.2   159  LEU159      0.2591
    135  O        -19.7760  -11.3310  -11.9570 O.2   159  LEU159     -0.2718
    136  CB       -22.5670  -10.2110  -10.4980 C.3   159  LEU159      0.0284
    137  CG       -23.2470   -8.9760   -9.8990 C.3   159  LEU159      0.0019
    138  CD1      -23.9250   -9.3250   -8.5810 C.3   159  LEU159      0.0001
    139  CD2      -22.2550   -7.8340   -9.7150 C.3   159  LEU159      0.0001
    140  N        -21.6890  -12.2990  -12.6270 N.am  160  GLN160     -0.1979
    141  CA       -21.0170  -13.4840  -13.1470 C.3   160  GLN160      0.1601
    142  C        -19.9640  -13.1280  -14.1940 C.2   160  GLN160      0.2287
    143  O        -18.8720  -13.6800  -14.1900 O.2   160  GLN160     -0.2864
    144  CB       -22.0290  -14.4680  -13.7270 C.3   160  GLN160      0.0394
    145  CG       -21.4010  -15.6710  -14.4130 C.3   160  GLN160      0.0908
    146  CD       -20.5390  -16.4930  -13.4830 C.2   160  GLN160      0.2608
    147  OE1      -20.6580  -16.4000  -12.2620 O.2   160  GLN160     -0.2717
    148  NE2      -19.6750  -17.3190  -14.0550 N.am  160  GLN160     -0.0878
    149  N        -17.0270  -11.8740  -12.4490 N.3   163  ASN163     -0.1240
    150  CA       -16.3370  -13.0870  -12.0280 C.3   163  ASN163      0.1653
    151  C        -15.3330  -13.5760  -13.0580 C.2   163  ASN163      0.2266
    152  O        -14.1460  -13.6740  -12.7760 O.2   163  ASN163     -0.2867
    153  CB       -17.3480  -14.2000  -11.7620 C.3   163  ASN163      0.1155
    154  CG       -17.1510  -14.8480  -10.4200 C.2   163  ASN163      0.2627
    155  OD1      -17.5740  -14.3100   -9.3970 O.2   163  ASN163     -0.2716
    156  ND2      -16.4530  -15.9820  -10.4050 N.am  163  ASN163     -0.0877
    157  N        -12.2620  -11.5180  -13.4540 N.3   166  ARG166     -0.1245
    158  CA       -11.2960  -11.5380  -12.3580 C.3   166  ARG166      0.1563
    159  C        -10.4970  -12.8360  -12.3420 C.2   166  ARG166      0.2260
    160  O         -9.3600  -12.8710  -11.8730 O.2   166  ARG166     -0.2867
    161  CB       -12.0040  -11.3550  -11.0160 C.3   166  ARG166      0.0307
    162  CG       -11.0770  -11.4590   -9.8140 C.3   166  ARG166      0.0489
    163  CD       -11.8540  -11.7150   -8.5370 C.3   166  ARG166      0.2205
    164  NE       -12.5140  -13.0150   -8.5500 N.pl3 166  ARG166     -0.0865
    165  CZ       -13.5210  -13.3530   -7.7500 C.cat 166  ARG166      0.5346
    166  NH1      -13.9960  -12.4830   -6.8660 N.pl3 166  ARG166      0.1354
    167  NH2      -14.0690  -14.5560   -7.8510 N.pl3 166  ARG166      0.1354
    168  N        -18.6690   -4.7660   -6.5790 N.3   243  TYR243     -0.1241
    169  CA       -18.2940   -5.7860   -7.5510 C.3   243  TYR243      0.1605
    170  C        -17.7350   -5.1980   -8.8430 C.2   243  TYR243      0.2264
    171  O        -16.8260   -5.7730   -9.4440 O.2   243  TYR243     -0.2867
    172  CB       -19.4760   -6.6990   -7.8550 C.3   243  TYR243      0.0534
    173  CG       -19.1750   -8.1590   -7.6360 C.ar  243  TYR243     -0.0201
    174  CD1      -18.9530   -9.0100   -8.7120 C.ar  243  TYR243     -0.0009
    175  CD2      -19.0550   -8.6790   -6.3530 C.ar  243  TYR243     -0.0009
    176  CE1      -18.6490  -10.3430   -8.5180 C.ar  243  TYR243      0.0417
    177  CE2      -18.7460  -10.0110   -6.1490 C.ar  243  TYR243      0.0417
    178  CZ       -18.5430  -10.8370   -7.2360 C.ar  243  TYR243      0.1957
    179  OH       -18.2470  -12.1670   -7.0450 O.3   243  TYR243     -0.2866
    180  N        -14.2420   -4.3850   -8.4840 N.3   246  ILE246     -0.1245
    181  CA       -13.3670   -5.5060   -8.7980 C.3   246  ILE246      0.1561
    182  C        -12.6610   -5.2900  -10.1300 C.2   246  ILE246      0.2260
    183  O        -11.5990   -5.8610  -10.3790 O.2   246  ILE246     -0.2867
    184  CB       -14.1450   -6.8360   -8.8420 C.3   246  ILE246      0.0252
    185  CG1      -14.3380   -7.3830   -7.4260 C.3   246  ILE246      0.0019
    186  CG2      -13.4260   -7.8470   -9.7280 C.3   246  ILE246      0.0019
    187  CD1      -15.0490   -8.7160   -7.3780 C.3   246  ILE246      0.0001
    188  N         -6.0490  -14.1370   -7.7690 N.3   260  ARG260     -0.1231
    189  CA        -7.2960  -13.4580   -7.4480 C.3   260  ARG260      0.1694
    190  C         -7.0240  -12.0860   -6.8180 C.2   260  ARG260      0.2592
    191  O         -6.4130  -11.9940   -5.7580 O.2   260  ARG260     -0.2718
    192  CB        -8.1210  -14.3250   -6.4940 C.3   260  ARG260      0.0321
    193  CG        -9.6210  -14.1210   -6.5780 C.3   260  ARG260      0.0489
    194  CD       -10.3420  -15.0630   -5.6260 C.3   260  ARG260      0.2205
    195  NE       -10.7140  -16.3100   -6.2830 N.pl3 260  ARG260     -0.0865
    196  CZ       -11.9650  -16.7400   -6.4130 C.cat 260  ARG260      0.5346
    197  NH1      -12.9590  -16.0660   -5.8450 N.pl3 260  ARG260      0.1354
    198  NH2      -12.2200  -17.8590   -7.0850 N.pl3 260  ARG260      0.1354
    199  N         -7.4420  -11.0230   -7.4950 N.am  261  VAL261     -0.1966
    200  CA        -7.5050   -9.7100   -6.8690 C.3   261  VAL261      0.1727
    201  C         -8.7350   -9.5810   -5.9720 C.2   261  VAL261      0.2616
    202  O         -9.6640  -10.3850   -6.0560 O.2   261  VAL261     -0.2715
    203  CB        -7.5170   -8.5810   -7.9110 C.3   261  VAL261      0.0290
    204  CG1       -6.4430   -8.8070   -8.9490 C.3   261  VAL261      0.0023
    205  CG2       -8.8850   -8.4680   -8.5580 C.3   261  VAL261      0.0023
    206  N         -8.7210   -8.5850   -5.0920 N.am  262  PHE262     -0.1974
    207  CA        -9.7820   -8.4210   -4.1030 C.3   262  PHE262      0.1639
    208  C         -9.9970   -6.9450   -3.7980 C.2   262  PHE262      0.2290
    209  O         -9.1270   -6.1150   -4.0570 O.2   262  PHE262     -0.2864
    210  CB        -9.4420   -9.1750   -2.8140 C.3   262  PHE262      0.0560
    211  CG        -8.2610   -8.6110   -2.0820 C.ar  262  PHE262     -0.0200
    212  CD1       -8.4420   -7.7000   -1.0520 C.ar  262  PHE262     -0.0042
    213  CD2       -6.9690   -8.8750   -2.5210 C.ar  262  PHE262     -0.0042
    214  CE1       -7.3550   -7.1000   -0.4400 C.ar  262  PHE262     -0.0003
    215  CE2       -5.8790   -8.2730   -1.9190 C.ar  262  PHE262     -0.0003
    216  CZ        -6.0720   -7.3710   -0.8890 C.ar  262  PHE262     -0.0000
    217  N        -14.6160   -1.5020    0.6570 N.3   268  LYS268     -0.1245
    218  CA       -16.0050   -1.8730    0.8610 C.3   268  LYS268      0.1561
    219  C        -16.6800   -0.8660    1.7750 C.2   268  LYS268      0.2260
    220  O        -17.7330   -0.3250    1.4430 O.2   268  LYS268     -0.2867
    221  CB       -16.1020   -3.2720    1.4660 C.3   268  LYS268      0.0271
    222  CG       -15.7800   -4.4010    0.5030 C.3   268  LYS268      0.0035
    223  CD       -16.2680   -5.7280    1.0540 C.3   268  LYS268      0.0206
    224  CE       -15.6520   -6.8930    0.3030 C.3   268  LYS268      0.1093
    225  NZ       -14.2510   -7.1560    0.7270 N.3   268  LYS268     -0.1314
@<TRIPOS>BOND
     1    97    98    1
     2   145   144    1
     3   145   146    1
     4   142   143    2
     5   142   141    1
     6   148   146   am
     7   103   101    1
     8   144   141    1
     9   101    98    1
    10   101   102    1
    11   146   147    2
    12   157   158    1
    13    98    99    1
    14   141   140    1
    15   151   152    2
    16   151   150    1
    17    89    90    1
    18   130   131    2
    19   130   129    1
    20   132   133    1
    21   104    99   am
    22   104   105    1
    23    92    91    2
    24   140   134   am
    25    90    91    1
    26    90    93    1
    27   149   150    1
    28    99   100    2
    29   158   159    1
    30   158   161    1
    31   159   160    2
    32   106   105    1
    33   106   107    2
    34   108   105    1
    35   134   135    2
    36   134   133    1
    37   150   153    1
    38   128   129    1
    39   133   136    1
    40   153   154    1
    41    93    94    1
    42   161   162    1
    43    95    94    1
    44   136   137    1
    45   154   156   am
    46   154   155    2
    47   183   182    2
    48    94    96    1
    49   109   110    1
    50   182   181    1
    51   137   139    1
    52   137   138    1
    53   162   163    1
    54   186   184    1
    55   171   170    2
    56   116   117    1
    57   116   111   am
    58   118   117    1
    59   118   119    2
    60    88    86   ar
    61    87    86   ar
    62   204   203    1
    63   170   169    1
    64   184   181    1
    65   184   185    1
    66   181   180    1
    67   110   111    1
    68   110   113    1
    69   174   176   ar
    70   174   173   ar
    71    86    85    1
    72   205   203    1
    73   164   163    1
    74   164   165    2
    75   111   112    2
    76   176   178   ar
    77    84    83    2
    78   113   115    1
    79   113   114    1
    80   203   200    1
    81   172   173    1
    82   172   169    1
    83   167   165    1
    84   188   189    1
    85    82    85    1
    86    82    83    1
    87    82    81    1
    88   165   166    1
    89   173   175   ar
    90   169   168    1
    91   199   200    1
    92   199   190   am
    93   189   190    1
    94   189   192    1
    95   185   187    1
    96   178   179    1
    97   178   177   ar
    98   198   196    1
    99   200   201    1
   100   190   191    2
   101   193   192    1
   102   193   194    1
   103   196   195    2
   104   196   197    1
   105   175   177   ar
   106   195   194    1
   107   202   201    2
   108    80    78    1
   109   201   206   am
   110   120   121    1
   111    51    50   ar
   112    51    49   ar
   113    69    68    1
   114    67    66    2
   115    68    65    1
   116    50    48   ar
   117   206   207    1
   118   122   121    1
   119   122   123    2
   120    49    47   ar
   121   121   124    1
   122   124   125    1
   123    65    66    1
   124    65    64    1
   125    66    70   am
   126    78    79    1
   127    78    77    2
   128   126   125    1
   129   125   127    1
   130   207   208    1
   131   207   210    1
   132   209   208    2
   133    73    72    2
   134    77    76    1
   135    48    46   ar
   136    70    71    1
   137    47    46   ar
   138    72    71    1
   139    71    74    1
   140    46    45    1
   141   210   211    1
   142    40    39    1
   143   213   211   ar
   144   213   215   ar
   145    61    59   ar
   146    61    62   ar
   147    63    62    1
   148    76    75    1
   149    39    36    1
   150    25    24    1
   151   211   212   ar
   152    74    75    1
   153    59    57   ar
   154    55    54    2
   155    62    60   ar
   156   215   216   ar
   157    13    12    2
   158    45    42    1
   159    24    21    1
   160    53    54    1
   161    53    52    1
   162    53    56    1
   163    57    56    1
   164    57    58   ar
   165    60    58   ar
   166   212   214   ar
   167   216   214   ar
   168    41    42    1
   169    41    37   am
   170    36    37    1
   171    36    35    1
   172    12    20   am
   173    12    11    1
   174    21    20    1
   175    21    22    1
   176    42    43    1
   177    16    15   ar
   178    16    18   ar
   179    14    15    1
   180    14    11    1
   181    37    38    2
   182    35    28   am
   183    15    17   ar
   184    18    19   ar
   185    11    10    1
   186    22    26   am
   187    22    23    2
   188   224   225    1
   189   224   223    1
   190   222   223    1
   191   222   221    1
   192    26    27    1
   193   217   218    1
   194    43    44    2
   195    17    19   ar
   196   218   221    1
   197   218   219    1
   198    28    27    1
   199    28    29    2
   200    10     3   am
   201   220   219    2
   202    27    30    1
   203    30    31    1
   204     4     3    2
   205     3     2    1
   206    31    32    1
   207    34    33    1
   208     2     5    1
   209     2     1    1
   210    32    33    1
   211     6     5    1
   212     6     7    1
   213     8     7    1
   214     8     9    1
