@<TRIPOS>MOLECULE
tmp/3nrmA00.pdb
 142 134 0 0 0
SMALL
GASTEIGER

@<TRIPOS>ATOM
      1  N         -5.8120   28.0910    4.5350 N.3    12  ARG12      -0.1245
      2  CA        -4.9600   28.3810    3.3790 C.3    12  ARG12       0.1563
      3  C         -3.5410   27.8110    3.5060 C.2    12  ARG12       0.2260
      4  O         -2.9560   27.9090    4.5860 O.2    12  ARG12      -0.2867
      5  CB        -4.9110   29.9000    3.1030 C.3    12  ARG12       0.0307
      6  CG        -4.2400   30.2700    1.7740 C.3    12  ARG12       0.0489
      7  CD        -4.1970   31.7570    1.5120 C.3    12  ARG12       0.2205
      8  NE        -3.3520   32.4700    2.4720 N.pl3  12  ARG12      -0.0865
      9  CZ        -2.0450   32.6730    2.3280 C.cat  12  ARG12       0.5346
     10  NH1       -1.4080   32.2140    1.2560 N.pl3  12  ARG12       0.1354
     11  NH2       -1.3660   33.3360    3.2540 N.pl3  12  ARG12       0.1354
     12  N          0.0150   28.2870    3.3600 N.3    14  LEU14      -0.1231
     13  CA         0.8940   29.4560    3.4450 C.3    14  LEU14       0.1693
     14  C          2.1440   29.3370    2.5770 C.2    14  LEU14       0.2592
     15  O          2.4980   30.3010    1.8930 O.2    14  LEU14      -0.2718
     16  CB         1.2590   29.7810    4.9080 C.3    14  LEU14       0.0284
     17  CG         0.0990   29.8520    5.9090 C.3    14  LEU14       0.0019
     18  CD1        0.6030   29.8660    7.3370 C.3    14  LEU14       0.0001
     19  CD2       -0.7990   31.0340    5.6380 C.3    14  LEU14       0.0001
     20  N          2.8010   28.1660    2.5910 N.am   15  GLY15      -0.1957
     21  CA         4.0060   27.9320    1.7950 C.3    15  GLY15       0.1869
     22  C          4.2710   26.4520    1.5180 C.2    15  GLY15       0.2309
     23  O          3.8270   25.5840    2.2720 O.2    15  GLY15      -0.2863
     24  N          3.3170   24.2830    4.8420 N.3    22  VAL22      -0.1245
     25  CA         2.8640   25.1670    5.9230 C.3    22  VAL22       0.1561
     26  C          1.4240   25.5860    5.6070 C.2    22  VAL22       0.2260
     27  O          1.1380   26.0100    4.4840 O.2    22  VAL22      -0.2867
     28  CB         3.7800   26.4080    6.1260 C.3    22  VAL22       0.0252
     29  CG1        3.4490   27.1150    7.4350 C.3    22  VAL22       0.0019
     30  CG2        5.2570   26.0340    6.0850 C.3    22  VAL22       0.0019
     31  N          0.3440   28.7530   12.4320 N.3    35  ALA35      -0.1245
     32  CA         0.8790   28.0610   11.2630 C.3    35  ALA35       0.1562
     33  C          1.1660   26.5980   11.6170 C.2    35  ALA35       0.2260
     34  O          1.6760   26.3060   12.7050 O.2    35  ALA35      -0.2867
     35  CB         2.1550   28.7440   10.7880 C.3    35  ALA35       0.0290
     36  N          3.1810   23.1670   10.3450 N.3    37  LYS37      -0.1245
     37  CA         4.1710   22.5340    9.4820 C.3    37  LYS37       0.1561
     38  C          3.8900   21.0350    9.5070 C.2    37  LYS37       0.2260
     39  O          4.2520   20.3360   10.4590 O.2    37  LYS37      -0.2867
     40  CB         5.6030   22.8670    9.9400 C.3    37  LYS37       0.0271
     41  CG         6.5700   23.1360    8.7980 C.3    37  LYS37       0.0035
     42  CD         7.8780   23.7320    9.3080 C.3    37  LYS37       0.0206
     43  CE         8.9340   23.8100    8.2310 C.3    37  LYS37       0.1093
     44  NZ        10.2830   24.1070    8.7900 N.3    37  LYS37      -0.1314
     45  N         10.5700   33.0510   15.0350 N.3    69  LEU69      -0.1245
     46  CA         9.2560   32.4140   14.9680 C.3    69  LEU69       0.1561
     47  C          9.0930   31.4100   16.1000 C.2    69  LEU69       0.2260
     48  O          9.8640   30.4510   16.2040 O.2    69  LEU69      -0.2867
     49  CB         9.0500   31.7410   13.6050 C.3    69  LEU69       0.0270
     50  CG         7.6700   31.8920   13.0060 C.3    69  LEU69       0.0019
     51  CD1        7.5220   33.2210   12.2910 C.3    69  LEU69       0.0001
     52  CD2        7.3840   30.7790   12.0630 C.3    69  LEU69       0.0001
     53  N          3.6610   26.2830   15.0060 N.3    85  LEU85      -0.1231
     54  CA         4.4620   27.5020   14.8960 C.3    85  LEU85       0.1693
     55  C          3.6050   28.7610   14.8600 C.2    85  LEU85       0.2592
     56  O          2.4060   28.6770   14.5870 O.2    85  LEU85      -0.2718
     57  CB         5.3330   27.4350   13.6320 C.3    85  LEU85       0.0284
     58  CG         6.4560   26.4100   13.6710 C.3    85  LEU85       0.0019
     59  CD1        6.5550   25.6570   12.3630 C.3    85  LEU85       0.0001
     60  CD2        7.7770   27.0490   14.0600 C.3    85  LEU85       0.0001
     61  N          4.2150   29.9310   15.1200 N.am   86  GLU86      -0.1966
     62  CA         3.4820   31.1880   15.0560 C.3    86  GLU86       0.1733
     63  C          3.2750   31.6220   13.6030 C.2    86  GLU86       0.2616
     64  O          4.0990   31.3190   12.7350 O.2    86  GLU86      -0.2715
     65  CB         4.1180   32.2810   15.9400 C.3    86  GLU86       0.0429
     66  CG         5.1210   33.1810   15.2520 C.3    86  GLU86       0.1163
     67  CD         5.4790   34.4220   16.0350 C.2    86  GLU86       0.3649
     68  OE1        6.2880   34.3130   16.9840 O.co2  86  GLU86      -0.2457
     69  OE2        4.9620   35.5090   15.6880 O.co2  86  GLU86      -0.2457
     70  N          2.1480   32.2890   13.3430 N.am   87  TYR87      -0.1960
     71  CA         1.7840   32.7430   12.0080 C.3    87  TYR87       0.1771
     72  C          2.2760   34.1600   11.7600 C.2    87  TYR87       0.2619
     73  O          2.0060   35.0690   12.5510 O.2    87  TYR87      -0.2715
     74  CB         0.2680   32.5770   11.7700 C.3    87  TYR87       0.0574
     75  CG        -0.3180   33.3990   10.6410 C.ar   87  TYR87      -0.0198
     76  CD1       -0.0590   33.0820    9.3100 C.ar   87  TYR87      -0.0009
     77  CD2       -1.1760   34.4630   10.9040 C.ar   87  TYR87      -0.0009
     78  CE1       -0.6050   33.8310    8.2680 C.ar   87  TYR87       0.0417
     79  CE2       -1.7420   35.2070    9.8710 C.ar   87  TYR87       0.0417
     80  CZ        -1.4500   34.8920    8.5550 C.ar   87  TYR87       0.1957
     81  OH        -1.9960   35.6430    7.5400 O.3    87  TYR87      -0.2866
     82  N          3.0460   34.3160   10.6760 N.am   88  ALA88      -0.1964
     83  CA         3.5970   35.5850   10.2420 C.3    88  ALA88       0.1713
     84  C          2.5860   36.1700    9.2570 C.2    88  ALA88       0.2458
     85  O          2.4530   35.6440    8.1470 O.2    88  ALA88      -0.2730
     86  CB         4.9440   35.3690    9.5830 C.3    88  ALA88       0.0333
     87  N          1.8090   37.2030    9.6950 N.am   89  PRO89      -0.2716
     88  CA         0.7470   37.7900    8.8830 C.3    89  PRO89       0.1536
     89  C          1.1860   38.4340    7.5920 C.2    89  PRO89       0.2598
     90  O          0.4010   38.4320    6.6540 O.2    89  PRO89      -0.2715
     91  CB         0.1050   38.8250    9.8120 C.3    89  PRO89       0.0310
     92  CG         0.6450   38.5650   11.1480 C.3    89  PRO89       0.0237
     93  CD         1.9890   37.9800   10.9360 C.3    89  PRO89       0.0939
     94  N          2.4000   39.0100    7.5320 N.am   90  LEU90      -0.1964
     95  CA         2.8360   39.7090    6.3180 C.3    90  LEU90       0.1728
     96  C          3.6260   38.8730    5.3250 C.2    90  LEU90       0.2617
     97  O          4.0810   39.3860    4.2970 O.2    90  LEU90      -0.2715
     98  CB         3.4750   41.0830    6.6080 C.3    90  LEU90       0.0311
     99  CG         2.6170   42.0910    7.3780 C.3    90  LEU90       0.0022
    100  CD1        3.2840   43.4290    7.4170 C.3    90  LEU90       0.0001
    101  CD2        1.2590   42.2620    6.7560 C.3    90  LEU90       0.0001
    102  N          3.7370   37.5700    5.6080 N.am   91  GLY91      -0.1940
    103  CA         4.3830   36.6110    4.7200 C.3    91  GLY91       0.2014
    104  C          5.8920   36.6280    4.7550 C.2    91  GLY91       0.2639
    105  O          6.4940   37.1040    5.7150 O.2    91  GLY91      -0.2714
    106  N          6.4970   36.0710    3.7000 N.am   92  THR92      -0.1950
    107  CA         7.9450   35.9200    3.5570 C.3    92  THR92       0.1897
    108  C          8.6160   37.1700    2.9900 C.2    92  THR92       0.2313
    109  O          7.9750   37.9740    2.2990 O.2    92  THR92      -0.2863
    110  CB         8.2680   34.6990    2.6700 C.3    92  THR92       0.1794
    111  OG1        7.7970   34.9490    1.3450 O.3    92  THR92      -0.2208
    112  CG2        7.6640   33.4030    3.1960 C.3    92  THR92       0.0378
    113  N         13.7910   32.8440    2.1650 N.3   135  GLU135     -0.1245
    114  CA        12.7990   31.7750    2.2400 C.3   135  GLU135      0.1567
    115  C         12.5130   31.3840    3.7050 C.2   135  GLU135      0.2260
    116  O         11.4650   30.7890    3.9810 O.2   135  GLU135     -0.2867
    117  CB        13.2810   30.5400    1.4580 C.3   135  GLU135      0.0388
    118  CG        13.1420   30.6640   -0.0500 C.3   135  GLU135      0.1160
    119  CD        14.4430   30.7860   -0.8220 C.2   135  GLU135      0.3649
    120  OE1       15.2050   31.7500   -0.5710 O.co2 135  GLU135     -0.2457
    121  OE2       14.6800   29.9340   -1.7110 O.co2 135  GLU135     -0.2457
    122  N         10.5820   35.7450    7.7900 N.3   138  LEU138     -0.1245
    123  CA         9.1690   36.1040    7.7230 C.3   138  LEU138      0.1561
    124  C          8.8740   37.4890    8.2710 C.2   138  LEU138      0.2260
    125  O          9.7900   38.1610    8.7380 O.2   138  LEU138     -0.2867
    126  CB         8.3260   35.0340    8.4080 C.3   138  LEU138      0.0270
    127  CG         8.1680   33.7440    7.6390 C.3   138  LEU138      0.0019
    128  CD1        8.1170   32.6100    8.5760 C.3   138  LEU138      0.0001
    129  CD2        6.9260   33.7690    6.7730 C.3   138  LEU138      0.0001
    130  N         12.6530   31.7300   10.8260 N.3   148  ALA148     -0.1231
    131  CA        11.9360   30.4520   10.8600 C.3   148  ALA148      0.1694
    132  C         12.7770   29.2990   10.2930 C.2   148  ALA148      0.2592
    133  O         13.9230   29.5130    9.8980 O.2   148  ALA148     -0.2718
    134  CB        10.6430   30.5800   10.0740 C.3   148  ALA148      0.0304
    135  N         12.1860   28.0790   10.2460 N.am  149  ASP149     -0.1974
    136  CA        12.7710   26.8400    9.7070 C.3   149  ASP149      0.1709
    137  C         14.1630   26.5280   10.2710 C.2   149  ASP149      0.2293
    138  O         15.1680   26.5730    9.5530 O.2   149  ASP149     -0.2864
    139  CB        12.7540   26.8280    8.1570 C.3   149  ASP149      0.1436
    140  CG        11.4640   27.3020    7.5130 C.2   149  ASP149      0.3671
    141  OD1       11.5250   28.2320    6.6840 O.co2 149  ASP149     -0.2456
    142  OD2       10.3980   26.7370    7.8290 O.co2 149  ASP149     -0.2456
@<TRIPOS>BOND
     1   121   119   ar
     2   119   120   ar
     3   119   118    1
     4   118   117    1
     5    10     9    1
     6   111   110    1
     7   117   114    1
     8     7     6    1
     9     7     8    1
    10    22    21    1
    11    22    23    2
    12     6     5    1
    13    21    20    1
    14    15    14    2
    15   113   114    1
    16   114   115    1
    17   109   108    2
    18     9     8    2
    19     9    11    1
    20    14    20   am
    21    14    13    1
    22   110   112    1
    23   110   107    1
    24   108   107    1
    25     5     2    1
    26    12    13    1
    27     2     3    1
    28     2     1    1
    29    13    16    1
    30     3     4    2
    31   107   106    1
    32   106   104   am
    33   115   116    2
    34    97    96    2
    35    27    26    2
    36   103   104    1
    37   103   102    1
    38   104   105    2
    39    24    25    1
    40    16    17    1
    41    96   102   am
    42    96    95    1
    43    26    25    1
    44    19    17    1
    45    17    18    1
    46    25    28    1
    47    30    28    1
    48    28    29    1
    49    95    98    1
    50    95    94    1
    51    98    99    1
    52    90    89    2
    53   141   140   ar
    54   101    99    1
    55   129   127    1
    56    99   100    1
    57   140   142   ar
    58   140   139    1
    59    94    89   am
    60    81    80    1
    61    89    88    1
    62   127   126    1
    63   127   128    1
    64   123   122    1
    65   123   124    1
    66   123   126    1
    67    85    84    2
    68   139   136    1
    69    43    44    1
    70    43    42    1
    71    78    80   ar
    72    78    76   ar
    73   124   125    2
    74    80    79   ar
    75    41    42    1
    76    41    40    1
    77    88    87    1
    78    88    91    1
    79    84    87   am
    80    84    83    1
    81    76    75   ar
    82    37    38    1
    83    37    40    1
    84    37    36    1
    85    38    39    2
    86   138   137    2
    87    86    83    1
    88    87    93    1
    89   136   135    1
    90   136   137    1
    91    91    92    1
    92    79    77   ar
    93   133   132    2
    94   134   131    1
    95    83    82    1
    96   135   132   am
    97   132   131    1
    98    75    77   ar
    99    75    74    1
   100    82    72   am
   101    35    32    1
   102   130   131    1
   103    93    92    1
   104    32    33    1
   105    32    31    1
   106    33    34    2
   107    72    71    1
   108    72    73    2
   109    74    71    1
   110    71    70    1
   111    52    50    1
   112    51    50    1
   113    59    58    1
   114    64    63    2
   115    50    49    1
   116    70    63   am
   117    63    62    1
   118    49    46    1
   119    57    58    1
   120    57    54    1
   121    58    60    1
   122    56    55    2
   123    55    54    1
   124    55    61   am
   125    54    53    1
   126    46    45    1
   127    46    47    1
   128    62    61    1
   129    62    65    1
   130    66    65    1
   131    66    67    1
   132    69    67   ar
   133    67    68   ar
   134    47    48    2
