@<TRIPOS>MOLECULE
tmp/3nrnA00.pdb
 159 152 0 0 0
SMALL
GASTEIGER

@<TRIPOS>ATOM
      1  N          3.0090   34.2020   10.2770 N.3     5  VAL5       -0.1231
      2  CA         2.5590   34.3260   11.6530 C.3     5  VAL5        0.1692
      3  C          3.3370   33.3730   12.5390 C.2     5  VAL5        0.2593
      4  O          3.1110   32.1650   12.5160 O.2     5  VAL5       -0.2718
      5  CB         1.0400   34.0290   11.7970 C.3     5  VAL5        0.0266
      6  CG1        0.6200   34.1220   13.2570 C.3     5  VAL5        0.0020
      7  CG2        0.2430   35.0150   10.9720 C.3     5  VAL5        0.0020
      8  N          4.2540   33.9290   13.3240 N.am    6  GLY6       -0.1942
      9  CA         5.0600   33.1140   14.2170 C.3     6  GLY6        0.2014
     10  C          6.4480   32.9290   13.6450 C.2     6  GLY6        0.2639
     11  O          6.5960   32.5340   12.4840 O.2     6  GLY6       -0.2714
     12  N          7.4670   33.2180   14.4460 N.am    7  ALA7       -0.1963
     13  CA         8.8420   33.0830   13.9780 C.3     7  ALA7        0.1728
     14  C          9.5300   31.8120   14.4740 C.2     7  ALA7        0.2617
     15  O         10.6050   31.8580   15.0830 O.2     7  ALA7       -0.2715
     16  CB         9.6490   34.2980   14.3770 C.3     7  ALA7        0.0334
     17  N          8.8980   30.6760   14.2190 N.am    8  GLY8       -0.1940
     18  CA         9.4930   29.4140   14.6080 C.3     8  GLY8        0.2014
     19  C         10.2910   28.9180   13.4140 C.2     8  GLY8        0.2638
     20  O         10.3870   29.6130   12.3950 O.2     8  GLY8       -0.2714
     21  N         10.8620   27.7210   13.5270 N.am    9  LEU9       -0.1977
     22  CA        11.6460   27.1610   12.4340 C.3     9  LEU9        0.1596
     23  C         10.8540   27.1180   11.1250 C.2     9  LEU9        0.2287
     24  O         11.3210   27.6110   10.0940 O.2     9  LEU9       -0.2864
     25  CB        12.1300   25.7560   12.7970 C.3     9  LEU9        0.0297
     26  CG        12.9850   25.1090   11.7020 C.3     9  LEU9        0.0022
     27  CD1       14.2570   25.9390   11.4850 C.3     9  LEU9        0.0001
     28  CD2       13.3280   23.6720   12.1000 C.3     9  LEU9        0.0001
     29  N          5.6870   38.0930   11.7070 N.3    28  LEU28      -0.1231
     30  CA         5.1140   38.6750   12.9140 C.3    28  LEU28       0.1693
     31  C          5.3380   37.6960   14.0620 C.2    28  LEU28       0.2592
     32  O          4.8570   36.5670   14.0350 O.2    28  LEU28      -0.2718
     33  CB         3.6190   38.9440   12.7060 C.3    28  LEU28       0.0284
     34  CG         3.2960   39.9150   11.5600 C.3    28  LEU28       0.0019
     35  CD1        1.7910   40.1040   11.4360 C.3    28  LEU28       0.0001
     36  CD2        3.9730   41.2690   11.8330 C.3    28  LEU28       0.0001
     37  N          6.0830   38.1390   15.0650 N.am   29  GLU29      -0.1966
     38  CA         6.4090   37.3140   16.2150 C.3    29  GLU29       0.1733
     39  C          5.8280   37.9090   17.4910 C.2    29  GLU29       0.2616
     40  O          6.0500   39.0810   17.8010 O.2    29  GLU29      -0.2715
     41  CB         7.9350   37.1880   16.3260 C.3    29  GLU29       0.0429
     42  CG         8.4540   36.5520   17.6050 C.3    29  GLU29       0.1163
     43  CD         7.8090   35.2140   17.9130 C.2    29  GLU29       0.3649
     44  OE1        7.5810   34.4100   16.9840 O.co2  29  GLU29      -0.2457
     45  OE2        7.5400   34.9590   19.1030 O.co2  29  GLU29      -0.2457
     46  N          5.0920   37.0870   18.2280 N.am   30  LYS30      -0.1963
     47  CA         4.4550   37.5090   19.4660 C.3    30  LYS30       0.1728
     48  C          5.4310   37.8580   20.5860 C.2    30  LYS30       0.2616
     49  O          5.2710   38.8800   21.2470 O.2    30  LYS30      -0.2715
     50  CB         3.5030   36.4140   19.9360 C.3    30  LYS30       0.0311
     51  CG         2.8240   36.6590   21.2560 C.3    30  LYS30       0.0038
     52  CD         2.0200   35.4180   21.6450 C.3    30  LYS30       0.0206
     53  CE         1.3800   35.5630   23.0100 C.3    30  LYS30       0.1093
     54  NZ         0.5520   34.3710   23.3500 N.3    30  LYS30      -0.1314
     55  N          6.4300   37.0080   20.8070 N.am   31  SER31      -0.1950
     56  CA         7.4070   37.2520   21.8600 C.3    31  SER31       0.1924
     57  C          8.4430   38.2920   21.4240 C.2    31  SER31       0.2314
     58  O          8.3490   38.8660   20.3330 O.2    31  SER31      -0.2863
     59  CB         8.1090   35.9470   22.2510 C.3    31  SER31       0.2116
     60  OG         9.0990   35.6000   21.3040 O.3    31  SER31      -0.2180
     61  N         12.7060   32.2740   16.8700 N.3    34  GLY34      -0.1210
     62  CA        13.2820   30.9500   17.0370 C.3    34  GLY34       0.1956
     63  C         12.3640   29.9010   17.6300 C.2    34  GLY34       0.2612
     64  O         12.5720   28.7010   17.4270 O.2    34  GLY34      -0.2717
     65  N         11.3590   30.3530   18.3730 N.am   35  GLY35      -0.1942
     66  CA        10.4150   29.4410   18.9890 C.3    35  GLY35       0.2014
     67  C         11.0680   28.3110   19.7620 C.2    35  GLY35       0.2639
     68  O         11.8870   28.5370   20.6520 O.2    35  GLY35      -0.2714
     69  N         10.7170   27.0810   19.4090 N.am   36  ARG36      -0.1963
     70  CA        11.2640   25.9190   20.0860 C.3    36  ARG36       0.1729
     71  C         12.4910   25.3330   19.4020 C.2    36  ARG36       0.2616
     72  O         12.8290   24.1660   19.6040 O.2    36  ARG36      -0.2715
     73  CB        10.1790   24.8500   20.2410 C.3    36  ARG36       0.0348
     74  CG         8.9620   25.3430   21.0270 C.3    36  ARG36       0.0492
     75  CD         8.1700   24.1860   21.6050 C.3    36  ARG36       0.2205
     76  NE         7.8150   23.2080   20.5840 N.pl3  36  ARG36      -0.0865
     77  CZ         6.9360   23.4250   19.6150 C.cat  36  ARG36       0.5346
     78  NH1        6.3150   24.5860   19.5400 N.pl3  36  ARG36       0.1354
     79  NH2        6.6880   22.4850   18.7140 N.pl3  36  ARG36       0.1354
     80  N         13.1640   26.1490   18.6020 N.am   37  PHE37      -0.1974
     81  CA        14.3620   25.7020   17.9120 C.3    37  PHE37       0.1639
     82  C         15.4680   26.7530   18.0140 C.2    37  PHE37       0.2290
     83  O         16.0040   27.1960   17.0040 O.2    37  PHE37      -0.2864
     84  CB        14.0570   25.4210   16.4390 C.3    37  PHE37       0.0560
     85  CG        15.1360   24.6540   15.7320 C.ar   37  PHE37      -0.0200
     86  CD1       15.3150   23.2960   15.9800 C.ar   37  PHE37      -0.0042
     87  CD2       15.9730   25.2840   14.8120 C.ar   37  PHE37      -0.0042
     88  CE1       16.3060   22.5750   15.3230 C.ar   37  PHE37      -0.0003
     89  CE2       16.9710   24.5720   14.1520 C.ar   37  PHE37      -0.0003
     90  CZ        17.1350   23.2140   14.4080 C.ar   37  PHE37      -0.0000
     91  N          4.6360   41.3610   18.2240 N.3   197  LYS197     -0.1231
     92  CA         3.4720   41.5690   17.3700 C.3   197  LYS197      0.1693
     93  C          2.6270   40.3120   17.4880 C.2   197  LYS197      0.2592
     94  O          2.9230   39.2920   16.8650 O.2   197  LYS197     -0.2718
     95  CB         3.8870   41.7800   15.9120 C.3   197  LYS197      0.0285
     96  CG         4.6570   43.0570   15.6680 C.3   197  LYS197      0.0035
     97  CD         3.8180   44.2750   16.0100 C.3   197  LYS197      0.0206
     98  CE         4.6750   45.5240   16.0350 C.3   197  LYS197      0.1093
     99  NZ         3.9360   46.6830   16.6030 N.3   197  LYS197     -0.1314
    100  N          1.5840   40.3840   18.3060 N.am  198  GLU198     -0.1966
    101  CA         0.7120   39.2420   18.5120 C.3   198  GLU198      0.1733
    102  C         -0.4550   39.2970   17.5490 C.2   198  GLU198      0.2616
    103  O         -1.2750   40.2100   17.6180 O.2   198  GLU198     -0.2715
    104  CB         0.1730   39.2380   19.9380 C.3   198  GLU198      0.0429
    105  CG        -0.6770   38.0270   20.2570 C.3   198  GLU198      0.1163
    106  CD        -1.4170   38.1710   21.5650 C.2   198  GLU198      0.3649
    107  OE1       -0.8700   38.8190   22.4800 O.co2 198  GLU198     -0.2457
    108  OE2       -2.5370   37.6290   21.6830 O.co2 198  GLU198     -0.2457
    109  N         -0.5330   38.3260   16.6490 N.am  199  VAL199     -0.1977
    110  CA        -1.6370   38.2960   15.7030 C.3   199  VAL199      0.1596
    111  C         -2.9040   37.8430   16.4230 C.2   199  VAL199      0.2287
    112  O         -2.8810   36.8800   17.1890 O.2   199  VAL199     -0.2864
    113  CB        -1.3420   37.3340   14.5300 C.3   199  VAL199      0.0276
    114  CG1       -2.5450   37.2770   13.5810 C.3   199  VAL199      0.0022
    115  CG2       -0.1130   37.8020   13.7870 C.3   199  VAL199      0.0022
    116  N          2.6980   29.5510   11.4490 N.3   225  ASN225     -0.1225
    117  CA         3.6380   28.6400   12.0930 C.3   225  ASN225      0.1785
    118  C          3.1940   28.4700   13.5450 C.2   225  ASN225      0.2597
    119  O          4.0020   28.1660   14.4220 O.2   225  ASN225     -0.2718
    120  CB         5.0500   29.2370   12.0170 C.3   225  ASN225      0.1169
    121  CG         6.1270   28.3010   12.5440 C.2   225  ASN225      0.2627
    122  OD1        6.0310   27.0700   12.4450 O.2   225  ASN225     -0.2716
    123  ND2        7.1760   28.8870   13.0780 N.am  225  ASN225     -0.0877
    124  N          1.8930   28.6430   13.7790 N.am  226  VAL226     -0.1980
    125  CA         1.3230   28.5610   15.1240 C.3   226  VAL226      0.1595
    126  C          0.4780   27.3060   15.4600 C.2   226  VAL226      0.2287
    127  O         -0.1420   27.2310   16.5210 O.2   226  VAL226     -0.2864
    128  CB         0.5040   29.8630   15.4040 C.3   226  VAL226      0.0276
    129  CG1       -0.1050   29.8370   16.7830 C.3   226  VAL226      0.0022
    130  CG2        1.4280   31.0750   15.2880 C.3   226  VAL226      0.0022
    131  N         -4.6590   26.7960   16.8570 N.3   230  GLU230     -0.1245
    132  CA        -4.6000   28.2480   17.0100 C.3   230  GLU230      0.1567
    133  C         -4.9310   28.9610   15.6950 C.2   230  GLU230      0.2260
    134  O         -5.6070   29.9870   15.6870 O.2   230  GLU230     -0.2867
    135  CB        -3.2100   28.6670   17.4920 C.3   230  GLU230      0.0388
    136  CG        -3.1010   30.1340   17.8780 C.3   230  GLU230      0.1160
    137  CD        -4.0800   30.5320   18.9720 C.2   230  GLU230      0.3649
    138  OE1       -4.2520   29.7540   19.9360 O.co2 230  GLU230     -0.2457
    139  OE2       -4.6680   31.6290   18.8690 O.co2 230  GLU230     -0.2457
    140  N         -7.6350   31.8570   14.8770 N.3   234  LEU234     -0.1245
    141  CA        -7.3130   33.1730   14.3270 C.3   234  LEU234      0.1561
    142  C         -8.1300   33.4860   13.0910 C.2   234  LEU234      0.2260
    143  O         -8.4730   34.6390   12.8220 O.2   234  LEU234     -0.2867
    144  CB        -5.8210   33.2620   13.9840 C.3   234  LEU234      0.0270
    145  CG        -4.8560   33.2640   15.1770 C.3   234  LEU234      0.0019
    146  CD1       -3.4210   33.2810   14.6760 C.3   234  LEU234      0.0001
    147  CD2       -5.1210   34.4850   16.0620 C.3   234  LEU234      0.0001
    148  N          5.3130   23.9290   10.3280 N.3   349  GLY349     -0.1210
    149  CA         5.8120   23.7310   11.6770 C.3   349  GLY349      0.1956
    150  C          5.3800   22.3550   12.1730 C.2   349  GLY349      0.2611
    151  O          4.9760   21.5060   11.3750 O.2   349  GLY349     -0.2717
    152  N          5.4680   22.1240   13.4790 N.am  350  ASP350     -0.1973
    153  CA         5.0800   20.8390   14.0670 C.3   350  ASP350      0.1709
    154  C          3.6360   20.4510   13.7670 C.2   350  ASP350      0.2293
    155  O          3.2450   19.3020   13.9560 O.2   350  ASP350     -0.2864
    156  CB         5.2710   20.8610   15.5870 C.3   350  ASP350      0.1436
    157  CG         6.4860   20.0770   16.0310 C.2   350  ASP350      0.3671
    158  OD1        6.6010   18.8970   15.6420 O.co2 350  ASP350     -0.2456
    159  OD2        7.3220   20.6360   16.7720 O.co2 350  ASP350     -0.2456
@<TRIPOS>BOND
     1    24    23    2
     2     1     2    1
     3   148   149    1
     4     7     5    1
     5    23    22    1
     6   151   150    2
     7    35    34    1
     8   116   117    1
     9    27    26    1
    10    34    36    1
    11    34    33    1
    12     2     5    1
    13     2     3    1
    14   149   150    1
    15    26    28    1
    16    26    25    1
    17    29    30    1
    18     5     6    1
    19   120   117    1
    20   120   121    1
    21   117   118    1
    22   150   152   am
    23    20    19    2
    24    22    25    1
    25    22    21    1
    26   122   121    2
    27    11    10    2
    28     4     3    2
    29     3     8   am
    30   121   123   am
    31    33    30    1
    32   143   142    2
    33    30    31    1
    34   142   141    1
    35     8     9    1
    36    19    21   am
    37    19    18    1
    38   152   153    1
    39   118   124   am
    40   118   119    2
    41   114   113    1
    42    10     9    1
    43    10    12   am
    44   154   155    2
    45   154   153    1
    46   124   125    1
    47   115   113    1
    48    13    16    1
    49    13    12    1
    50    13    14    1
    51   144   141    1
    52   144   145    1
    53    32    31    2
    54    31    37   am
    55   153   156    1
    56    89    90   ar
    57    89    87   ar
    58    17    14   am
    59    17    18    1
    60   141   140    1
    61    90    88   ar
    62    14    15    2
    63   113   110    1
    64   146   145    1
    65    87    85   ar
    66    37    38    1
    67   125   128    1
    68   125   126    1
    69   145   147    1
    70   130   128    1
    71    88    86   ar
    72   128   129    1
    73   126   127    2
    74   156   157    1
    75   158   157   ar
    76    96    95    1
    77    96    97    1
    78   134   133    2
    79   133   132    1
    80   110   111    1
    81   110   109    1
    82    85    86   ar
    83    85    84    1
    84    95    92    1
    85    97    98    1
    86   157   159   ar
    87    98    99    1
    88    38    41    1
    89    38    39    1
    90    41    42    1
    91   111   112    2
    92    84    81    1
    93   109   102   am
    94   131   132    1
    95    94    93    2
    96    61    62    1
    97    44    43   ar
    98    83    82    2
    99   132   135    1
   100    62    63    1
   101    92    93    1
   102    92    91    1
   103    64    63    2
   104    93   100   am
   105    39    40    2
   106    39    46   am
   107   135   136    1
   108   102   103    2
   109   102   101    1
   110    42    43    1
   111    63    65   am
   112   136   137    1
   113    81    82    1
   114    81    80    1
   115    43    45   ar
   116    46    47    1
   117   100   101    1
   118    65    66    1
   119   101   104    1
   120    80    71   am
   121    79    77    1
   122   139   137   ar
   123   137   138   ar
   124    66    67    1
   125    71    72    2
   126    71    70    1
   127    69    67   am
   128    69    70    1
   129    47    50    1
   130    47    48    1
   131    78    77    1
   132    77    76    2
   133    67    68    2
   134    50    51    1
   135   104   105    1
   136    70    73    1
   137    73    74    1
   138   105   106    1
   139    58    57    2
   140    76    75    1
   141    48    55   am
   142    48    49    2
   143    55    56    1
   144    74    75    1
   145    51    52    1
   146    60    59    1
   147    57    56    1
   148   106   108   ar
   149   106   107   ar
   150    52    53    1
   151    56    59    1
   152    53    54    1
