@<TRIPOS>MOLECULE
tmp/3nrrA01.pdb
 207 201 0 0 0
SMALL
GASTEIGER

@<TRIPOS>ATOM
      1  N         25.1800  -37.5370  -52.0490 N.3    12  PHE12      -0.1227
      2  CA        24.3780  -36.7270  -51.1320 C.3    12  PHE12       0.1736
      3  C         23.8680  -37.6150  -50.0100 C.2    12  PHE12       0.2595
      4  O         23.4010  -38.7310  -50.2530 O.2    12  PHE12      -0.2718
      5  CB        23.1750  -36.1150  -51.8090 C.3    12  PHE12       0.0547
      6  CG        23.4750  -34.8470  -52.5510 C.ar   12  PHE12      -0.0202
      7  CD1       24.1930  -34.8740  -53.7250 C.ar   12  PHE12      -0.0042
      8  CD2       23.0350  -33.6140  -52.0650 C.ar   12  PHE12      -0.0042
      9  CE1       24.4760  -33.7250  -54.3860 C.ar   12  PHE12      -0.0003
     10  CE2       23.2910  -32.4690  -52.7390 C.ar   12  PHE12      -0.0003
     11  CZ        23.9960  -32.5090  -53.9130 C.ar   12  PHE12      -0.0000
     12  N         23.8820  -37.0880  -48.7950 N.am   13  VAL13      -0.1966
     13  CA        23.3820  -37.7860  -47.6110 C.3    13  VAL13       0.1727
     14  C         23.1470  -36.7800  -46.4620 C.2    13  VAL13       0.2616
     15  O         23.7760  -35.6890  -46.4380 O.2    13  VAL13      -0.2715
     16  CB        24.3890  -38.8700  -47.1590 C.3    13  VAL13       0.0290
     17  CG1       25.6560  -38.2290  -46.6710 C.3    13  VAL13       0.0023
     18  CG2       23.7990  -39.7790  -46.0670 C.3    13  VAL13       0.0023
     19  N         22.2620  -37.1590  -45.5300 N.am   14  ALA14      -0.1977
     20  CA        21.9880  -36.3790  -44.2820 C.3    14  ALA14       0.1597
     21  C         22.2540  -37.3260  -43.1460 C.2    14  ALA14       0.2287
     22  O         21.7420  -38.4590  -43.1640 O.2    14  ALA14      -0.2864
     23  CB        20.5040  -35.9110  -44.2350 C.3    14  ALA14       0.0319
     24  N         13.3350  -42.0840  -42.9510 N.3    27  ILE27      -0.1245
     25  CA        14.2130  -41.0930  -42.3490 C.3    27  ILE27       0.1561
     26  C         13.9580  -41.0430  -40.8330 C.2    27  ILE27       0.2260
     27  O         12.8080  -41.1050  -40.3920 O.2    27  ILE27      -0.2867
     28  CB        14.0440  -39.7220  -43.0380 C.3    27  ILE27       0.0252
     29  CG1       14.4230  -39.8760  -44.5250 C.3    27  ILE27       0.0019
     30  CG2       14.9690  -38.6810  -42.3860 C.3    27  ILE27       0.0019
     31  CD1       13.9660  -38.7820  -45.4150 C.3    27  ILE27       0.0001
     32  N         14.4510  -38.7910  -38.4810 N.3    29  TRP29      -0.1241
     33  CA        14.0910  -37.5180  -37.8560 C.3    29  TRP29       0.1605
     34  C         12.8690  -36.9530  -38.5290 C.2    29  TRP29       0.2264
     35  O         12.5020  -37.3860  -39.6200 O.2    29  TRP29      -0.2867
     36  CB        15.2200  -36.5030  -37.9670 C.3    29  TRP29       0.0550
     37  CG        15.9360  -36.4960  -39.2640 C.ar   29  TRP29       0.0003
     38  CD1       15.6150  -35.7980  -40.4070 C.ar   29  TRP29       0.0946
     39  CD2       17.1480  -37.2140  -39.5600 C.ar   29  TRP29       0.0152
     40  NE1       16.5590  -36.0650  -41.4010 N.ar   29  TRP29      -0.2442
     41  CE2       17.5010  -36.9240  -40.9010 C.ar   29  TRP29       0.0810
     42  CE3       17.9570  -38.0910  -38.8260 C.ar   29  TRP29       0.0012
     43  CZ2       18.6280  -37.4960  -41.5180 C.ar   29  TRP29       0.0191
     44  CZ3       19.0840  -38.6510  -39.4500 C.ar   29  TRP29       0.0001
     45  CH2       19.4000  -38.3490  -40.7620 C.ar   29  TRP29       0.0015
     46  N         10.7190  -34.6060  -40.8560 N.3    31  HIS31      -0.1241
     47  CA        10.9640  -34.0380  -42.1810 C.3    31  HIS31       0.1621
     48  C         11.5810  -32.6160  -42.0900 C.2    31  HIS31       0.2264
     49  O         11.0570  -31.7520  -41.3850 O.2    31  HIS31      -0.2867
     50  CB         9.5700  -33.9510  -42.8480 C.3    31  HIS31       0.0745
     51  CG         9.5610  -33.6580  -44.3120 C.ar   31  HIS31       0.0817
     52  ND1        9.7060  -32.3830  -44.8200 N.ar   31  HIS31      -0.2268
     53  CD2        9.2670  -34.4520  -45.3700 C.ar   31  HIS31       0.1154
     54  CE1        9.5660  -32.4170  -46.1360 C.ar   31  HIS31       0.1986
     55  NE2        9.2990  -33.6600  -46.4940 N.ar   31  HIS31      -0.2212
     56  N         16.1430  -29.4060  -46.2670 N.3    35  ASP35      -0.1225
     57  CA        17.1600  -30.3830  -46.6480 C.3    35  ASP35       0.1805
     58  C         16.7670  -31.0820  -47.9470 C.2    35  ASP35       0.2597
     59  O         17.6050  -31.3290  -48.8010 O.2    35  ASP35      -0.2718
     60  CB        17.3790  -31.4380  -45.5470 C.3    35  ASP35       0.1424
     61  CG        18.6140  -32.3130  -45.8140 C.2    35  ASP35       0.3668
     62  OD1       19.6280  -31.7570  -46.3040 O.co2  35  ASP35      -0.2456
     63  OD2       18.5890  -33.5540  -45.5540 O.co2  35  ASP35      -0.2456
     64  N         15.4850  -31.3900  -48.1030 N.am   36  PHE36      -0.1976
     65  CA        15.0290  -31.9660  -49.3580 C.3    36  PHE36       0.1639
     66  C         15.1690  -31.0070  -50.5430 C.2    36  PHE36       0.2290
     67  O         15.4500  -31.4420  -51.6600 O.2    36  PHE36      -0.2864
     68  CB        13.5890  -32.4340  -49.2290 C.3    36  PHE36       0.0560
     69  CG        13.4140  -33.7220  -48.4590 C.ar   36  PHE36      -0.0200
     70  CD1       14.3200  -34.7650  -48.5590 C.ar   36  PHE36      -0.0042
     71  CD2       12.2640  -33.9300  -47.7060 C.ar   36  PHE36      -0.0042
     72  CE1       14.1190  -35.9620  -47.8540 C.ar   36  PHE36      -0.0003
     73  CE2       12.0580  -35.1470  -47.0220 C.ar   36  PHE36      -0.0003
     74  CZ        12.9960  -36.1430  -47.0940 C.ar   36  PHE36      -0.0000
     75  N         17.4820  -28.8530  -50.7590 N.3    38  PHE38      -0.1227
     76  CA        18.8830  -28.8470  -50.9940 C.3    38  PHE38       0.1736
     77  C         19.3300  -30.0650  -51.8410 C.2    38  PHE38       0.2595
     78  O         20.0500  -29.9030  -52.8180 O.2    38  PHE38      -0.2718
     79  CB        19.5730  -28.7590  -49.6360 C.3    38  PHE38       0.0547
     80  CG        21.0300  -28.7210  -49.7190 C.ar   38  PHE38      -0.0202
     81  CD1       21.7320  -29.8720  -49.7490 C.ar   38  PHE38      -0.0042
     82  CD2       21.7100  -27.5020  -49.7600 C.ar   38  PHE38      -0.0042
     83  CE1       23.1270  -29.8510  -49.8220 C.ar   38  PHE38      -0.0003
     84  CE2       23.0800  -27.4890  -49.8470 C.ar   38  PHE38      -0.0003
     85  CZ        23.7750  -28.6750  -49.8890 C.ar   38  PHE38      -0.0000
     86  N         18.8740  -31.2700  -51.4880 N.am   39  LEU39      -0.1966
     87  CA        19.0940  -32.4600  -52.3040 C.3    39  LEU39       0.1728
     88  C         18.6200  -32.2350  -53.7400 C.2    39  LEU39       0.2616
     89  O         19.3350  -32.5030  -54.6980 O.2    39  LEU39      -0.2715
     90  CB        18.3190  -33.6320  -51.7080 C.3    39  LEU39       0.0311
     91  CG        18.3380  -34.9650  -52.4630 C.3    39  LEU39       0.0022
     92  CD1       19.7270  -35.4670  -52.5710 C.3    39  LEU39       0.0001
     93  CD2       17.4610  -36.0510  -51.7900 C.3    39  LEU39       0.0001
     94  N         17.3860  -31.7680  -53.8800 N.am   40  ARG40      -0.1977
     95  CA        16.7900  -31.5830  -55.2000 C.3    40  ARG40       0.1597
     96  C         17.5650  -30.5800  -56.0570 C.2    40  ARG40       0.2287
     97  O         17.8210  -30.8320  -57.2270 O.2    40  ARG40      -0.2864
     98  CB        15.3720  -31.1060  -55.0560 C.3    40  ARG40       0.0334
     99  CG        14.6550  -30.9090  -56.3580 C.3    40  ARG40       0.0492
    100  CD        13.1830  -30.8350  -56.1090 C.3    40  ARG40       0.2205
    101  NE        12.7870  -29.4990  -55.6710 N.pl3  40  ARG40      -0.0865
    102  CZ        12.4020  -29.1450  -54.4380 C.cat  40  ARG40       0.5346
    103  NH1       12.3400  -30.0210  -53.4220 N.pl3  40  ARG40       0.1354
    104  NH2       12.0460  -27.8730  -54.2350 N.pl3  40  ARG40       0.1354
    105  N         20.2010  -45.3710  -56.3950 N.3    63  PHE63      -0.1241
    106  CA        19.9670  -45.8480  -55.0470 C.3    63  PHE63       0.1605
    107  C         19.6670  -47.3210  -54.9810 C.2    63  PHE63       0.2264
    108  O         19.3500  -47.9700  -55.9780 O.2    63  PHE63      -0.2867
    109  CB        18.8790  -45.0610  -54.3310 C.3    63  PHE63       0.0534
    110  CG        17.8060  -44.5280  -55.2430 C.ar   63  PHE63      -0.0203
    111  CD1       16.7380  -45.3170  -55.5970 C.ar   63  PHE63      -0.0042
    112  CD2       17.8830  -43.2360  -55.7330 C.ar   63  PHE63      -0.0042
    113  CE1       15.7470  -44.8320  -56.4450 C.ar   63  PHE63      -0.0003
    114  CE2       16.8950  -42.7340  -56.5740 C.ar   63  PHE63      -0.0003
    115  CZ        15.8290  -43.5300  -56.9240 C.ar   63  PHE63      -0.0000
    116  N         16.0600  -48.0490  -50.3540 N.3    67  THR67      -0.1218
    117  CA        15.8820  -46.5930  -50.3680 C.3    67  THR67       0.1862
    118  C         14.7750  -46.2030  -51.3670 C.2    67  THR67       0.2287
    119  O         13.9490  -45.3130  -51.0820 O.2    67  THR67      -0.2866
    120  CB        17.1950  -45.9010  -50.6840 C.3    67  THR67       0.1770
    121  OG1       18.0820  -46.0630  -49.5640 O.3    67  THR67      -0.2211
    122  CG2       16.9660  -44.4560  -50.9500 C.3    67  THR67       0.0375
    123  N         11.5960  -46.5910  -49.7600 N.3    70  SER70      -0.1202
    124  CA        11.4060  -45.6140  -48.6730 C.3    70  SER70       0.2020
    125  C         10.8870  -44.2630  -49.1440 C.2    70  SER70       0.2619
    126  O         10.5830  -43.4120  -48.3130 O.2    70  SER70      -0.2717
    127  CB        12.7230  -45.3710  -47.9420 C.3    70  SER70       0.2103
    128  OG        13.5590  -44.5350  -48.6990 O.3    70  SER70      -0.2182
    129  N         10.8360  -44.0450  -50.4590 N.am   71  ILE71      -0.1966
    130  CA        10.3650  -42.7820  -51.0210 C.3    71  ILE71       0.1712
    131  C          8.8610  -42.8580  -51.3080 C.2    71  ILE71       0.2458
    132  O          8.3740  -43.8550  -51.8370 O.2    71  ILE71      -0.2730
    133  CB        11.1450  -42.4210  -52.2990 C.3    71  ILE71       0.0289
    134  CG1       12.6500  -42.3600  -52.0140 C.3    71  ILE71       0.0022
    135  CG2       10.7330  -41.0510  -52.8390 C.3    71  ILE71       0.0023
    136  CD1       13.5070  -42.3500  -53.2770 C.3    71  ILE71       0.0001
    137  N          8.1050  -41.8080  -50.9270 N.am   72  PRO72      -0.2727
    138  CA         6.6720  -41.7950  -51.1830 C.3    72  PRO72       0.1402
    139  C          6.3950  -42.0600  -52.6560 C.2    72  PRO72       0.2269
    140  O          7.0780  -41.4860  -53.5000 O.2    72  PRO72      -0.2865
    141  CB         6.2650  -40.3720  -50.7950 C.3    72  PRO72       0.0296
    142  CG         7.2260  -39.9820  -49.7640 C.3    72  PRO72       0.0237
    143  CD         8.5310  -40.6200  -50.1620 C.3    72  PRO72       0.0939
    144  N          6.1040  -39.4450  -55.4600 N.3    75  SER75      -0.1217
    145  CA         7.3140  -38.6980  -55.8180 C.3    75  SER75       0.1889
    146  C          8.2740  -39.4610  -56.7180 C.2    75  SER75       0.2288
    147  O          9.3360  -38.9340  -57.0720 O.2    75  SER75      -0.2866
    148  CB         8.0650  -38.3030  -54.5610 C.3    75  SER75       0.2089
    149  OG         7.2940  -37.4020  -53.8150 O.3    75  SER75      -0.2183
    150  N         12.0190  -39.8230  -59.1790 N.3    78  LEU78      -0.1245
    151  CA        12.3980  -38.4370  -58.8390 C.3    78  LEU78       0.1561
    152  C         12.4930  -37.5890  -60.1180 C.2    78  LEU78       0.2260
    153  O         13.1380  -38.0070  -61.0870 O.2    78  LEU78      -0.2867
    154  CB        13.7170  -38.3990  -58.0690 C.3    78  LEU78       0.0270
    155  CG        13.7040  -39.0740  -56.6880 C.3    78  LEU78       0.0019
    156  CD1       15.0390  -38.8890  -56.0450 C.3    78  LEU78       0.0001
    157  CD2       12.5920  -38.5510  -55.7680 C.3    78  LEU78       0.0001
    158  N         15.4030  -36.2610  -63.3650 N.3    81  ARG81      -0.1245
    159  CA        16.6200  -37.0380  -63.2230 C.3    81  ARG81       0.1563
    160  C         16.3480  -38.4670  -63.6750 C.2    81  ARG81       0.2260
    161  O         15.2200  -38.9560  -63.5630 O.2    81  ARG81      -0.2867
    162  CB        17.0930  -37.0490  -61.7670 C.3    81  ARG81       0.0307
    163  CG        17.7370  -35.7440  -61.2870 C.3    81  ARG81       0.0489
    164  CD        17.4990  -35.5260  -59.8110 C.3    81  ARG81       0.2205
    165  NE        16.0940  -35.2290  -59.5300 N.pl3  81  ARG81      -0.0865
    166  CZ        15.6280  -34.9470  -58.3150 C.cat  81  ARG81       0.5346
    167  NH1       16.4510  -34.9490  -57.2690 N.pl3  81  ARG81       0.1354
    168  NH2       14.3390  -34.6900  -58.1380 N.pl3  81  ARG81       0.1354
    169  N         22.6580  -41.7690  -53.8820 N.3   121  LEU121     -0.1245
    170  CA        21.6740  -41.3990  -52.8830 C.3   121  LEU121      0.1561
    171  C         21.3460  -42.5640  -51.9310 C.2   121  LEU121      0.2260
    172  O         20.2450  -42.6220  -51.4040 O.2   121  LEU121     -0.2867
    173  CB        20.3780  -40.9100  -53.5250 C.3   121  LEU121      0.0270
    174  CG        20.3820  -39.7440  -54.5420 C.3   121  LEU121      0.0019
    175  CD1       18.9330  -39.1460  -54.7130 C.3   121  LEU121      0.0001
    176  CD2       21.4320  -38.7030  -54.2220 C.3   121  LEU121      0.0001
    177  N         26.4900  -46.6890  -50.2280 N.3   127  TYR127     -0.1241
    178  CA        27.4620  -45.7810  -49.7160 C.3   127  TYR127      0.1605
    179  C         28.7480  -46.5270  -49.3450 C.2   127  TYR127      0.2264
    180  O         29.8280  -46.0410  -49.6430 O.2   127  TYR127     -0.2867
    181  CB        26.9380  -45.0200  -48.4810 C.3   127  TYR127      0.0534
    182  CG        25.8220  -44.0100  -48.7140 C.ar  127  TYR127     -0.0201
    183  CD1       25.8820  -43.0680  -49.7500 C.ar  127  TYR127     -0.0009
    184  CD2       24.7590  -43.9350  -47.8420 C.ar  127  TYR127     -0.0009
    185  CE1       24.8980  -42.1460  -49.9310 C.ar  127  TYR127      0.0417
    186  CE2       23.7500  -42.9810  -48.0070 C.ar  127  TYR127      0.0417
    187  CZ        23.8440  -42.0660  -49.0450 C.ar  127  TYR127      0.1957
    188  OH        22.8540  -41.1550  -49.2270 O.3   127  TYR127     -0.2866
    189  N         28.2560  -34.3290  -50.5060 N.3   140  TYR140     -0.1241
    190  CA        27.4060  -33.2550  -50.0040 C.3   140  TYR140      0.1605
    191  C         26.6770  -33.8540  -48.8180 C.2   140  TYR140      0.2264
    192  O         25.9420  -34.8190  -48.9740 O.2   140  TYR140     -0.2867
    193  CB        26.4080  -32.7990  -51.0600 C.3   140  TYR140      0.0534
    194  CG        27.0210  -32.0100  -52.2090 C.ar  140  TYR140     -0.0201
    195  CD1       27.6220  -32.6600  -53.2830 C.ar  140  TYR140     -0.0009
    196  CD2       26.9730  -30.6230  -52.2340 C.ar  140  TYR140     -0.0009
    197  CE1       28.2010  -31.9510  -54.3430 C.ar  140  TYR140      0.0417
    198  CE2       27.5380  -29.9110  -53.2960 C.ar  140  TYR140      0.0417
    199  CZ        28.1340  -30.5810  -54.3510 C.ar  140  TYR140      0.1957
    200  OH        28.7020  -29.8950  -55.4200 O.3   140  TYR140     -0.2866
    201  N         24.5910  -33.2790  -45.0640 N.3   142  THR142     -0.1218
    202  CA        23.8730  -32.4380  -44.1170 C.3   142  THR142      0.1862
    203  C         24.1230  -32.9630  -42.7340 C.2   142  THR142      0.2287
    204  O         23.8560  -34.1820  -42.4420 O.2   142  THR142     -0.2866
    205  CB        22.3830  -32.4660  -44.3830 C.3   142  THR142      0.1770
    206  OG1       22.1590  -32.0880  -45.7420 O.3   142  THR142     -0.2211
    207  CG2       21.6690  -31.5420  -43.4190 C.3   142  THR142      0.0375
@<TRIPOS>BOND
     1   160   161    2
     2   160   159    1
     3   158   159    1
     4   159   162    1
     5   162   163    1
     6   163   164    1
     7   153   152    2
     8   152   151    1
     9   164   165    1
    10   165   166    2
    11   150   151    1
    12   151   154    1
    13   166   168    1
    14   166   167    1
    15   154   155    1
    16    97    96    2
    17   147   146    2
    18   115   114   ar
    19   115   113   ar
    20   146   145    1
    21   155   156    1
    22   155   157    1
    23   114   112   ar
    24   113   111   ar
    25   105   106    1
    26    99   100    1
    27    99    98    1
    28   100   101    1
    29    96    95    1
    30   108   107    2
    31   145   144    1
    32   145   148    1
    33   112   110   ar
    34   101   102    2
    35   111   110   ar
    36   200   199    1
    37   110   109    1
    38    95    98    1
    39    95    94    1
    40   106   107    1
    41   106   109    1
    42   175   174    1
    43    89    88    2
    44   148   149    1
    45   174   176    1
    46   174   173    1
    47   102   104    1
    48   102   103    1
    49     9    11   ar
    50     9     7   ar
    51   199   197   ar
    52   199   198   ar
    53   197   195   ar
    54    11    10   ar
    55   169   170    1
    56    94    88   am
    57    88    87    1
    58     7     6   ar
    59   173   170    1
    60   140   139    2
    61   198   196   ar
    62   195   194   ar
    63   136   134    1
    64   170   171    1
    65   135   133    1
    66    78    77    2
    67    10     8   ar
    68   139   138    1
    69    92    91    1
    70     6     8   ar
    71     6     5    1
    72    91    93    1
    73    91    90    1
    74    87    90    1
    75    87    86    1
    76   133   134    1
    77   133   130    1
    78   196   194   ar
    79   194   193    1
    80     1     2    1
    81   171   172    2
    82    77    86   am
    83    77    76    1
    84   132   131    2
    85     5     2    1
    86    67    66    2
    87   118   119    2
    88   118   117    1
    89   131   130    1
    90   131   137   am
    91   138   137    1
    92   138   141    1
    93     2     3    1
    94   193   190    1
    95   130   129    1
    96    76    75    1
    97    76    79    1
    98   122   120    1
    99   137   143    1
   100   141   142    1
   101   120   117    1
   102   120   121    1
   103    66    65    1
   104   189   190    1
   105   129   125   am
   106   117   116    1
   107     4     3    2
   108   177   178    1
   109   143   142    1
   110     3    12   am
   111   190   191    1
   112   185   183   ar
   113   185   187   ar
   114    85    84   ar
   115    85    83   ar
   116    84    82   ar
   117    83    81   ar
   118    82    80   ar
   119   123   124    1
   120   183   182   ar
   121    81    80   ar
   122    80    79    1
   123   178   179    1
   124   178   181    1
   125   180   179    2
   126    65    68    1
   127    65    64    1
   128    68    69    1
   129   188   187    1
   130   125   124    1
   131   125   126    2
   132   187   186   ar
   133   192   191    2
   134    59    58    2
   135    12    13    1
   136   182   181    1
   137   182   184   ar
   138   128   127    1
   139   124   127    1
   140    70    69   ar
   141    70    72   ar
   142    69    71   ar
   143    64    58   am
   144   186   184   ar
   145    58    57    1
   146    72    74   ar
   147    71    73   ar
   148    13    16    1
   149    13    14    1
   150    16    17    1
   151    16    18    1
   152    74    73   ar
   153    57    56    1
   154    57    60    1
   155    55    54   ar
   156    55    53   ar
   157    14    15    2
   158    14    19   am
   159    62    61   ar
   160    54    52   ar
   161    61    63   ar
   162    61    60    1
   163   206   205    1
   164    19    20    1
   165    31    29    1
   166    53    51   ar
   167   201   202    1
   168    52    51   ar
   169    29    28    1
   170   205   202    1
   171   205   207    1
   172    51    50    1
   173    20    23    1
   174    20    21    1
   175   202   203    1
   176    22    21    2
   177    28    30    1
   178    28    25    1
   179    24    25    1
   180    50    47    1
   181   203   204    2
   182    25    26    1
   183    47    48    1
   184    47    46    1
   185    48    49    2
   186    43    41   ar
   187    43    45   ar
   188    40    41   ar
   189    40    38   ar
   190    41    39   ar
   191    26    27    2
   192    45    44   ar
   193    38    37   ar
   194    35    34    2
   195    39    37   ar
   196    39    42   ar
   197    44    42   ar
   198    37    36    1
   199    34    33    1
   200    32    33    1
   201    36    33    1
