@<TRIPOS>MOLECULE
tmp/3nrrA03.pdb
 206 197 0 0 0
SMALL
GASTEIGER

@<TRIPOS>ATOM
      1  N         47.2800   -2.3580  -19.5510 N.3   240  ARG240     -0.1231
      2  CA        47.0330   -2.2810  -18.1170 C.3   240  ARG240      0.1694
      3  C         47.3800   -3.5470  -17.3550 C.2   240  ARG240      0.2592
      4  O         47.8110   -3.4580  -16.2000 O.2   240  ARG240     -0.2718
      5  CB        45.5100   -1.9600  -17.9050 C.3   240  ARG240      0.0321
      6  CG        45.0720   -1.8910  -16.4550 C.3   240  ARG240      0.0489
      7  CD        43.5510   -1.7890  -16.3180 C.3   240  ARG240      0.2205
      8  NE        42.9200   -2.9500  -16.9150 N.pl3 240  ARG240     -0.0865
      9  CZ        42.7430   -4.1320  -16.3190 C.cat 240  ARG240      0.5346
     10  NH1       43.1690   -4.3590  -15.0640 N.pl3 240  ARG240      0.1354
     11  NH2       42.2140   -5.1060  -16.9880 N.pl3 240  ARG240      0.1354
     12  N         47.1640   -4.7190  -17.9540 N.am  241  THR241     -0.1953
     13  CA        47.2990   -5.9660  -17.1950 C.3   241  THR241      0.1897
     14  C         48.7270   -6.3430  -16.8990 C.2   241  THR241      0.2313
     15  O         48.9800   -7.1770  -15.9920 O.2   241  THR241     -0.2863
     16  CB        46.7080   -7.1940  -17.9260 C.3   241  THR241      0.1794
     17  OG1       47.5040   -7.5120  -19.0850 O.3   241  THR241     -0.2208
     18  CG2       45.2520   -6.9900  -18.3410 C.3   241  THR241      0.0378
     19  N         35.7400  -24.4200  -29.4040 N.3   267  LYS267     -0.1245
     20  CA        36.1330  -24.8840  -28.0760 C.3   267  LYS267      0.1561
     21  C         34.8350  -25.0320  -27.2750 C.2   267  LYS267      0.2260
     22  O         33.8430  -24.4700  -27.6510 O.2   267  LYS267     -0.2867
     23  CB        37.0720  -23.9090  -27.3670 C.3   267  LYS267      0.0271
     24  CG        36.3710  -22.6280  -26.9150 C.3   267  LYS267      0.0035
     25  CD        37.3640  -21.5780  -26.3930 C.3   267  LYS267      0.0206
     26  CE        36.6580  -20.3930  -25.7410 C.3   267  LYS267      0.1093
     27  NZ        37.6580  -19.4450  -25.1470 N.3   267  LYS267     -0.1314
     28  N         32.4410  -23.9710  -24.6210 N.3   269  VAL269     -0.1231
     29  CA        32.3060  -22.6980  -23.9290 C.3   269  VAL269      0.1692
     30  C         31.3880  -22.9050  -22.7260 C.2   269  VAL269      0.2591
     31  O         30.4020  -23.6690  -22.8020 O.2   269  VAL269     -0.2718
     32  CB        31.7350  -21.6070  -24.8330 C.3   269  VAL269      0.0266
     33  CG1       31.4470  -20.3470  -24.0650 C.3   269  VAL269      0.0020
     34  CG2       32.6560  -21.3120  -26.0330 C.3   269  VAL269      0.0020
     35  N         31.7130  -22.2410  -21.6110 N.am  270  ALA270     -0.1980
     36  CA        30.9630  -22.4590  -20.3500 C.3   270  ALA270      0.1597
     37  C         29.6570  -21.6880  -20.2720 C.2   270  ALA270      0.2287
     38  O         29.5480  -20.6900  -19.5480 O.2   270  ALA270     -0.2864
     39  CB        31.8560  -22.1400  -19.1400 C.3   270  ALA270      0.0319
     40  N         27.9000  -20.3320  -16.9020 N.3   273  SER273     -0.1217
     41  CA        28.4370  -19.0840  -16.3980 C.3   273  SER273      0.1889
     42  C         27.9360  -17.8530  -17.1720 C.2   273  SER273      0.2288
     43  O         27.6540  -16.8070  -16.5730 O.2   273  SER273     -0.2866
     44  CB        29.9730  -19.1080  -16.4100 C.3   273  SER273      0.2089
     45  OG        30.4350  -20.0980  -15.5460 O.3   273  SER273     -0.2183
     46  N         25.6940  -14.9340  -15.3520 N.3   277  GLU277     -0.1245
     47  CA        26.1910  -13.5730  -15.4010 C.3   277  GLU277      0.1567
     48  C         25.0920  -12.6370  -15.9340 C.2   277  GLU277      0.2260
     49  O         24.8600  -11.5620  -15.3700 O.2   277  GLU277     -0.2867
     50  CB        27.4380  -13.4550  -16.2620 C.3   277  GLU277      0.0388
     51  CG        27.9670  -12.0100  -16.3740 C.3   277  GLU277      0.1160
     52  CD        29.0200  -11.8400  -17.4770 C.2   277  GLU277      0.3649
     53  OE1       28.8080  -12.3800  -18.5990 O.co2 277  GLU277     -0.2457
     54  OE2       30.0540  -11.1480  -17.2140 O.co2 277  GLU277     -0.2457
     55  N         32.7300  -17.9990  -11.2580 N.3   297  ARG297     -0.1231
     56  CA        33.8880  -17.3390  -10.6680 C.3   297  ARG297      0.1694
     57  C         34.5400  -16.3280  -11.6270 C.2   297  ARG297      0.2592
     58  O         35.6630  -15.8570  -11.3880 O.2   297  ARG297     -0.2718
     59  CB        34.8730  -18.4270  -10.2510 C.3   297  ARG297      0.0321
     60  CG        34.2320  -19.5100   -9.2990 C.3   297  ARG297      0.0489
     61  CD        35.2520  -20.4510   -8.7170 C.3   297  ARG297      0.2205
     62  NE        35.9690  -19.8080   -7.6160 N.pl3 297  ARG297     -0.0865
     63  CZ        36.1700  -20.3110   -6.4090 C.cat 297  ARG297      0.5346
     64  NH1       35.7280  -21.5310   -6.0530 N.pl3 297  ARG297      0.1354
     65  NH2       36.8380  -19.5730   -5.5290 N.pl3 297  ARG297      0.1354
     66  N         33.8390  -15.9690  -12.6940 N.am  298  ILE298     -0.1966
     67  CA        34.4330  -15.1270  -13.7540 C.3   298  ILE298      0.1727
     68  C         34.7890  -13.7090  -13.2890 C.2   298  ILE298      0.2616
     69  O         35.6990  -13.0910  -13.8130 O.2   298  ILE298     -0.2715
     70  CB        33.5370  -15.1130  -15.0290 C.3   298  ILE298      0.0290
     71  CG1       32.1170  -14.6310  -14.7390 C.3   298  ILE298      0.0022
     72  CG2       33.4820  -16.5660  -15.6450 C.3   298  ILE298      0.0023
     73  CD1       31.4740  -14.0500  -15.9710 C.3   298  ILE298      0.0001
     74  N         34.1000  -13.2170  -12.2770 N.am  299  TRP299     -0.1974
     75  CA        34.3380  -11.8750  -11.7520 C.3   299  TRP299      0.1640
     76  C         35.1000  -11.8810  -10.4190 C.2   299  TRP299      0.2290
     77  O         35.3150  -10.8200   -9.7950 O.2   299  TRP299     -0.2864
     78  CB        32.9910  -11.1230  -11.6450 C.3   299  TRP299      0.0576
     79  CG        32.5120  -10.6170  -12.9400 C.ar  299  TRP299      0.0006
     80  CD1       31.3930  -11.0380  -13.6460 C.ar  299  TRP299      0.0946
     81  CD2       33.1110   -9.5940  -13.7250 C.ar  299  TRP299      0.0152
     82  NE1       31.2890  -10.3230  -14.8040 N.ar  299  TRP299     -0.2442
     83  CE2       32.3280   -9.4390  -14.8780 C.ar  299  TRP299      0.0810
     84  CE3       34.2540   -8.7880  -13.5660 C.ar  299  TRP299      0.0012
     85  CZ2       32.6450   -8.5090  -15.8780 C.ar  299  TRP299      0.0191
     86  CZ3       34.5690   -7.8600  -14.5860 C.ar  299  TRP299      0.0001
     87  CH2       33.7620   -7.7500  -15.7170 C.ar  299  TRP299      0.0015
     88  N         38.4610   -9.7470   -9.8850 N.3   302  ASN302     -0.1240
     89  CA        38.2570   -8.2980   -9.9220 C.3   302  ASN302      0.1653
     90  C         37.5260   -7.7520   -8.6830 C.2   302  ASN302      0.2266
     91  O         37.4340   -6.5250   -8.5030 O.2   302  ASN302     -0.2867
     92  CB        37.5740   -7.8830  -11.2040 C.3   302  ASN302      0.1155
     93  CG        38.4750   -8.0460  -12.4040 C.2   302  ASN302      0.2627
     94  OD1       38.3160   -8.9910  -13.1750 O.2   302  ASN302     -0.2716
     95  ND2       39.4870   -7.1700  -12.5280 N.am  302  ASN302     -0.0877
     96  N         36.1530   -2.2860  -12.6080 N.3   382  LEU382     -0.1245
     97  CA        36.6140   -2.2650  -13.9760 C.3   382  LEU382      0.1561
     98  C         35.5330   -1.5680  -14.7990 C.2   382  LEU382      0.2260
     99  O         34.3490   -1.8300  -14.6200 O.2   382  LEU382     -0.2867
    100  CB        36.7210   -3.7030  -14.4430 C.3   382  LEU382      0.0270
    101  CG        37.4510   -4.0160  -15.7180 C.3   382  LEU382      0.0019
    102  CD1       38.9760   -3.8340  -15.4900 C.3   382  LEU382      0.0001
    103  CD2       37.1670   -5.4720  -16.0850 C.3   382  LEU382      0.0001
    104  N         31.7600   -4.2070  -22.5680 N.3   386  HIS386     -0.1241
    105  CA        30.5730   -4.0550  -23.4060 C.3   386  HIS386      0.1621
    106  C         29.7800   -2.8160  -22.8980 C.2   386  HIS386      0.2264
    107  O         29.1040   -2.8780  -21.9660 O.2   386  HIS386     -0.2867
    108  CB        29.7590   -5.3510  -23.5100 C.3   386  HIS386      0.0745
    109  CG        29.4860   -6.0680  -22.2070 C.ar  386  HIS386      0.0817
    110  ND1       28.2570   -6.0680  -21.6030 N.ar  386  HIS386     -0.2268
    111  CD2       30.2690   -6.8510  -21.4290 C.ar  386  HIS386      0.1154
    112  CE1       28.2940   -6.7820  -20.5020 C.ar  386  HIS386      0.1986
    113  NE2       29.5030   -7.2720  -20.3720 N.ar  386  HIS386     -0.2212
    114  N         38.9040   -9.1130  -25.3590 N.3   408  ASP408     -0.1239
    115  CA        39.8430  -10.2040  -25.1340 C.3   408  ASP408      0.1674
    116  C         39.3320  -11.4090  -25.9290 C.2   408  ASP408      0.2266
    117  O         38.3500  -12.1160  -25.5280 O.2   408  ASP408     -0.2867
    118  CB        39.9850  -10.5420  -23.6130 C.3   408  ASP408      0.1410
    119  CG        40.9460  -11.7050  -23.3330 C.2   408  ASP408      0.3668
    120  OD1       41.2520  -12.4850  -24.2390 O.co2 408  ASP408     -0.2456
    121  OD2       41.3560  -11.8820  -22.1470 O.co2 408  ASP408     -0.2456
    122  N         39.1640  -15.0250  -24.2620 N.3   411  LEU411     -0.1231
    123  CA        38.4460  -15.2970  -23.0200 C.3   411  LEU411      0.1693
    124  C         37.0970  -14.6290  -23.0260 C.2   411  LEU411      0.2592
    125  O         36.0800  -15.3110  -23.0530 O.2   411  LEU411     -0.2718
    126  CB        39.3230  -14.8290  -21.8500 C.3   411  LEU411      0.0284
    127  CG        39.0970  -15.3780  -20.4400 C.3   411  LEU411      0.0019
    128  CD1       39.2360  -16.8680  -20.4540 C.3   411  LEU411      0.0001
    129  CD2       40.1180  -14.7800  -19.4880 C.3   411  LEU411      0.0001
    130  N         37.0530  -13.2970  -23.0430 N.am  412  GLY412     -0.1957
    131  CA        35.8020  -12.6010  -22.9010 C.3   412  GLY412      0.1869
    132  C         34.8810  -12.6700  -24.0750 C.2   412  GLY412      0.2309
    133  O         33.6570  -12.7930  -23.8900 O.2   412  GLY412     -0.2863
    134  N         32.0740  -15.2190  -24.5680 N.3   415  PHE415     -0.1227
    135  CA        31.0030  -15.0650  -23.5900 C.3   415  PHE415      0.1736
    136  C         30.1150  -13.9310  -24.0470 C.2   415  PHE415      0.2595
    137  O         28.8570  -14.0050  -23.9890 O.2   415  PHE415     -0.2718
    138  CB        31.5450  -14.7040  -22.1870 C.3   415  PHE415      0.0547
    139  CG        31.8560  -15.8720  -21.3130 C.ar  415  PHE415     -0.0202
    140  CD1       32.5460  -16.9690  -21.8160 C.ar  415  PHE415     -0.0042
    141  CD2       31.4370  -15.8840  -19.9840 C.ar  415  PHE415     -0.0042
    142  CE1       32.8160  -18.0500  -21.0270 C.ar  415  PHE415     -0.0003
    143  CE2       31.6810  -16.9450  -19.1900 C.ar  415  PHE415     -0.0003
    144  CZ        32.3880  -18.0460  -19.6950 C.ar  415  PHE415     -0.0000
    145  N         30.7660  -12.8470  -24.4960 N.am  416  ASN416     -0.1974
    146  CA        30.0310  -11.6120  -24.8320 C.3   416  ASN416      0.1688
    147  C         29.0570  -11.8190  -26.0090 C.2   416  ASN416      0.2292
    148  O         27.9060  -11.3490  -25.9610 O.2   416  ASN416     -0.2864
    149  CB        31.0070  -10.4530  -25.1090 C.3   416  ASN416      0.1181
    150  CG        31.8790  -10.1340  -23.9100 C.2   416  ASN416      0.2629
    151  OD1       33.0830   -9.9190  -24.0690 O.2   416  ASN416     -0.2716
    152  ND2       31.2880  -10.1910  -22.6550 N.am  416  ASN416     -0.0877
    153  N         46.0480  -11.9160  -25.8130 N.3   448  TYR448     -0.1241
    154  CA        47.1720  -11.8660  -24.8680 C.3   448  TYR448      0.1605
    155  C         48.2450  -12.8270  -25.3230 C.2   448  TYR448      0.2264
    156  O         47.9360  -13.8750  -25.9200 O.2   448  TYR448     -0.2867
    157  CB        46.6890  -12.1180  -23.4040 C.3   448  TYR448      0.0534
    158  CG        45.9200  -10.8860  -22.8790 C.ar  448  TYR448     -0.0201
    159  CD1       46.6020   -9.7630  -22.3710 C.ar  448  TYR448     -0.0009
    160  CD2       44.5430  -10.8170  -22.9390 C.ar  448  TYR448     -0.0009
    161  CE1       45.9140   -8.6270  -21.9410 C.ar  448  TYR448      0.0417
    162  CE2       43.8660   -9.6870  -22.5460 C.ar  448  TYR448      0.0417
    163  CZ        44.5320   -8.6210  -22.0190 C.ar  448  TYR448      0.1957
    164  OH        43.8010   -7.5180  -21.6220 O.3   448  TYR448     -0.2866
    165  N         39.4730  -25.4220  -24.1950 N.3   497  ILE497     -0.1231
    166  CA        40.8690  -24.9870  -24.3480 C.3   497  ILE497      0.1678
    167  C         41.1580  -24.1170  -23.1360 C.2   497  ILE497      0.2434
    168  O         40.5670  -23.0090  -23.0150 O.2   497  ILE497     -0.2733
    169  CB        41.0240  -24.1550  -25.6510 C.3   497  ILE497      0.0265
    170  CG1       40.8450  -25.0260  -26.9030 C.3   497  ILE497      0.0019
    171  CG2       42.3900  -23.4160  -25.7180 C.3   497  ILE497      0.0020
    172  CD1       40.8540  -24.1740  -28.1950 C.3   497  ILE497      0.0001
    173  N         42.0280  -24.5950  -22.2110 N.am  498  PRO498     -0.2718
    174  CA        42.3880  -23.7380  -21.0770 C.3   498  PRO498      0.1535
    175  C         43.0160  -22.4020  -21.4960 C.2   498  PRO498      0.2598
    176  O         43.9830  -22.3950  -22.2580 O.2   498  PRO498     -0.2715
    177  CB        43.4460  -24.5730  -20.3290 C.3   498  PRO498      0.0310
    178  CG        43.1160  -25.9700  -20.6880 C.3   498  PRO498      0.0237
    179  CD        42.7150  -25.8930  -22.1300 C.3   498  PRO498      0.0939
    180  N         42.4810  -21.3120  -20.9580 N.am  499  MET499     -0.1978
    181  CA        43.0020  -19.9670  -21.2090 C.3   499  MET499      0.1605
    182  C         42.9930  -19.1480  -19.9020 C.2   499  MET499      0.2287
    183  O         41.9400  -18.8920  -19.3130 O.2   499  MET499     -0.2864
    184  CB        42.2280  -19.2950  -22.3770 C.3   499  MET499      0.0413
    185  CG        42.9800  -19.4590  -23.7350 C.3   499  MET499      0.0598
    186  SD        42.1070  -18.8310  -25.1850 S.3   499  MET499     -0.1393
    187  CE        40.9610  -20.1330  -25.4100 C.3   499  MET499      0.0692
    188  N         43.3830  -16.0100  -17.3270 N.3   501  MET501     -0.1230
    189  CA        43.1110  -14.5690  -17.3150 C.3   501  MET501      0.1702
    190  C         44.3160  -13.7650  -16.8460 C.2   501  MET501      0.2593
    191  O         44.9230  -14.0660  -15.8040 O.2   501  MET501     -0.2718
    192  CB        41.9180  -14.2420  -16.3830 C.3   501  MET501      0.0401
    193  CG        41.5190  -12.7780  -16.3620 C.3   501  MET501      0.0596
    194  SD        40.3470  -12.4450  -15.0480 S.3   501  MET501     -0.1393
    195  CE        38.9060  -13.2350  -15.7150 C.3   501  MET501      0.0692
    196  N         44.6240  -12.7040  -17.5920 N.am  502  SER502     -0.1938
    197  CA        45.5320  -11.6690  -17.1180 C.3   502  SER502      0.2055
    198  C         44.7820  -10.6850  -16.2010 C.2   502  SER502      0.2642
    199  O         44.1980   -9.7220  -16.6610 O.2   502  SER502     -0.2714
    200  CB        46.1890  -10.9620  -18.3080 C.3   502  SER502      0.2130
    201  OG        46.8410  -11.9180  -19.1420 O.3   502  SER502     -0.2179
    202  N         44.7790  -10.9830  -14.8990 N.am  503  ALA503     -0.1977
    203  CA        44.2730  -10.0860  -13.8390 C.3   503  ALA503      0.1597
    204  C         43.1480  -10.6860  -12.9870 C.2   503  ALA503      0.2287
    205  O         41.9540  -10.3810  -13.1410 O.2   503  ALA503     -0.2864
    206  CB        43.8470   -8.7750  -14.3950 C.3   503  ALA503      0.0319
@<TRIPOS>BOND
     1    19    20    1
     2   172   170    1
     3    20    23    1
     4    20    21    1
     5    22    21    2
     6    23    24    1
     7    24    25    1
     8   170   169    1
     9    25    26    1
    10    34    32    1
    11   147   148    2
    12   147   146    1
    13   116   117    2
    14   116   115    1
    15   156   155    2
    16   153   154    1
    17    26    27    1
    18   171   169    1
    19   169   166    1
    20   187   186    1
    21   114   115    1
    22   155   154    1
    23   186   185    1
    24   115   118    1
    25   149   146    1
    26   149   150    1
    27   154   157    1
    28    32    33    1
    29    32    29    1
    30   146   145    1
    31    28    29    1
    32   134   135    1
    33   145   136   am
    34   166   165    1
    35   166   167    1
    36   122   123    1
    37   120   119   ar
    38   132   133    2
    39   132   131    1
    40   151   150    2
    41   136   137    2
    42   136   135    1
    43    29    30    1
    44   150   152   am
    45   185   184    1
    46   118   119    1
    47   135   138    1
    48   108   105    1
    49   108   109    1
    50   105   106    1
    51   105   104    1
    52   157   158    1
    53   119   121   ar
    54   167   168    2
    55   167   173   am
    56   125   124    2
    57   130   124   am
    58   130   131    1
    59   124   123    1
    60   123   126    1
    61   160   158   ar
    62   160   162   ar
    63   106   107    2
    64   158   159   ar
    65    31    30    2
    66    30    35   am
    67   162   163   ar
    68   184   181    1
    69   159   161   ar
    70   176   175    2
    71   173   179    1
    72   173   174    1
    73   109   110   ar
    74   109   111   ar
    75   138   139    1
    76   179   178    1
    77   163   161   ar
    78   163   164    1
    79   126   127    1
    80   140   139   ar
    81   140   142   ar
    82    35    36    1
    83   110   112   ar
    84   175   174    1
    85   175   180   am
    86   111   113   ar
    87   139   141   ar
    88   181   180    1
    89   181   182    1
    90   174   177    1
    91   142   144   ar
    92   178   177    1
    93   112   113   ar
    94   128   127    1
    95   127   129    1
    96    36    37    1
    97    36    39    1
    98    37    38    2
    99   141   143   ar
   100   182   183    2
   101   144   143   ar
   102     1     2    1
   103   201   200    1
   104    17    16    1
   105    53    52   ar
   106    18    16    1
   107   200   197    1
   108     2     5    1
   109     2     3    1
   110    12     3   am
   111    12    13    1
   112    16    13    1
   113     5     6    1
   114   196   197    1
   115   196   190   am
   116    52    54   ar
   117    52    51    1
   118     3     4    2
   119   188   189    1
   120   189   190    1
   121   189   192    1
   122    13    14    1
   123    42    43    2
   124    42    41    1
   125   197   198    1
   126    11     9    1
   127     8     9    2
   128     8     7    1
   129    40    41    1
   130    14    15    2
   131   190   191    2
   132   199   198    2
   133     6     7    1
   134    44    41    1
   135    44    45    1
   136   192   193    1
   137    51    50    1
   138   193   194    1
   139     9    10    1
   140    50    47    1
   141   198   202   am
   142   103   101    1
   143    73    71    1
   144    48    47    1
   145    48    49    2
   146    85    87   ar
   147    85    83   ar
   148   101   102    1
   149   101   100    1
   150    87    86   ar
   151   195   194    1
   152    72    70    1
   153    47    46    1
   154    70    71    1
   155    70    67    1
   156   202   203    1
   157    83    82   ar
   158    83    81   ar
   159    82    80   ar
   160    98    99    2
   161    98    97    1
   162    86    84   ar
   163   100    97    1
   164   206   203    1
   165    97    96    1
   166   203   204    1
   167    69    68    2
   168    67    68    1
   169    67    66    1
   170    81    84   ar
   171    81    79   ar
   172    80    79   ar
   173    68    74   am
   174    94    93    2
   175   205   204    2
   176    79    78    1
   177    66    57   am
   178    95    93   am
   179    93    92    1
   180    74    75    1
   181    75    78    1
   182    75    76    1
   183    57    58    2
   184    57    56    1
   185    55    56    1
   186    92    89    1
   187    56    59    1
   188    76    77    2
   189    59    60    1
   190    89    88    1
   191    89    90    1
   192    60    61    1
   193    61    62    1
   194    90    91    2
   195    62    63    2
   196    63    64    1
   197    63    65    1
