@<TRIPOS>MOLECULE
tmp/3nrsA03.pdb
 86 85 0 0 0
SMALL
GASTEIGER

@<TRIPOS>ATOM
      1  N          2.0640   28.8240   14.4630 N.3    73  PRO73      -0.2102
      2  CA         2.0390   29.2980   13.0830 C.3    73  PRO73       0.1504
      3  C          2.4340   28.1270   12.1520 C.2    73  PRO73       0.2575
      4  O          2.4690   26.9590   12.6300 O.2    73  PRO73      -0.2718
      5  CB         3.1040   30.3660   13.0820 C.3    73  PRO73       0.0282
      6  CG         4.0900   29.9130   14.0970 C.3    73  PRO73       0.0208
      7  CD         3.2900   29.2450   15.1750 C.3    73  PRO73       0.0893
      8  N          2.7520   28.4350   10.8960 N.am   74  HIS74      -0.1976
      9  CA         3.1600   27.4050    9.9460 C.3    74  HIS74       0.1656
     10  C          4.5670   27.7010    9.4930 C.2    74  HIS74       0.2291
     11  O          5.0810   28.8090    9.6460 O.2    74  HIS74      -0.2864
     12  CB         2.2180   27.2930    8.7450 C.3    74  HIS74       0.0771
     13  CG         2.0310   28.5710    7.9640 C.ar   74  HIS74       0.0820
     14  ND1        1.0380   29.4860    8.2620 N.ar   74  HIS74      -0.2267
     15  CD2        2.7170   29.0920    6.9170 C.ar   74  HIS74       0.1154
     16  CE1        1.1100   30.5030    7.4180 C.ar   74  HIS74       0.1986
     17  NE2        2.1290   30.2970    6.5930 N.ar   74  HIS74      -0.2212
     18  N         -1.8110   24.4020    8.9260 N.3    81  ARG81      -0.1245
     19  CA        -2.5690   24.7820   10.1250 C.3    81  ARG81       0.1563
     20  C         -3.7900   23.9170   10.4440 C.2    81  ARG81       0.2260
     21  O         -4.3230   24.0100   11.5550 O.2    81  ARG81      -0.2867
     22  CB        -2.9910   26.2480   10.0830 C.3    81  ARG81       0.0307
     23  CG        -1.8310   27.1900   10.1100 C.3    81  ARG81       0.0489
     24  CD        -2.2730   28.6060   10.3620 C.3    81  ARG81       0.2205
     25  NE        -1.1720   29.5250   10.3430 N.pl3  81  ARG81      -0.0865
     26  CZ        -1.1400   30.7060   10.9560 C.cat  81  ARG81       0.5346
     27  NH1       -2.1900   31.1660   11.6170 N.pl3  81  ARG81       0.1354
     28  NH2       -0.0140   31.4310   10.8700 N.pl3  81  ARG81       0.1354
     29  N         12.6570   29.6080   20.2280 N.3   292  HIS292     -0.1241
     30  CA        12.8290   31.0600   20.1170 C.3   292  HIS292      0.1621
     31  C         12.6860   31.8010   21.4600 C.2   292  HIS292      0.2264
     32  O         12.3580   32.9770   21.4840 O.2   292  HIS292     -0.2867
     33  CB        11.8700   31.6410   19.0950 C.3   292  HIS292      0.0745
     34  CG        10.4340   31.3790   19.4100 C.ar  292  HIS292      0.0817
     35  ND1        9.6180   30.5970   18.6200 N.ar  292  HIS292     -0.2268
     36  CD2        9.6570   31.8160   20.4360 C.ar  292  HIS292      0.1154
     37  CE1        8.3930   30.5670   19.1460 C.ar  292  HIS292      0.1986
     38  NE2        8.3990   31.2810   20.2630 N.ar  292  HIS292     -0.2212
     39  N         13.0780   37.0750   15.6400 N.3   318  LEU318     -0.1245
     40  CA        12.3090   38.3120   15.6100 C.3   318  LEU318      0.1561
     41  C         12.8290   39.2840   16.6730 C.2   318  LEU318      0.2260
     42  O         13.2650   38.8780   17.7460 O.2   318  LEU318     -0.2867
     43  CB        10.8160   38.0470   15.8040 C.3   318  LEU318      0.0270
     44  CG        10.0490   37.1330   14.8220 C.3   318  LEU318      0.0019
     45  CD1        8.5730   37.1590   15.2270 C.3   318  LEU318      0.0001
     46  CD2       10.1830   37.5440   13.3750 C.3   318  LEU318      0.0001
     47  N         11.6770   39.2360   20.5970 N.3   321  LYS321     -0.1245
     48  CA        11.9800   38.1260   21.4790 C.3   321  LYS321      0.1561
     49  C         12.9840   38.5020   22.5520 C.2   321  LYS321      0.2260
     50  O         13.6540   39.5420   22.4820 O.2   321  LYS321     -0.2867
     51  CB        12.5840   36.9560   20.6610 C.3   321  LYS321      0.0271
     52  CG        11.7090   36.4320   19.5770 C.3   321  LYS321      0.0035
     53  CD        10.3490   36.0150   20.0760 C.3   321  LYS321      0.0206
     54  CE         9.6060   35.1390   19.0810 C.3   321  LYS321      0.1093
     55  NZ         8.1380   35.0480   19.3990 N.3   321  LYS321     -0.1314
     56  N         15.9720   29.6050   16.2640 N.3   387  GLY387     -0.1210
     57  CA        15.7400   31.0170   16.5660 C.3   387  GLY387      0.1956
     58  C         14.3420   31.4860   16.2560 C.2   387  GLY387      0.2613
     59  O         13.8900   32.4750   16.8220 O.2   387  GLY387     -0.2717
     60  N         13.7050   30.8450   15.2900 N.am  388  SER388     -0.1938
     61  CA        12.4370   31.2930   14.7650 C.3   388  SER388      0.2055
     62  C         11.8590   30.2620   13.8340 C.2   388  SER388      0.2643
     63  O         12.6020   29.5120   13.2220 O.2   388  SER388     -0.2714
     64  CB        12.6090   32.6040   13.9770 C.3   388  SER388      0.2130
     65  OG        11.3610   33.1080   13.5280 O.3   388  SER388     -0.2179
     66  N         10.5380   30.2410   13.7100 N.am  389  PHE389     -0.1959
     67  CA         9.9070   29.5090   12.6210 C.3   389  PHE389      0.1771
     68  C         10.4800   29.9510   11.2580 C.2   389  PHE389      0.2619
     69  O         10.6390   29.1230   10.3160 O.2   389  PHE389     -0.2715
     70  CB         8.3820   29.7450   12.6220 C.3   389  PHE389      0.0574
     71  CG         7.6280   28.7720   13.4760 C.ar  389  PHE389     -0.0200
     72  CD1        7.6420   28.8580   14.8540 C.ar  389  PHE389     -0.0042
     73  CD2        6.9080   27.7640   12.8880 C.ar  389  PHE389     -0.0042
     74  CE1        6.9450   27.9080   15.6310 C.ar  389  PHE389     -0.0003
     75  CE2        6.2110   26.8570   13.6650 C.ar  389  PHE389     -0.0003
     76  CZ         6.2670   26.9120   14.9950 C.ar  389  PHE389     -0.0000
     77  N         10.7430   31.2480   11.1160 N.am  390  HIS390     -0.1973
     78  CA        11.1920   31.7850    9.8440 C.3   390  HIS390      0.1656
     79  C         12.5560   31.2310    9.4440 C.2   390  HIS390      0.2291
     80  O         12.7890   30.9200    8.2790 O.2   390  HIS390     -0.2864
     81  CB        11.2700   33.3150    9.8830 C.3   390  HIS390      0.0771
     82  CG         9.9550   33.9880   10.1100 C.ar  390  HIS390      0.0820
     83  ND1        9.0580   34.2240    9.0910 N.ar  390  HIS390     -0.2267
     84  CD2        9.3930   34.4940   11.2330 C.ar  390  HIS390      0.1154
     85  CE1        7.9950   34.8510    9.5780 C.ar  390  HIS390      0.1986
     86  NE2        8.1760   35.0360   10.8750 N.ar  390  HIS390     -0.2212
@<TRIPOS>BOND
     1    17    15   ar
     2    17    16   ar
     3    15    13   ar
     4    16    14   ar
     5    13    14   ar
     6    13    12    1
     7    80    79    2
     8    12     9    1
     9    18    19    1
    10    83    85   ar
    11    83    82   ar
    12    79    78    1
    13    10    11    2
    14    10     9    1
    15    85    86   ar
    16    78    81    1
    17    78    77    1
    18    81    82    1
    19     9     8    1
    20    22    23    1
    21    22    19    1
    22    82    84   ar
    23    23    24    1
    24    19    20    1
    25    69    68    2
    26    25    24    1
    27    25    26    2
    28    20    21    2
    29    28    26    1
    30    86    84   ar
    31     8     3   am
    32    26    27    1
    33    77    68   am
    34    68    67    1
    35     3     4    2
    36     3     2    1
    37    67    70    1
    38    67    66    1
    39    70    71    1
    40    73    71   ar
    41    73    75   ar
    42     5     2    1
    43     5     6    1
    44     2     1    1
    45    63    62    2
    46    46    44    1
    47    71    72   ar
    48    65    64    1
    49    75    76   ar
    50    66    62   am
    51    62    61    1
    52    64    61    1
    53     6     7    1
    54     1     7    1
    55    61    60    1
    56    44    45    1
    57    44    43    1
    58    72    74   ar
    59    76    74   ar
    60    60    58   am
    61    40    39    1
    62    40    43    1
    63    40    41    1
    64    58    57    1
    65    58    59    2
    66    56    57    1
    67    41    42    2
    68    35    37   ar
    69    35    34   ar
    70    54    55    1
    71    54    53    1
    72    33    34    1
    73    33    30    1
    74    37    38   ar
    75    34    36   ar
    76    52    53    1
    77    52    51    1
    78    30    29    1
    79    30    31    1
    80    38    36   ar
    81    47    48    1
    82    51    48    1
    83    31    32    2
    84    48    49    1
    85    50    49    2
