@<TRIPOS>MOLECULE
tmp/3nrsA00.pdb
 96 91 0 0 0
SMALL
GASTEIGER

@<TRIPOS>ATOM
      1  N         -0.1880   27.1130   26.3710 N.3    45  GLY45      -0.1210
      2  CA         1.1770   26.9730   26.8400 C.3    45  GLY45       0.1956
      3  C          2.1190   27.8540   26.0840 C.2    45  GLY45       0.2612
      4  O          1.8330   28.2760   24.9780 O.2    45  GLY45      -0.2717
      5  N          3.2700   28.1220   26.6640 N.am   46  THR46      -0.1952
      6  CA         4.2300   28.9530   25.9670 C.3    46  THR46       0.1897
      7  C          4.9290   28.0910   24.9070 C.2    46  THR46       0.2313
      8  O          4.9310   28.4590   23.7250 O.2    46  THR46      -0.2863
      9  CB         5.2610   29.5390   26.9100 C.3    46  THR46       0.1794
     10  OG1        4.5710   30.3270   27.8880 O.3    46  THR46      -0.2208
     11  CG2        6.2340   30.4320   26.1220 C.3    46  THR46       0.0378
     12  N          3.1820   23.2040   22.8970 N.3    49  LYS49      -0.1245
     13  CA         1.7950   23.0140   22.4500 C.3    49  LYS49       0.1561
     14  C          1.7910   22.1100   21.2110 C.2    49  LYS49       0.2260
     15  O          0.9800   21.1840   21.1170 O.2    49  LYS49      -0.2867
     16  CB         1.0830   24.3240   22.0860 C.3    49  LYS49       0.0271
     17  CG         0.8120   25.2810   23.2570 C.3    49  LYS49       0.0035
     18  CD         0.1110   26.5400   22.7800 C.3    49  LYS49       0.0206
     19  CE         0.7900   27.3560   21.7250 C.3    49  LYS49       0.1093
     20  NZ         2.0650   27.9340   22.2000 N.3    49  LYS49      -0.1314
     21  N         -3.6030   30.1870   19.9830 N.3   137  GLY137     -0.1210
     22  CA        -2.6630   31.1010   19.3260 C.3   137  GLY137      0.1956
     23  C         -1.7400   31.7790   20.3000 C.2   137  GLY137      0.2612
     24  O         -0.5560   31.5990   20.2520 O.2   137  GLY137     -0.2717
     25  N         -2.2780   32.6090   21.1760 N.am  138  LEU138     -0.1965
     26  CA        -1.4800   33.3350   22.1530 C.3   138  LEU138      0.1728
     27  C         -2.3360   33.4240   23.4090 C.2   138  LEU138      0.2616
     28  O         -3.5530   33.4980   23.3180 O.2   138  LEU138     -0.2715
     29  CB        -1.1250   34.7710   21.6940 C.3   138  LEU138      0.0311
     30  CG        -0.0020   34.9300   20.6670 C.3   138  LEU138      0.0022
     31  CD1        0.0760   36.4190   20.2450 C.3   138  LEU138      0.0001
     32  CD2        1.3190   34.4360   21.2300 C.3   138  LEU138      0.0001
     33  N         -1.7000   33.4200   24.5820 N.am  139  GLY139     -0.1955
     34  CA        -2.4390   33.6010   25.8300 C.3   139  GLY139      0.1869
     35  C         -3.4660   32.4970   26.0930 C.2   139  GLY139      0.2309
     36  O         -3.1420   31.2830   26.1120 O.2   139  GLY139     -0.2863
     37  N          6.5040   30.0610   30.2350 N.3   159  ALA159     -0.1231
     38  CA         7.8170   30.6300   30.0430 C.3   159  ALA159      0.1694
     39  C          7.6200   32.0100   29.4180 C.2   159  ALA159      0.2592
     40  O          6.5920   32.2880   28.8300 O.2   159  ALA159     -0.2718
     41  CB         8.7050   29.7150   29.1660 C.3   159  ALA159      0.0304
     42  N          8.6010   32.8720   29.5960 N.am  160  LEU160     -0.1966
     43  CA         8.5340   34.2070   29.0480 C.3   160  LEU160      0.1728
     44  C          9.1590   34.2040   27.6420 C.2   160  LEU160      0.2616
     45  O         10.3640   33.8980   27.4700 O.2   160  LEU160     -0.2715
     46  CB         9.2630   35.2010   29.9460 C.3   160  LEU160      0.0311
     47  CG         8.5660   35.7150   31.2250 C.3   160  LEU160      0.0022
     48  CD1        8.3520   34.6440   32.2120 C.3   160  LEU160      0.0001
     49  CD2        9.4290   36.8210   31.8710 C.3   160  LEU160      0.0001
     50  N          8.3690   34.6220   26.6580 N.am  161  ASP161     -0.1957
     51  CA         8.8390   34.6630   25.2720 C.3   161  ASP161      0.1840
     52  C          9.2980   36.0770   24.8760 C.2   161  ASP161      0.2622
     53  O          9.8200   36.2890   23.7810 O.2   161  ASP161     -0.2715
     54  CB         7.7000   34.1780   24.3460 C.3   161  ASP161      0.1450
     55  CG         8.1410   33.9470   22.9210 C.2   161  ASP161      0.3671
     56  OD1        9.2020   33.3190   22.7400 O.co2 161  ASP161     -0.2456
     57  OD2        7.4450   34.3930   21.9680 O.co2 161  ASP161     -0.2456
     58  N          9.1310   37.0470   25.7620 N.am  162  HIS162     -0.1973
     59  CA         9.4440   38.4320   25.4280 C.3   162  HIS162      0.1656
     60  C         10.3230   39.0380   26.5000 C.2   162  HIS162      0.2291
     61  O         10.6400   38.3770   27.4750 O.2   162  HIS162     -0.2864
     62  CB         8.1510   39.2140   25.2440 C.3   162  HIS162      0.0771
     63  CG         7.3430   38.7160   24.0990 C.ar  162  HIS162      0.0820
     64  ND1        7.7890   38.7910   22.7920 N.ar  162  HIS162     -0.2267
     65  CD2        6.1670   38.0420   24.0610 C.ar  162  HIS162      0.1154
     66  CE1        6.8990   38.2200   21.9960 C.ar  162  HIS162      0.1986
     67  NE2        5.9020   37.7720   22.7370 N.ar  162  HIS162     -0.2212
     68  N          4.8130   41.8010   33.8420 N.3   168  TYR168     -0.1241
     69  CA         4.9660   40.6570   32.9350 C.3   168  TYR168      0.1605
     70  C          5.8510   39.6260   33.6040 C.2   168  TYR168      0.2264
     71  O          7.0680   39.8170   33.8030 O.2   168  TYR168     -0.2867
     72  CB         5.6090   41.1580   31.6490 C.3   168  TYR168      0.0534
     73  CG         5.9560   40.0860   30.6490 C.ar  168  TYR168     -0.0201
     74  CD1        4.9740   39.3160   30.0660 C.ar  168  TYR168     -0.0009
     75  CD2        7.2500   39.8730   30.2940 C.ar  168  TYR168     -0.0009
     76  CE1        5.3080   38.3120   29.1320 C.ar  168  TYR168      0.0417
     77  CE2        7.5980   38.8960   29.3440 C.ar  168  TYR168      0.0417
     78  CZ         6.6360   38.1320   28.7790 C.ar  168  TYR168      0.1957
     79  OH         7.0220   37.1800   27.8250 O.3   168  TYR168     -0.2866
     80  N          1.3920   35.6980   32.9060 N.3   173  ILE173     -0.1245
     81  CA         1.2680   34.7670   31.7580 C.3   173  ILE173      0.1561
     82  C          0.3320   33.5960   32.0940 C.2   173  ILE173      0.2260
     83  O         -0.5580   33.2690   31.3130 O.2   173  ILE173     -0.2867
     84  CB         2.6810   34.2730   31.3840 C.3   173  ILE173      0.0252
     85  CG1        3.4370   35.4120   30.7370 C.3   173  ILE173      0.0019
     86  CG2        2.6870   33.0170   30.4290 C.3   173  ILE173      0.0019
     87  CD1        4.9910   35.1640   30.7350 C.3   173  ILE173      0.0001
     88  N         -3.3770   32.2760   30.4160 N.3   177  LYS177     -0.1245
     89  CA        -3.5190   30.9270   29.8430 C.3   177  LYS177      0.1561
     90  C         -4.6230   30.0960   30.4840 C.2   177  LYS177      0.2260
     91  O         -5.2990   29.3280   29.7860 O.2   177  LYS177     -0.2867
     92  CB        -2.2010   30.1740   29.9580 C.3   177  LYS177      0.0271
     93  CG        -1.1160   30.8270   29.1770 C.3   177  LYS177      0.0035
     94  CD        -0.0390   29.8690   28.8060 C.3   177  LYS177      0.0206
     95  CE         1.1660   30.5680   28.2920 C.3   177  LYS177      0.1093
     96  NZ         0.8500   31.3960   27.1100 N.3   177  LYS177     -0.1314
@<TRIPOS>BOND
     1    22    21    1
     2    22    23    1
     3    31    30    1
     4    24    23    2
     5    23    25   am
     6    30    32    1
     7    30    29    1
     8    15    14    2
     9    25    26    1
    10    14    13    1
    11    29    26    1
    12    19    20    1
    13    19    18    1
    14    57    55   ar
    15    66    67   ar
    16    66    64   ar
    17    16    13    1
    18    16    17    1
    19    26    27    1
    20    13    12    1
    21    67    65   ar
    22    56    55   ar
    23    18    17    1
    24    64    63   ar
    25    55    54    1
    26    28    27    2
    27    27    33   am
    28     8     7    2
    29    53    52    2
    30    65    63   ar
    31    63    62    1
    32    54    51    1
    33    33    34    1
    34    52    51    1
    35    52    58   am
    36     7     6    1
    37     4     3    2
    38    62    59    1
    39    51    50    1
    40    59    58    1
    41    59    60    1
    42    34    35    1
    43     6     5    1
    44     6     9    1
    45     3     5   am
    46     3     2    1
    47    35    36    2
    48    11     9    1
    49     1     2    1
    50    60    61    2
    51    50    44   am
    52     9    10    1
    53    96    95    1
    54    45    44    2
    55    44    43    1
    56    79    78    1
    57    95    94    1
    58    78    76   ar
    59    78    77   ar
    60    94    93    1
    61    40    39    2
    62    43    42    1
    63    43    46    1
    64    76    74   ar
    65    41    38    1
    66    93    92    1
    67    77    75   ar
    68    39    42   am
    69    39    38    1
    70    91    90    2
    71    89    92    1
    72    89    88    1
    73    89    90    1
    74    46    47    1
    75    38    37    1
    76    74    73   ar
    77    75    73   ar
    78    86    84    1
    79    73    72    1
    80    87    85    1
    81    85    84    1
    82    47    49    1
    83    47    48    1
    84    83    82    2
    85    84    81    1
    86    72    69    1
    87    81    82    1
    88    81    80    1
    89    69    70    1
    90    69    68    1
    91    70    71    2
