@<TRIPOS>MOLECULE
tmp/3nrsA01.pdb
 100 96 0 0 0
SMALL
GASTEIGER

@<TRIPOS>ATOM
      1  N          3.2700   28.1220   26.6640 N.3    46  THR46      -0.1203
      2  CA         4.2300   28.9530   25.9670 C.3    46  THR46       0.1994
      3  C          4.9290   28.0910   24.9070 C.2    46  THR46       0.2618
      4  O          4.9310   28.4590   23.7250 O.2    46  THR46      -0.2717
      5  CB         5.2610   29.5390   26.9100 C.3    46  THR46       0.1784
      6  OG1        4.5710   30.3270   27.8880 O.3    46  THR46      -0.2211
      7  CG2        6.2340   30.4320   26.1220 C.3    46  THR46       0.0376
      8  N          5.5540   27.0240   25.3770 N.am   47  ASN47      -0.1960
      9  CA         6.2390   26.0290   24.5280 C.3    47  ASN47       0.1819
     10  C          5.5520   24.6740   24.6830 C.2    47  ASN47       0.2622
     11  O          4.8210   24.4150   25.6440 O.2    47  ASN47      -0.2715
     12  CB         7.6940   25.8750   24.9500 C.3    47  ASN47       0.1195
     13  CG         8.5250   27.1270   24.7180 C.2    47  ASN47       0.2630
     14  OD1        8.2900   27.8930   23.7840 O.2    47  ASN47      -0.2716
     15  ND2        9.4950   27.3500   25.5860 N.am   47  ASN47      -0.0877
     16  N          5.7920   23.8140   23.6990 N.am   48  GLY48      -0.1940
     17  CA         5.3160   22.4070   23.7790 C.3    48  GLY48       0.2014
     18  C          3.8860   22.1760   23.3540 C.2    48  GLY48       0.2639
     19  O          3.4330   21.0430   23.3530 O.2    48  GLY48      -0.2714
     20  N          3.1820   23.2040   22.8970 N.am   49  LYS49      -0.1963
     21  CA         1.7950   23.0140   22.4500 C.3    49  LYS49       0.1728
     22  C          1.7910   22.1100   21.2110 C.2    49  LYS49       0.2617
     23  O          0.9800   21.1840   21.1170 O.2    49  LYS49      -0.2715
     24  CB         1.0830   24.3240   22.0860 C.3    49  LYS49       0.0311
     25  CG         0.8120   25.2810   23.2570 C.3    49  LYS49       0.0038
     26  CD         0.1110   26.5400   22.7800 C.3    49  LYS49       0.0206
     27  CE         0.7900   27.3560   21.7250 C.3    49  LYS49       0.1093
     28  NZ         2.0650   27.9340   22.2000 N.3    49  LYS49      -0.1314
     29  N          2.6830   22.4080   20.2550 N.am   50  GLY50      -0.1940
     30  CA         2.7140   21.6240   19.0220 C.3    50  GLY50       0.2014
     31  C          2.9310   20.1390   19.2900 C.2    50  GLY50       0.2639
     32  O          2.2690   19.2980   18.7090 O.2    50  GLY50      -0.2714
     33  N          3.9790   19.8090   20.0470 N.am   51  THR51      -0.1950
     34  CA         4.3120   18.4030   20.2230 C.3    51  THR51       0.1897
     35  C          3.3390   17.6860   21.1740 C.2    51  THR51       0.2313
     36  O          3.1580   16.5120   21.0420 O.2    51  THR51      -0.2863
     37  CB         5.7640   18.2100   20.6560 C.3    51  THR51       0.1794
     38  OG1        6.0320   19.0180   21.7910 O.3    51  THR51      -0.2208
     39  CG2        6.6530   18.6260   19.5240 C.3    51  THR51       0.0378
     40  N         -0.6810   26.5850   14.8460 N.3    72  SER72      -0.1203
     41  CA        -0.1690   27.8120   14.2880 C.3    72  SER72       0.2005
     42  C          1.1160   28.1220   15.0730 C.2    72  SER72       0.2460
     43  O          1.2310   27.6870   16.2190 O.2    72  SER72      -0.2732
     44  CB        -1.1560   28.9720   14.4510 C.3    72  SER72       0.2103
     45  OG        -1.4960   29.1870   15.8090 O.3    72  SER72      -0.2182
     46  N          2.0640   28.8240   14.4630 N.am   73  PRO73      -0.2728
     47  CA         2.0390   29.2980   13.0830 C.3    73  PRO73       0.1401
     48  C          2.4340   28.1270   12.1520 C.2    73  PRO73       0.2269
     49  O          2.4690   26.9590   12.6300 O.2    73  PRO73      -0.2865
     50  CB         3.1040   30.3660   13.0820 C.3    73  PRO73       0.0296
     51  CG         4.0900   29.9130   14.0970 C.3    73  PRO73       0.0237
     52  CD         3.2900   29.2450   15.1750 C.3    73  PRO73       0.0939
     53  N         -4.8730   24.1450   19.2220 N.3   135  GLU135     -0.1245
     54  CA        -3.7420   24.7990   19.8180 C.3   135  GLU135      0.1567
     55  C         -4.0910   26.2780   19.9350 C.2   135  GLU135      0.2260
     56  O         -4.4170   26.9250   18.9320 O.2   135  GLU135     -0.2867
     57  CB        -2.4990   24.6130   18.9420 C.3   135  GLU135      0.0388
     58  CG        -1.3070   25.2530   19.4610 C.3   135  GLU135      0.1160
     59  CD        -0.0540   25.1370   18.5160 C.2   135  GLU135      0.3649
     60  OE1       -0.0750   24.3900   17.5420 O.co2 135  GLU135     -0.2457
     61  OE2        0.9800   25.7830   18.8260 O.co2 135  GLU135     -0.2457
     62  N         10.7750   20.4520   15.0170 N.3   276  ARG276     -0.1245
     63  CA        10.8800   20.2520   16.4670 C.3   276  ARG276      0.1563
     64  C         11.9480   19.2180   16.6990 C.2   276  ARG276      0.2260
     65  O         11.7210   18.0020   16.6140 O.2   276  ARG276     -0.2867
     66  CB         9.5270   19.8460   17.0740 C.3   276  ARG276      0.0307
     67  CG         8.5880   20.9880   17.3080 C.3   276  ARG276      0.0489
     68  CD         8.1840   21.7060   16.0960 C.3   276  ARG276      0.2205
     69  NE         7.0170   22.5340   16.3250 N.pl3 276  ARG276     -0.0865
     70  CZ         6.1750   22.9580   15.3820 C.cat 276  ARG276      0.5346
     71  NH1        5.0950   23.6310   15.7560 N.pl3 276  ARG276      0.1354
     72  NH2        6.3500   22.6650   14.0840 N.pl3 276  ARG276      0.1354
     73  N         12.6460   25.0710   16.0130 N.3   290  VAL290     -0.1245
     74  CA        12.0090   26.3800   16.0250 C.3   290  VAL290      0.1561
     75  C         12.1310   27.1300   17.3500 C.2   290  VAL290      0.2260
     76  O         11.4770   28.1690   17.4990 O.2   290  VAL290     -0.2867
     77  CB        10.5230   26.2910   15.5800 C.3   290  VAL290      0.0252
     78  CG1       10.4210   25.8120   14.1090 C.3   290  VAL290      0.0019
     79  CG2        9.7080   25.3850   16.5170 C.3   290  VAL290      0.0019
     80  N         12.6570   29.6080   20.2280 N.3   292  HIS292     -0.1241
     81  CA        12.8290   31.0600   20.1170 C.3   292  HIS292      0.1621
     82  C         12.6860   31.8010   21.4600 C.2   292  HIS292      0.2264
     83  O         12.3580   32.9770   21.4840 O.2   292  HIS292     -0.2867
     84  CB        11.8700   31.6410   19.0950 C.3   292  HIS292      0.0745
     85  CG        10.4340   31.3790   19.4100 C.ar  292  HIS292      0.0817
     86  ND1        9.6180   30.5970   18.6200 N.ar  292  HIS292     -0.2268
     87  CD2        9.6570   31.8160   20.4360 C.ar  292  HIS292      0.1154
     88  CE1        8.3930   30.5670   19.1460 C.ar  292  HIS292      0.1986
     89  NE2        8.3990   31.2810   20.2630 N.ar  292  HIS292     -0.2212
     90  N         10.5380   30.2410   13.7100 N.3   389  PHE389     -0.1241
     91  CA         9.9070   29.5090   12.6210 C.3   389  PHE389      0.1605
     92  C         10.4800   29.9510   11.2580 C.2   389  PHE389      0.2264
     93  O         10.6390   29.1230   10.3160 O.2   389  PHE389     -0.2867
     94  CB         8.3820   29.7450   12.6220 C.3   389  PHE389      0.0534
     95  CG         7.6280   28.7720   13.4760 C.ar  389  PHE389     -0.0203
     96  CD1        7.6420   28.8580   14.8540 C.ar  389  PHE389     -0.0042
     97  CD2        6.9080   27.7640   12.8880 C.ar  389  PHE389     -0.0042
     98  CE1        6.9450   27.9080   15.6310 C.ar  389  PHE389     -0.0003
     99  CE2        6.2110   26.8570   13.6650 C.ar  389  PHE389     -0.0003
    100  CZ         6.2670   26.9120   14.9950 C.ar  389  PHE389     -0.0000
@<TRIPOS>BOND
     1    93    92    2
     2    92    91    1
     3    48    49    2
     4    48    47    1
     5    91    94    1
     6    91    90    1
     7    94    95    1
     8    97    95   ar
     9    97    99   ar
    10    50    47    1
    11    50    51    1
    12    47    46    1
    13    95    96   ar
    14    99   100   ar
    15    72    70    1
    16    51    52    1
    17    78    77    1
    18    41    44    1
    19    41    40    1
    20    41    42    1
    21    44    45    1
    22    46    42   am
    23    46    52    1
    24    96    98   ar
    25   100    98   ar
    26    62    63    1
    27    42    43    2
    28    70    71    1
    29    70    69    2
    30    77    74    1
    31    77    79    1
    32    73    74    1
    33    74    75    1
    34    68    69    1
    35    68    67    1
    36    63    64    1
    37    63    66    1
    38    65    64    2
    39    66    67    1
    40    75    76    2
    41    60    59   ar
    42    59    61   ar
    43    59    58    1
    44    86    88   ar
    45    86    85   ar
    46    32    31    2
    47    56    55    2
    48    57    58    1
    49    57    54    1
    50    30    31    1
    51    30    29    1
    52    84    85    1
    53    84    81    1
    54    88    89   ar
    55    53    54    1
    56    31    33   am
    57    85    87   ar
    58    39    37    1
    59    54    55    1
    60    33    34    1
    61    81    80    1
    62    81    82    1
    63    34    37    1
    64    34    35    1
    65    29    22   am
    66    89    87   ar
    67    37    38    1
    68    36    35    2
    69    23    22    2
    70    22    21    1
    71    82    83    2
    72    27    28    1
    73    27    26    1
    74    24    21    1
    75    24    25    1
    76    21    20    1
    77    26    25    1
    78    20    18   am
    79    19    18    2
    80    18    17    1
    81    16    17    1
    82    16    10   am
    83     4     3    2
    84    14    13    2
    85     9    10    1
    86     9    12    1
    87     9     8    1
    88    10    11    2
    89    13    12    1
    90    13    15   am
    91     3     8   am
    92     3     2    1
    93     2     1    1
    94     2     5    1
    95     7     5    1
    96     5     6    1
