@<TRIPOS>MOLECULE
tmp/3ns0A01.pdb
 106 100 0 0 0
SMALL
GASTEIGER

@<TRIPOS>ATOM
      1  N         19.6650   22.3760   56.2530 N.3    16  GLY16      -0.1225
      2  CA        20.6420   23.4010   55.9100 C.3    16  GLY16       0.1811
      3  C         21.5370   22.9900   54.7560 C.2    16  GLY16       0.2280
      4  O         21.7800   23.7710   53.8350 O.2    16  GLY16      -0.2866
      5  N         19.5640   22.8300   51.5150 N.3    19  THR19      -0.1203
      6  CA        19.3460   24.1690   50.9880 C.3    19  THR19       0.1994
      7  C         20.5860   24.6440   50.2340 C.2    19  THR19       0.2617
      8  O         20.4900   25.1580   49.1220 O.2    19  THR19      -0.2717
      9  CB        19.0440   25.1770   52.1220 C.3    19  THR19       0.1784
     10  OG1       17.8210   24.8080   52.7710 O.3    19  THR19      -0.2211
     11  CG2       18.9130   26.5950   51.5600 C.3    19  THR19       0.0376
     12  N         21.7480   24.4700   50.8530 N.am   20  LEU20      -0.1979
     13  CA        23.0020   24.8870   50.2400 C.3    20  LEU20       0.1596
     14  C         23.2920   24.1190   48.9570 C.2    20  LEU20       0.2287
     15  O         23.7840   24.6900   47.9830 O.2    20  LEU20      -0.2864
     16  CB        24.1550   24.7100   51.2290 C.3    20  LEU20       0.0297
     17  CG        24.1060   25.6220   52.4550 C.3    20  LEU20       0.0022
     18  CD1       25.2330   25.2600   53.4050 C.3    20  LEU20       0.0001
     19  CD2       24.2180   27.0750   52.0180 C.3    20  LEU20       0.0001
     20  N         21.0520   22.6950   46.8800 N.3    22  PHE22      -0.1227
     21  CA        20.1380   23.1650   45.8460 C.3    22  PHE22       0.1736
     22  C         20.5210   24.5580   45.3640 C.2    22  PHE22       0.2595
     23  O         20.3860   24.8720   44.1790 O.2    22  PHE22      -0.2718
     24  CB        18.6900   23.1710   46.3580 C.3    22  PHE22       0.0547
     25  CG        18.1280   21.7960   46.6270 C.ar   22  PHE22      -0.0202
     26  CD1       18.6050   20.6790   45.9400 C.ar   22  PHE22      -0.0042
     27  CD2       17.1000   21.6210   47.5520 C.ar   22  PHE22      -0.0042
     28  CE1       18.0650   19.4080   46.1710 C.ar   22  PHE22      -0.0003
     29  CE2       16.5520   20.3500   47.7900 C.ar   22  PHE22      -0.0003
     30  CZ        17.0340   19.2470   47.1020 C.ar   22  PHE22      -0.0000
     31  N         21.0090   25.3840   46.2850 N.am   23  LEU23      -0.1980
     32  CA        21.4110   26.7490   45.9620 C.3    23  LEU23       0.1596
     33  C         22.5760   26.7320   44.9770 C.2    23  LEU23       0.2287
     34  O         22.5780   27.4630   43.9890 O.2    23  LEU23      -0.2864
     35  CB        21.8230   27.4950   47.2370 C.3    23  LEU23       0.0297
     36  CG        21.9590   29.0160   47.1210 C.3    23  LEU23       0.0022
     37  CD1       20.6080   29.6300   46.7610 C.3    23  LEU23       0.0001
     38  CD2       22.4620   29.5840   48.4450 C.3    23  LEU23       0.0001
     39  N         21.5950   25.2100   41.5310 N.3    26  GLY26      -0.1225
     40  CA        20.7710   26.0970   40.7270 C.3    26  GLY26       0.1811
     41  C         21.5020   27.2750   40.1110 C.2    26  GLY26       0.2280
     42  O         20.9100   28.0550   39.3600 O.2    26  GLY26      -0.2866
     43  N         14.1990   27.7450   36.4550 N.3    35  LYS35      -0.1245
     44  CA        14.3990   28.7120   37.5310 C.3    35  LYS35       0.1561
     45  C         13.2540   28.6430   38.5350 C.2    35  LYS35       0.2260
     46  O         13.4710   28.7560   39.7400 O.2    35  LYS35      -0.2867
     47  CB        14.4670   30.1420   36.9840 C.3    35  LYS35       0.0271
     48  CG        15.7940   30.5810   36.4020 C.3    35  LYS35       0.0035
     49  CD        15.6730   32.0400   35.9990 C.3    35  LYS35       0.0206
     50  CE        16.9650   32.6270   35.4840 C.3    35  LYS35       0.1093
     51  NZ        16.7470   34.0600   35.1160 N.3    35  LYS35      -0.1314
     52  N         13.7050   25.5730   40.6790 N.3    38  TYR38      -0.1227
     53  CA        14.8240   25.7050   41.6090 C.3    38  TYR38       0.1736
     54  C         14.4830   26.6500   42.7580 C.2    38  TYR38       0.2595
     55  O         14.8620   26.4100   43.8980 O.2    38  TYR38      -0.2718
     56  CB        16.0790   26.2080   40.8960 C.3    38  TYR38       0.0548
     57  CG        16.9610   25.0910   40.3960 C.ar   38  TYR38      -0.0200
     58  CD1       16.9150   24.6770   39.0630 C.ar   38  TYR38      -0.0009
     59  CD2       17.8290   24.4320   41.2640 C.ar   38  TYR38      -0.0009
     60  CE1       17.7150   23.6350   38.6100 C.ar   38  TYR38       0.0417
     61  CE2       18.6300   23.3920   40.8250 C.ar   38  TYR38       0.0417
     62  CZ        18.5690   22.9980   39.4960 C.ar   38  TYR38       0.1957
     63  OH        19.3590   21.9650   39.0630 O.3    38  TYR38      -0.2866
     64  N         13.7670   27.7220   42.4430 N.am   39  ALA39      -0.1980
     65  CA        13.3680   28.7010   43.4470 C.3    39  ALA39       0.1597
     66  C         12.4470   28.0400   44.4710 C.2    39  ALA39       0.2287
     67  O         12.6900   28.1040   45.6720 O.2    39  ALA39      -0.2864
     68  CB        12.6590   29.8670   42.7750 C.3    39  ALA39       0.0319
     69  N         14.3150   25.1720   46.4600 N.3    42  THR42      -0.1203
     70  CA        15.3700   25.5860   47.3740 C.3    42  THR42       0.1994
     71  C         14.7510   26.2820   48.5850 C.2    42  THR42       0.2617
     72  O         15.2320   26.1480   49.7110 O.2    42  THR42      -0.2717
     73  CB        16.3580   26.5470   46.6830 C.3    42  THR42       0.1784
     74  OG1       16.9770   25.8750   45.5770 O.3    42  THR42      -0.2211
     75  CG2       17.4380   27.0080   47.6630 C.3    42  THR42       0.0376
     76  N         13.6700   27.0140   48.3460 N.am   43  LEU43      -0.1979
     77  CA        12.9870   27.7330   49.4120 C.3    43  LEU43       0.1596
     78  C         12.3940   26.7770   50.4500 C.2    43  LEU43       0.2287
     79  O         12.3720   27.0840   51.6400 O.2    43  LEU43      -0.2864
     80  CB        11.8810   28.6090   48.8180 C.3    43  LEU43       0.0297
     81  CG        11.2910   29.7000   49.7160 C.3    43  LEU43       0.0022
     82  CD1       12.3620   30.7540   50.0150 C.3    43  LEU43       0.0001
     83  CD2       10.0880   30.3390   49.0210 C.3    43  LEU43       0.0001
     84  N         14.9290   25.6820   52.9870 N.3    46  ALA46      -0.1245
     85  CA        15.4660   26.8780   53.6420 C.3    46  ALA46       0.1562
     86  C         14.5090   27.2580   54.7790 C.2    46  ALA46       0.2260
     87  O         14.9290   27.5780   55.8880 O.2    46  ALA46      -0.2867
     88  CB        15.5810   28.0190   52.6410 C.3    46  ALA46       0.0290
     89  N         14.6640   24.6540   57.4490 N.3    49  PHE49      -0.1227
     90  CA        15.8870   24.8850   58.2050 C.3    49  PHE49       0.1736
     91  C         15.6280   25.8860   59.3330 C.2    49  PHE49       0.2596
     92  O         16.0330   25.6640   60.4690 O.2    49  PHE49      -0.2718
     93  CB        16.9840   25.4440   57.2890 C.3    49  PHE49       0.0547
     94  CG        18.1320   26.0770   58.0340 C.ar   49  PHE49      -0.0202
     95  CD1       19.0720   25.2910   58.6940 C.ar   49  PHE49      -0.0042
     96  CD2       18.2430   27.4640   58.1140 C.ar   49  PHE49      -0.0042
     97  CE1       20.1100   25.8760   59.4310 C.ar   49  PHE49      -0.0003
     98  CE2       19.2800   28.0620   58.8500 C.ar   49  PHE49      -0.0003
     99  CZ        20.2120   27.2650   59.5080 C.ar   49  PHE49      -0.0000
    100  N         14.9610   26.9930   59.0170 N.am   50  THR50      -0.1953
    101  CA        14.6990   28.0060   60.0400 C.3    50  THR50       0.1897
    102  C         13.7920   27.5070   61.1520 C.2    50  THR50       0.2313
    103  O         14.0010   27.8380   62.3170 O.2    50  THR50      -0.2863
    104  CB        14.0600   29.2900   59.4510 C.3    50  THR50       0.1794
    105  OG1       12.7420   28.9940   58.9610 O.3    50  THR50      -0.2208
    106  CG2       14.9190   29.8420   58.3300 C.3    50  THR50       0.0378
@<TRIPOS>BOND
     1    51    50    1
     2    50    49    1
     3    49    48    1
     4    48    47    1
     5    43    44    1
     6    47    44    1
     7    44    45    1
     8    45    46    2
     9    60    58   ar
    10    60    62   ar
    11    58    57   ar
    12    63    62    1
    13    42    41    2
    14    62    61   ar
    15    41    40    1
    16    57    56    1
    17    57    59   ar
    18    52    53    1
    19    40    39    1
    20    61    59   ar
    21    56    53    1
    22    53    54    1
    23    64    54   am
    24    64    65    1
    25    54    55    2
    26    68    65    1
    27    65    66    1
    28    34    33    2
    29    23    22    2
    30    66    67    2
    31    33    32    1
    32    22    21    1
    33    22    31   am
    34    74    73    1
    35    21    24    1
    36    21    20    1
    37    26    28   ar
    38    26    25   ar
    39    32    31    1
    40    32    35    1
    41    28    30   ar
    42    24    25    1
    43    69    70    1
    44    25    27   ar
    45    73    70    1
    46    73    75    1
    47    37    36    1
    48    30    29   ar
    49    36    35    1
    50    36    38    1
    51    70    71    1
    52    27    29   ar
    53    15    14    2
    54    76    71   am
    55    76    77    1
    56    71    72    2
    57    80    77    1
    58    80    81    1
    59    14    13    1
    60    83    81    1
    61     8     7    2
    62    77    78    1
    63    81    82    1
    64     7    12   am
    65     7     6    1
    66    13    12    1
    67    13    16    1
    68    78    79    2
    69     6     5    1
    70     6     9    1
    71    16    17    1
    72    11     9    1
    73    19    17    1
    74     9    10    1
    75    17    18    1
    76    88    85    1
    77    84    85    1
    78    85    86    1
    79     4     3    2
    80     3     2    1
    81    86    87    2
    82     2     1    1
    83    93    94    1
    84    93    90    1
    85    89    90    1
    86    94    96   ar
    87    94    95   ar
    88    96    98   ar
    89    90    91    1
    90   106   104    1
    91    95    97   ar
    92    98    99   ar
    93   105   104    1
    94   100    91   am
    95   100   101    1
    96    91    92    2
    97    97    99   ar
    98   104   101    1
    99   101   102    1
   100   102   103    2
