@<TRIPOS>MOLECULE
tmp/3ns1C01.pdb
 108 100 0 0 0
SMALL
GASTEIGER

@<TRIPOS>ATOM
      1  N         41.1730   12.9330   24.9990 N.3   232  GLU232     -0.1196
      2  CA        41.7390   14.2160   24.5540 C.3   232  GLU232      0.1783
      3  C         42.0340   15.1010   25.7820 C.2   232  GLU232      0.2306
      4  O         42.9650   15.9130   25.7680 O.2   232  GLU232     -0.2863
      5  CB        40.8430   14.9090   23.4740 C.2   232  GLU232      0.0071
      6  CG        41.1710   16.4100   23.1630 C.2   232  GLU232      0.0834
      7  CD        40.2540   17.1050   22.1270 C.2   232  GLU232      0.3877
      8  OE1       40.3970   18.3340   21.9610 O.co2 232  GLU232     -0.2406
      9  OE2       39.3950   16.4770   21.4490 O.co2 232  GLU232     -0.2406
     10  N         35.8020   21.2270   27.0670 N.3   303  LEU303     -0.1245
     11  CA        35.7250   21.4790   25.6260 C.3   303  LEU303      0.1561
     12  C         34.3430   21.9130   25.1560 C.2   303  LEU303      0.2260
     13  O         34.1450   22.1110   23.9620 O.2   303  LEU303     -0.2867
     14  CB        36.1810   20.2220   24.8650 C.3   303  LEU303      0.0270
     15  CG        37.7050   20.0190   24.8570 C.3   303  LEU303      0.0019
     16  CD1       38.0290   18.5970   24.4120 C.3   303  LEU303      0.0001
     17  CD2       38.4720   21.1120   24.0250 C.3   303  LEU303      0.0001
     18  N         33.8520   24.9640   22.4960 N.3   306  SER306     -0.1217
     19  CA        34.1970   24.5630   21.1300 C.3   306  SER306      0.1889
     20  C         33.2040   23.5760   20.5180 C.2   306  SER306      0.2288
     21  O         33.0140   23.5890   19.2970 O.2   306  SER306     -0.2866
     22  CB        35.5930   23.9460   21.0820 C.3   306  SER306      0.2089
     23  OG        36.5730   24.9150   21.3830 O.3   306  SER306     -0.2183
     24  N         31.1330   24.1430   16.9330 N.3   310  ARG310     -0.1245
     25  CA        30.9760   23.2020   15.8150 C.3   310  ARG310      0.1563
     26  C         29.5140   22.8220   15.5090 C.2   310  ARG310      0.2260
     27  O         29.1660   22.6500   14.3110 O.2   310  ARG310     -0.2867
     28  CB        31.8550   21.9560   15.9380 C.3   310  ARG310      0.0307
     29  CG        31.6410   20.9470   14.8150 C.3   310  ARG310      0.0489
     30  CD        32.6310   19.7930   14.8440 C.3   310  ARG310      0.2205
     31  NE        33.9570   20.2910   14.5360 N.pl3 310  ARG310     -0.0865
     32  CZ        34.4940   20.3090   13.3160 C.cat 310  ARG310      0.5346
     33  NH1       33.8230   19.8290   12.2650 N.pl3 310  ARG310      0.1354
     34  NH2       35.7040   20.8240   13.1630 N.pl3 310  ARG310      0.1354
     35  N         34.8930   15.8870   24.5620 N.3   340  ALA340     -0.1245
     36  CA        34.9250   15.4370   23.1380 C.3   340  ALA340      0.1562
     37  C         34.4180   14.0090   22.9380 C.2   340  ALA340      0.2260
     38  O         34.7220   13.1150   23.7300 O.2   340  ALA340     -0.2867
     39  CB        36.3070   15.5550   22.5560 C.3   340  ALA340      0.0290
     40  N         31.7690   15.8060   17.7730 N.3   344  PHE344     -0.1241
     41  CA        32.1080   17.0490   18.4830 C.3   344  PHE344      0.1605
     42  C         31.0150   18.1330   18.2970 C.2   344  PHE344      0.2264
     43  O         31.2750   19.2410   17.7630 O.2   344  PHE344     -0.2867
     44  CB        33.4860   17.5480   17.9800 C.3   344  PHE344      0.0534
     45  CG        34.2440   18.4220   18.9480 C.ar  344  PHE344     -0.0203
     46  CD1       34.9900   17.8720   19.9610 C.ar  344  PHE344     -0.0042
     47  CD2       34.2480   19.7950   18.7900 C.ar  344  PHE344     -0.0042
     48  CE1       35.6920   18.6570   20.8430 C.ar  344  PHE344     -0.0003
     49  CE2       34.9710   20.6250   19.6480 C.ar  344  PHE344     -0.0003
     50  CZ        35.7120   20.0440   20.6860 C.ar  344  PHE344     -0.0000
     51  N         39.0610   20.9310   10.2030 N.3   438  SER438     -0.1202
     52  CA        39.9270   21.8800   10.9520 C.3   438  SER438      0.2020
     53  C         39.4820   22.0230   12.3910 C.2   438  SER438      0.2619
     54  O         38.2820   21.9210   12.6590 O.2   438  SER438     -0.2717
     55  CB        39.9030   23.2890   10.3480 C.3   438  SER438      0.2103
     56  OG        40.7910   23.3270    9.2310 O.3   438  SER438     -0.2182
     57  N         40.4010   22.2940   13.3210 N.am  439  PHE439     -0.1961
     58  CA        39.9820   22.7450   14.6690 C.3   439  PHE439      0.1771
     59  C         39.3420   24.1270   14.5310 C.2   439  PHE439      0.2620
     60  O         39.8830   24.9790   13.8140 O.2   439  PHE439     -0.2715
     61  CB        41.1890   22.8910   15.5960 C.3   439  PHE439      0.0574
     62  CG        41.8360   21.5830   16.0080 C.ar  439  PHE439     -0.0200
     63  CD1       42.9490   21.0980   15.3190 C.ar  439  PHE439     -0.0042
     64  CD2       41.3760   20.8880   17.1370 C.ar  439  PHE439     -0.0042
     65  CE1       43.5880   19.9230   15.7140 C.ar  439  PHE439     -0.0003
     66  CE2       41.9920   19.7250   17.5480 C.ar  439  PHE439     -0.0003
     67  CZ        43.1110   19.2240   16.8300 C.ar  439  PHE439     -0.0000
     68  N         38.2080   24.3710   15.1890 N.am  440  THR440     -0.1937
     69  CA        37.6000   25.7070   15.1610 C.3   440  THR440      0.2028
     70  C         38.4300   26.7370   15.9300 C.2   440  THR440      0.2642
     71  O         38.1790   27.9180   15.7980 O.2   440  THR440     -0.2714
     72  CB        36.1260   25.7410   15.6930 C.3   440  THR440      0.1808
     73  OG1       36.0860   25.4380   17.0940 O.3   440  THR440     -0.2208
     74  CG2       35.2270   24.7810   14.9310 C.3   440  THR440      0.0379
     75  N         39.3780   26.2800   16.7670 N.am  441  VAL441     -0.1977
     76  CA        40.4130   27.1270   17.3920 C.3   441  VAL441      0.1596
     77  C         41.6730   27.2420   16.4580 C.2   441  VAL441      0.2287
     78  O         42.3960   26.2570   16.2770 O.2   441  VAL441     -0.2864
     79  CB        40.8150   26.5810   18.7870 C.3   441  VAL441      0.0276
     80  CG1       41.9690   27.4080   19.3960 C.3   441  VAL441      0.0022
     81  CG2       39.6310   26.5570   19.7410 C.3   441  VAL441      0.0022
     82  N         45.4780   25.5000   16.9980 N.3   444  LEU444     -0.1245
     83  CA        45.7170   24.0710   17.1060 C.3   444  LEU444      0.1561
     84  C         46.1010   23.5070   15.7310 C.2   444  LEU444      0.2260
     85  O         46.6630   22.4220   15.6530 O.2   444  LEU444     -0.2867
     86  CB        44.5410   23.3040   17.7570 C.3   444  LEU444      0.0270
     87  CG        44.2000   23.6710   19.2480 C.3   444  LEU444      0.0019
     88  CD1       42.8070   23.3180   19.7330 C.3   444  LEU444      0.0001
     89  CD2       45.2640   23.2550   20.3090 C.3   444  LEU444      0.0001
     90  N         43.1300   14.8250   17.0910 N.3   508  ALA508     -0.1231
     91  CA        41.6850   15.0410   17.0220 C.3   508  ALA508      0.1694
     92  C         41.2130   15.8490   15.7930 C.2   508  ALA508      0.2591
     93  O         42.0290   16.3010   14.9520 O.2   508  ALA508     -0.2718
     94  CB        41.1840   15.7210   18.3470 C.3   508  ALA508      0.0304
     95  N         39.8880   16.0340   15.7020 N.am  509  ALA509     -0.1980
     96  CA        39.2310   16.8190   14.6240 C.3   509  ALA509      0.1597
     97  C         39.4100   16.2160   13.1940 C.2   509  ALA509      0.2287
     98  O         39.1070   16.8880   12.1560 O.2   509  ALA509     -0.2864
     99  CB        39.6160   18.3100   14.6750 C.3   509  ALA509      0.0319
    100  N         35.6200   11.4460   11.5220 N.3   691  GLU691     -0.1245
    101  CA        34.3220   11.8560   12.0860 C.3   691  GLU691      0.1567
    102  C         33.1520   12.0380   11.0790 C.2   691  GLU691      0.2260
    103  O         31.9990   11.7060   11.4020 O.2   691  GLU691     -0.2867
    104  CB        34.4580   13.1290   12.9370 C.3   691  GLU691      0.0388
    105  CG        35.4290   13.0830   14.0990 C.3   691  GLU691      0.1160
    106  CD        35.7460   14.4810   14.6070 C.2   691  GLU691      0.3649
    107  OE1       36.4830   15.2050   13.8840 O.co2 691  GLU691     -0.2457
    108  OE2       35.2390   14.8870   15.7040 O.co2 691  GLU691     -0.2457
@<TRIPOS>BOND
     1    56    55    1
     2    51    52    1
     3    55    52    1
     4    52    53    1
     5   102   103    2
     6   102   101    1
     7   100   101    1
     8   101   104    1
     9    98    97    2
    10    33    32    1
    11    53    54    2
    12    53    57   am
    13   104   105    1
    14    34    32    1
    15    97    96    1
    16    32    31    2
    17    57    58    1
    18    60    59    2
    19   107   106   ar
    20   105   106    1
    21    27    26    2
    22    59    58    1
    23    59    68   am
    24    31    30    1
    25   106   108   ar
    26    96    99    1
    27    96    95    1
    28    58    61    1
    29    29    30    1
    30    29    28    1
    31    74    72    1
    32    93    92    2
    33    69    68    1
    34    69    72    1
    35    69    70    1
    36    63    65   ar
    37    63    62   ar
    38    26    25    1
    39    61    62    1
    40    85    84    2
    41    72    73    1
    42    95    92   am
    43    65    67   ar
    44    84    83    1
    45    92    91    1
    46    71    70    2
    47    25    28    1
    48    25    24    1
    49    70    75   am
    50    62    64   ar
    51    78    77    2
    52    77    76    1
    53    75    76    1
    54    67    66   ar
    55    82    83    1
    56    91    90    1
    57    91    94    1
    58    83    86    1
    59    64    66   ar
    60    76    79    1
    61    86    87    1
    62    43    42    2
    63    40    41    1
    64    44    41    1
    65    44    45    1
    66    42    41    1
    67    79    80    1
    68    79    81    1
    69    47    45   ar
    70    47    49   ar
    71    45    46   ar
    72    87    88    1
    73    87    89    1
    74    21    20    2
    75    49    50   ar
    76    46    48   ar
    77    20    19    1
    78    50    48   ar
    79    22    19    1
    80    22    23    1
    81    19    18    1
    82     9     7   ar
    83     8     7   ar
    84     7     6    1
    85    39    36    1
    86    37    36    1
    87    37    38    2
    88    36    35    1
    89     6     5    2
    90     5     2    1
    91    13    12    2
    92    17    15    1
    93    16    15    1
    94     2     1    1
    95     2     3    1
    96    15    14    1
    97    14    11    1
    98    12    11    1
    99    11    10    1
   100     4     3    2
