@<TRIPOS>MOLECULE
tmp/3ns7B00.pdb
 93 92 0 0 0
SMALL
GASTEIGER

@<TRIPOS>ATOM
      1  N         35.0460   12.5320   41.8640 N.3    16  SER16      -0.1217
      2  CA        34.2320   12.1810   43.0200 C.3    16  SER16       0.1889
      3  C         34.8090   12.4820   44.4200 C.2    16  SER16       0.2288
      4  O         34.0960   12.9210   45.3170 O.2    16  SER16      -0.2866
      5  CB        33.7940   10.7270   42.7850 C.3    16  SER16       0.2089
      6  OG        34.8710    9.9450   42.2160 O.3    16  SER16      -0.2183
      7  N         38.3520    8.0710   49.3100 N.3    22  VAL22      -0.1231
      8  CA        37.4280    7.1680   48.6160 C.3    22  VAL22       0.1692
      9  C         36.0740    7.7090   48.0960 C.2    22  VAL22       0.2593
     10  O         35.4600    8.6580   48.5670 O.2    22  VAL22      -0.2718
     11  CB        37.2960    5.9160   49.5140 C.3    22  VAL22       0.0266
     12  CG1       36.3980    6.1860   50.7200 C.3    22  VAL22       0.0020
     13  CG2       36.9380    4.6250   48.7750 C.3    22  VAL22       0.0020
     14  N         35.5690    7.0160   47.0710 N.am   23  SER23      -0.1938
     15  CA        34.2310    7.3700   46.6020 C.3    23  SER23       0.2055
     16  C         33.1520    6.3210   46.8660 C.2    23  SER23       0.2643
     17  O         33.2710    5.1290   46.6010 O.2    23  SER23      -0.2714
     18  CB        34.2740    7.7600   45.1220 C.3    23  SER23       0.2130
     19  OG        34.9060    9.0460   44.9470 O.3    23  SER23      -0.2179
     20  N         32.0340    6.8100   47.4140 N.am   24  TRP24      -0.1959
     21  CA        30.9360    5.9040   47.7070 C.3    24  TRP24       0.1771
     22  C         29.9570    5.7390   46.5540 C.2    24  TRP24       0.2620
     23  O         29.7850    6.6080   45.7110 O.2    24  TRP24      -0.2715
     24  CB        30.2290    6.3280   48.9990 C.3    24  TRP24       0.0590
     25  CG        31.2380    6.5630   50.0990 C.ar   24  TRP24       0.0006
     26  CD1       31.7660    7.7980   50.5050 C.ar   24  TRP24       0.0946
     27  CD2       31.8760    5.5880   50.9470 C.ar   24  TRP24       0.0152
     28  NE1       32.6600    7.6550   51.5200 N.ar   24  TRP24      -0.2442
     29  CE2       32.7600    6.3030   51.8260 C.ar   24  TRP24       0.0810
     30  CE3       31.7810    4.1830   51.0330 C.ar   24  TRP24       0.0012
     31  CZ2       33.5300    5.5970   52.7730 C.ar   24  TRP24       0.0191
     32  CZ3       32.5580    3.4910   51.9860 C.ar   24  TRP24       0.0001
     33  CH2       33.4270    4.1930   52.8490 C.ar   24  TRP24       0.0015
     34  N         29.3620    4.5450   46.5950 N.am   25  ARG25      -0.1963
     35  CA        28.4410    4.0520   45.5830 C.3    25  ARG25       0.1729
     36  C         27.5250    3.0090   46.2120 C.2    25  ARG25       0.2616
     37  O         27.9190    1.8900   46.5480 O.2    25  ARG25      -0.2715
     38  CB        29.2550    3.4330   44.4500 C.3    25  ARG25       0.0348
     39  CG        28.4470    3.0770   43.2030 C.3    25  ARG25       0.0492
     40  CD        29.2050    2.1370   42.2690 C.3    25  ARG25       0.2205
     41  NE        29.2410    0.7950   42.8480 N.pl3  25  ARG25      -0.0865
     42  CZ        30.3630    0.2780   43.3890 C.cat  25  ARG25       0.5346
     43  NH1       31.5230    0.9200   43.3130 N.pl3  25  ARG25       0.1354
     44  NH2       30.3130   -0.9000   44.0110 N.pl3  25  ARG25       0.1354
     45  N         26.2860    3.4390   46.4320 N.am   26  HIS26      -0.1960
     46  CA        25.2990    2.5380   47.0270 C.3    26  HIS26       0.1772
     47  C         24.6340    1.6080   46.0130 C.2    26  HIS26       0.2462
     48  O         23.9950    2.0120   45.0540 O.2    26  HIS26      -0.2730
     49  CB        24.2930    3.3800   47.8490 C.3    26  HIS26       0.0785
     50  CG        23.0490    2.6490   48.3480 C.ar   26  HIS26       0.0821
     51  ND1       21.8850    3.2810   48.5970 N.ar   26  HIS26      -0.2267
     52  CD2       22.8440    1.2880   48.6080 C.ar   26  HIS26       0.1154
     53  CE1       20.9650    2.3450   48.9900 C.ar   26  HIS26       0.1986
     54  NE2       21.5610    1.1120   48.9940 N.ar   26  HIS26      -0.2212
     55  N         24.7710    0.2840   46.3200 N.am   27  PRO27      -0.2727
     56  CA        24.0020   -0.7790   45.6550 C.3    27  PRO27       0.1402
     57  C         22.7180   -0.4310   44.9000 C.2    27  PRO27       0.2269
     58  O         22.7200   -0.5090   43.6850 O.2    27  PRO27      -0.2865
     59  CB        23.8760   -1.8130   46.7770 C.3    27  PRO27       0.0296
     60  CG        25.2480   -1.7500   47.4510 C.3    27  PRO27       0.0237
     61  CD        25.6260   -0.2720   47.3710 C.3    27  PRO27       0.0939
     62  N         26.1150    5.7550   42.5590 N.3    31  SER31      -0.1202
     63  CA        27.0950    6.6050   43.2020 C.3    31  SER31       0.2020
     64  C         26.5540    7.8780   43.8240 C.2    31  SER31       0.2618
     65  O         26.0300    8.7760   43.1860 O.2    31  SER31      -0.2717
     66  CB        28.1540    6.9620   42.1780 C.3    31  SER31       0.2103
     67  OG        28.7560    5.7670   41.6500 O.3    31  SER31      -0.2182
     68  N         26.8310    8.0260   45.1320 N.am   32  VAL32      -0.1979
     69  CA        26.3500    9.2820   45.7390 C.3    32  VAL32       0.1595
     70  C         26.9100   10.5680   45.0990 C.2    32  VAL32       0.2287
     71  O         26.2560   11.5970   44.9940 O.2    32  VAL32      -0.2864
     72  CB        26.3960    9.2170   47.2910 C.3    32  VAL32       0.0276
     73  CG1       27.5850    8.4320   47.8320 C.3    32  VAL32       0.0022
     74  CG2       26.2370   10.5720   47.9850 C.3    32  VAL32       0.0022
     75  N         28.6570   13.2010   56.5760 N.3    65  ASP65      -0.1239
     76  CA        27.8300   12.0640   56.9570 C.3    65  ASP65       0.1674
     77  C         28.6830   10.8350   57.2630 C.2    65  ASP65       0.2266
     78  O         29.9120   10.8560   57.3190 O.2    65  ASP65      -0.2867
     79  CB        26.7570   11.7930   55.8770 C.3    65  ASP65       0.1410
     80  CG        27.3330   11.0920   54.6440 C.2    65  ASP65       0.3668
     81  OD1       28.0910   11.6950   53.8960 O.co2  65  ASP65      -0.2456
     82  OD2       27.0480    9.9150   54.4350 O.co2  65  ASP65      -0.2456
     83  N         29.3200    8.4120   55.4090 N.3    67  ARG67      -0.1245
     84  CA        30.1250    8.0280   54.2520 C.3    67  ARG67       0.1563
     85  C         30.5670    9.2100   53.4080 C.2    67  ARG67       0.2260
     86  O         30.1210    9.5090   52.2950 O.2    67  ARG67      -0.2867
     87  CB        29.4230    6.9070   53.4950 C.3    67  ARG67       0.0307
     88  CG        29.8270    5.5730   54.1340 C.3    67  ARG67       0.0489
     89  CD        28.9010    4.4190   53.7750 C.3    67  ARG67       0.2205
     90  NE        29.4360    3.1320   54.2210 N.pl3  67  ARG67      -0.0865
     91  CZ        28.5900    2.1640   54.6470 C.cat  67  ARG67       0.5346
     92  NH1       29.0880    1.0020   55.0550 N.pl3  67  ARG67       0.1354
     93  NH2       27.2720    2.3680   54.6570 N.pl3  67  ARG67       0.1354
@<TRIPOS>BOND
     1    67    66    1
     2     1     2    1
     3    66    63    1
     4     6     5    1
     5    40    41    1
     6    40    39    1
     7    62    63    1
     8     5     2    1
     9    41    42    2
    10     2     3    1
    11    65    64    2
    12    63    64    1
    13    39    38    1
    14    43    42    1
    15    42    44    1
    16    58    57    2
    17    64    68   am
    18     3     4    2
    19    38    35    1
    20    57    56    1
    21    19    18    1
    22    71    70    2
    23    48    47    2
    24    70    69    1
    25    18    15    1
    26    68    69    1
    27    35    36    1
    28    35    34    1
    29    56    55    1
    30    56    59    1
    31    23    22    2
    32    69    72    1
    33    47    55   am
    34    47    46    1
    35    36    45   am
    36    36    37    2
    37    55    61    1
    38    45    46    1
    39    22    34   am
    40    22    21    1
    41    17    16    2
    42    15    16    1
    43    15    14    1
    44    59    60    1
    45    16    20   am
    46    46    49    1
    47    14     9   am
    48    72    73    1
    49    72    74    1
    50    61    60    1
    51    20    21    1
    52    21    24    1
    53    49    50    1
    54     9    10    2
    55     9     8    1
    56    50    51   ar
    57    50    52   ar
    58    51    53   ar
    59    52    54   ar
    60     8     7    1
    61     8    11    1
    62    13    11    1
    63    53    54   ar
    64    24    25    1
    65    11    12    1
    66    25    26   ar
    67    25    27   ar
    68    26    28   ar
    69    27    30   ar
    70    27    29   ar
    71    30    32   ar
    72    28    29   ar
    73    29    31   ar
    74    32    33   ar
    75    86    85    2
    76    31    33   ar
    77    85    84    1
    78    87    88    1
    79    87    84    1
    80    89    88    1
    81    89    90    1
    82    81    80   ar
    83    90    91    2
    84    84    83    1
    85    82    80   ar
    86    80    79    1
    87    91    93    1
    88    91    92    1
    89    79    76    1
    90    75    76    1
    91    76    77    1
    92    77    78    2
