@<TRIPOS>MOLECULE
tmp/3ns8B00.pdb
 78 76 0 0 0
SMALL
GASTEIGER

@<TRIPOS>ATOM
      1  N          1.4720   -1.2110   31.7160 N.3    45  PHE45      -0.1227
      2  CA         1.9170   -2.0790   32.8110 C.3    45  PHE45       0.1736
      3  C          3.2410   -2.7060   32.4170 C.2    45  PHE45       0.2595
      4  O          3.3850   -3.2020   31.3020 O.2    45  PHE45      -0.2718
      5  CB         0.8950   -3.1740   33.1030 C.3    45  PHE45       0.0547
      6  CG         1.3740   -4.2110   34.0950 C.ar   45  PHE45      -0.0202
      7  CD1        1.5900   -3.8760   35.4210 C.ar   45  PHE45      -0.0042
      8  CD2        1.6040   -5.5160   33.6890 C.ar   45  PHE45      -0.0042
      9  CE1        2.0350   -4.8250   36.3350 C.ar   45  PHE45      -0.0003
     10  CE2        2.0420   -6.4740   34.5970 C.ar   45  PHE45      -0.0003
     11  CZ         2.2570   -6.1210   35.9220 C.ar   45  PHE45      -0.0000
     12  N          4.2050   -2.6640   33.3280 N.am   46  ALA46      -0.1966
     13  CA         5.5130   -3.2570   33.0740 C.3    46  ALA46       0.1728
     14  C          6.1700   -2.6750   31.8230 C.2    46  ALA46       0.2616
     15  O          6.8880   -3.3740   31.1130 O.2    46  ALA46      -0.2715
     16  CB         5.4020   -4.7780   32.9610 C.3    46  ALA46       0.0334
     17  N          5.9050   -1.4000   31.5470 N.am   47  GLY47      -0.1955
     18  CA         6.5290   -0.7260   30.4250 C.3    47  GLY47       0.1869
     19  C          5.9220   -1.0250   29.0700 C.2    47  GLY47       0.2309
     20  O          6.5340   -0.7600   28.0300 O.2    47  GLY47      -0.2863
     21  N         -0.8520  -11.2130   33.4380 N.3    60  ASN60      -0.1240
     22  CA        -0.3010  -11.5880   34.7390 C.3    60  ASN60       0.1653
     23  C         -0.2540  -10.4200   35.7310 C.2    60  ASN60       0.2266
     24  O          0.6610  -10.3200   36.5530 O.2    60  ASN60      -0.2867
     25  CB         1.0880  -12.2110   34.5810 C.3    60  ASN60       0.1155
     26  CG         1.5370  -12.9620   35.8250 C.2    60  ASN60       0.2627
     27  OD1        2.7250  -12.9890   36.1530 O.2    60  ASN60      -0.2716
     28  ND2        0.5860  -13.5680   36.5260 N.am   60  ASN60      -0.0877
     29  N         -1.3970   -8.7190   38.9920 N.3    62  GLN62      -0.1231
     30  CA        -1.8160   -9.3070   40.2560 C.3    62  GLN62       0.1698
     31  C         -2.1190   -8.2610   41.3190 C.2    62  GLN62       0.2592
     32  O         -2.0180   -7.0600   41.0840 O.2    62  GLN62      -0.2718
     33  CB        -0.7250  -10.2420   40.7690 C.3    62  GLN62       0.0381
     34  CG        -0.3590  -11.3380   39.7910 C.3    62  GLN62       0.0905
     35  CD         1.0430  -11.8510   40.0130 C.2    62  GLN62       0.2608
     36  OE1        1.6370  -11.6260   41.0680 O.2    62  GLN62      -0.2717
     37  NE2        1.5860  -12.5390   39.0180 N.am   62  GLN62      -0.0878
     38  N         -2.4860   -8.7330   42.5020 N.am   63  LYS63      -0.1966
     39  CA        -2.7190   -7.8400   43.6160 C.3    63  LYS63       0.1728
     40  C         -1.5170   -6.9260   43.8070 C.2    63  LYS63       0.2616
     41  O         -0.3590   -7.3660   43.7780 O.2    63  LYS63      -0.2715
     42  CB        -3.0170   -8.6310   44.8940 C.3    63  LYS63       0.0311
     43  CG        -1.8670   -9.4810   45.3900 C.3    63  LYS63       0.0038
     44  CD        -2.2560  -10.2130   46.6720 C.3    63  LYS63       0.0206
     45  CE        -1.0660  -10.9400   47.2760 C.3    63  LYS63       0.1093
     46  NZ         0.0700  -10.0070   47.5210 N.3    63  LYS63      -0.1314
     47  N         -1.8120   -5.6420   43.9770 N.am   64  GLU64      -0.1963
     48  CA        -0.8110   -4.6200   44.2400 C.3    64  GLU64       0.1733
     49  C          0.0540   -4.2500   43.0370 C.2    64  GLU64       0.2617
     50  O          1.0250   -3.5200   43.1900 O.2    64  GLU64      -0.2715
     51  CB         0.0680   -5.0080   45.4330 C.3    64  GLU64       0.0429
     52  CG        -0.7220   -5.2820   46.7080 C.3    64  GLU64       0.1163
     53  CD         0.1640   -5.7760   47.8460 C.2    64  GLU64       0.3649
     54  OE1        1.3620   -5.4180   47.8690 O.co2  64  GLU64      -0.2457
     55  OE2       -0.3400   -6.5170   48.7200 O.co2  64  GLU64      -0.2457
     56  N         -0.2910   -4.7500   41.8500 N.am   65  SER65      -0.1936
     57  CA         0.3630   -4.2910   40.6250 C.3    65  SER65       0.2055
     58  C          0.0140   -2.8250   40.4490 C.2    65  SER65       0.2643
     59  O         -1.0310   -2.3740   40.9140 O.2    65  SER65      -0.2714
     60  CB        -0.1150   -5.0780   39.3920 C.3    65  SER65       0.2130
     61  OG         0.4260   -6.3870   39.3570 O.3    65  SER65      -0.2179
     62  N          0.8810   -2.0930   39.7630 N.am   66  THR66      -0.1950
     63  CA         0.6280   -0.6930   39.4780 C.3    66  THR66       0.1897
     64  C          0.5060   -0.4760   37.9650 C.2    66  THR66       0.2313
     65  O          1.3980   -0.8430   37.1890 O.2    66  THR66      -0.2863
     66  CB         1.7250    0.2180   40.0760 C.3    66  THR66       0.1794
     67  OG1        1.7870    0.0380   41.5000 O.3    66  THR66      -0.2208
     68  CG2        1.4160    1.6670   39.7790 C.3    66  THR66       0.0378
     69  N         -0.0590    2.3810   34.8650 N.3    68  HIS68      -0.1241
     70  CA         0.2090    3.7890   34.6310 C.3    68  HIS68       0.1621
     71  C         -0.7950    4.3490   33.6370 C.2    68  HIS68       0.2264
     72  O         -0.9440    3.8180   32.5440 O.2    68  HIS68      -0.2867
     73  CB         1.6350    3.9790   34.1240 C.3    68  HIS68       0.0745
     74  CG         2.6770    3.7060   35.1640 C.ar   68  HIS68       0.0817
     75  ND1        3.3510    4.7110   35.8210 N.ar   68  HIS68      -0.2268
     76  CD2        3.1500    2.5410   35.6670 C.ar   68  HIS68       0.1154
     77  CE1        4.1980    4.1770   36.6840 C.ar   68  HIS68       0.1986
     78  NE2        4.1010    2.8640   36.6060 N.ar   68  HIS68      -0.2212
@<TRIPOS>BOND
     1    20    19    2
     2    19    18    1
     3    18    17    1
     4    15    14    2
     5     4     3    2
     6    17    14   am
     7     1     2    1
     8    14    13    1
     9     3     2    1
    10     3    12   am
    11    72    71    2
    12     2     5    1
    13    16    13    1
    14    13    12    1
    15     5     6    1
    16    21    22    1
    17    71    70    1
    18     8     6   ar
    19     8    10   ar
    20     6     7   ar
    21    73    70    1
    22    73    74    1
    23    25    22    1
    24    25    26    1
    25    10    11   ar
    26    70    69    1
    27    22    23    1
    28    74    76   ar
    29    74    75   ar
    30     7     9   ar
    31    76    78   ar
    32    23    24    2
    33    75    77   ar
    34    26    27    2
    35    26    28   am
    36    11     9   ar
    37    78    77   ar
    38    65    64    2
    39    64    63    1
    40    29    30    1
    41    37    35   am
    42    61    60    1
    43    60    57    1
    44    63    62    1
    45    63    66    1
    46    62    58   am
    47    68    66    1
    48    34    35    1
    49    34    33    1
    50    35    36    2
    51    66    67    1
    52    30    33    1
    53    30    31    1
    54    58    57    1
    55    58    59    2
    56    57    56    1
    57    32    31    2
    58    31    38   am
    59    56    49   am
    60    38    39    1
    61    49    50    2
    62    49    48    1
    63    39    40    1
    64    39    42    1
    65    41    40    2
    66    40    47   am
    67    47    48    1
    68    48    51    1
    69    42    43    1
    70    43    44    1
    71    51    52    1
    72    44    45    1
    73    52    53    1
    74    45    46    1
    75    53    54   ar
    76    53    55   ar
