@<TRIPOS>MOLECULE
tmp/3ns9A00.pdb
 191 184 0 0 0
SMALL
GASTEIGER

@<TRIPOS>ATOM
      1  N         -0.1410  -11.2880  -38.7200 N.3     6  GLU6       -0.1231
      2  CA         0.2000  -12.4900  -37.9430 C.3     6  GLU6        0.1699
      3  C         -0.4570  -12.5520  -36.5810 C.2     6  GLU6        0.2592
      4  O         -0.8760  -11.5210  -36.0130 O.2     6  GLU6       -0.2718
      5  CB         1.7070  -12.6460  -37.7670 C.3     6  GLU6        0.0402
      6  CG         2.3790  -11.4670  -37.0440 C.3     6  GLU6        0.1161
      7  CD         3.7840  -11.8000  -36.5470 C.2     6  GLU6        0.3649
      8  OE1        4.0710  -12.9800  -36.2500 O.co2   6  GLU6       -0.2457
      9  OE2        4.6050  -10.8560  -36.4470 O.co2   6  GLU6       -0.2457
     10  N         -0.5420  -13.7550  -36.0470 N.am    7  LYS7       -0.1966
     11  CA        -1.0500  -13.8790  -34.7010 C.3     7  LYS7        0.1728
     12  C          0.0280  -13.3800  -33.7440 C.2     7  LYS7        0.2616
     13  O          1.2120  -13.7260  -33.8760 O.2     7  LYS7       -0.2715
     14  CB        -1.5140  -15.3010  -34.3960 C.3     7  LYS7        0.0311
     15  CG        -1.7660  -15.5420  -32.9400 C.3     7  LYS7        0.0038
     16  CD        -2.4680  -16.8690  -32.6660 C.3     7  LYS7        0.0206
     17  CE        -3.9520  -16.6800  -32.7960 C.3     7  LYS7        0.1093
     18  NZ        -4.7430  -17.7810  -32.1350 N.3     7  LYS7       -0.1314
     19  N         -0.3620  -12.4560  -32.8650 N.am    8  ILE8       -0.1963
     20  CA         0.5700  -11.9580  -31.8180 C.3     8  ILE8        0.1727
     21  C          0.5350  -12.8640  -30.5770 C.2     8  ILE8        0.2617
     22  O          1.5820  -13.1760  -29.9900 O.2     8  ILE8       -0.2715
     23  CB         0.2900  -10.4920  -31.3930 C.3     8  ILE8        0.0290
     24  CG1        0.7580   -9.4870  -32.4520 C.3     8  ILE8        0.0022
     25  CG2        0.9730  -10.1900  -30.0630 C.3     8  ILE8        0.0023
     26  CD1        0.2200   -8.0450  -32.2380 C.3     8  ILE8        0.0001
     27  N         -0.6670  -13.2620  -30.1390 N.am    9  GLY9       -0.1940
     28  CA        -0.7950  -14.1550  -29.0000 C.3     9  GLY9        0.2014
     29  C         -2.2510  -14.1950  -28.5540 C.2     9  GLY9        0.2639
     30  O         -3.1140  -13.5910  -29.1860 O.2     9  GLY9       -0.2714
     31  N         -2.5220  -14.9140  -27.4710 N.am   10  GLU10      -0.1963
     32  CA        -3.8590  -14.9840  -26.8520 C.3    10  GLU10       0.1733
     33  C         -3.7880  -14.1700  -25.5940 C.2    10  GLU10       0.2617
     34  O         -2.9270  -14.4110  -24.7520 O.2    10  GLU10      -0.2715
     35  CB        -4.2050  -16.4420  -26.5240 C.3    10  GLU10       0.0429
     36  CG        -4.9260  -17.1510  -27.6650 C.3    10  GLU10       0.1163
     37  CD        -4.5600  -18.6480  -27.8120 C.2    10  GLU10       0.3649
     38  OE1       -3.9310  -19.2390  -26.8870 O.co2  10  GLU10      -0.2457
     39  OE2       -4.9230  -19.2310  -28.8630 O.co2  10  GLU10      -0.2457
     40  N         -4.6370  -13.1470  -25.4950 N.am   11  GLY11      -0.1940
     41  CA        -4.6640  -12.2880  -24.3330 C.3    11  GLY11       0.2014
     42  C         -5.6600  -12.8020  -23.2970 C.2    11  GLY11       0.2639
     43  O         -6.3290  -13.8020  -23.5020 O.2    11  GLY11      -0.2714
     44  N         -5.7270  -12.1680  -22.1480 N.am   12  THR12      -0.1950
     45  CA        -6.7470  -12.5640  -21.1500 C.3    12  THR12       0.1897
     46  C         -8.1550  -12.6070  -21.8100 C.2    12  THR12       0.2313
     47  O         -8.8970  -13.5760  -21.6290 O.2    12  THR12      -0.2863
     48  CB        -6.6860  -11.6070  -19.9210 C.3    12  THR12       0.1794
     49  OG1       -5.3510  -11.5830  -19.3870 O.3    12  THR12      -0.2208
     50  CG2       -7.7060  -11.9630  -18.8180 C.3    12  THR12       0.0378
     51  N         -5.1210  -11.5610  -30.2810 N.3    16  VAL16      -0.1245
     52  CA        -4.5480  -10.2630  -30.6310 C.3    16  VAL16       0.1561
     53  C         -3.7600  -10.5370  -31.8920 C.2    16  VAL16       0.2260
     54  O         -3.0710  -11.6030  -32.0120 O.2    16  VAL16      -0.2867
     55  CB        -3.5620   -9.7760  -29.6000 C.3    16  VAL16       0.0252
     56  CG1       -2.9820   -8.4300  -30.0500 C.3    16  VAL16       0.0019
     57  CG2       -4.1810   -9.7130  -28.1850 C.3    16  VAL16       0.0019
     58  N         -2.0250   -3.2320  -33.6340 N.3    29  ALA29      -0.1245
     59  CA        -2.4130   -4.4770  -33.0000 C.3    29  ALA29       0.1562
     60  C         -3.9090   -4.4160  -32.6670 C.2    29  ALA29       0.2260
     61  O         -4.4130   -3.4490  -32.0590 O.2    29  ALA29      -0.2867
     62  CB        -1.5580   -4.7170  -31.7090 C.3    29  ALA29       0.0290
     63  N         -7.1010   -6.2270  -30.9690 N.3    31  LYS31      -0.1245
     64  CA        -7.4650   -7.2430  -29.9900 C.3    31  LYS31       0.1561
     65  C         -8.9910   -7.4990  -30.0600 C.2    31  LYS31       0.2260
     66  O         -9.7970   -6.5410  -29.9540 O.2    31  LYS31      -0.2867
     67  CB        -7.0040   -6.7760  -28.6110 C.3    31  LYS31       0.0271
     68  CG        -7.6290   -7.4710  -27.4100 C.3    31  LYS31       0.0035
     69  CD        -7.1200   -6.8680  -26.1250 C.3    31  LYS31       0.0206
     70  CE        -5.7460   -7.3780  -25.7730 C.3    31  LYS31       0.1093
     71  NZ        -5.8620   -8.7380  -25.1260 N.3    31  LYS31      -0.1314
     72  N          0.4870    2.0110  -23.7360 N.3    55  VAL55      -0.1245
     73  CA         0.2620    1.6340  -25.1300 C.3    55  VAL55       0.1561
     74  C         -0.9600    2.4020  -25.5940 C.2    55  VAL55       0.2260
     75  O         -2.0140    2.3820  -24.8960 O.2    55  VAL55      -0.2867
     76  CB        -0.0050    0.0850  -25.2770 C.3    55  VAL55       0.0252
     77  CG1       -0.2880   -0.3140  -26.7490 C.3    55  VAL55       0.0019
     78  CG2        1.2310   -0.8210  -24.8780 C.3    55  VAL55       0.0019
     79  N         -4.8950   -0.8790  -31.1890 N.3    71  PHE71      -0.1227
     80  CA        -3.8510   -0.3140  -30.3940 C.3    71  PHE71       0.1736
     81  C         -2.6500   -0.0180  -31.2750 C.2    71  PHE71       0.2595
     82  O         -2.4360   -0.6790  -32.2900 O.2    71  PHE71      -0.2718
     83  CB        -3.3760   -1.3810  -29.3920 C.3    71  PHE71       0.0547
     84  CG        -4.2380   -1.5190  -28.1710 C.ar   71  PHE71      -0.0202
     85  CD1       -4.2000   -0.5810  -27.1400 C.ar   71  PHE71      -0.0042
     86  CD2       -5.0990   -2.5870  -28.0630 C.ar   71  PHE71      -0.0042
     87  CE1       -5.0200   -0.7340  -25.9960 C.ar   71  PHE71      -0.0003
     88  CE2       -5.9150   -2.7420  -26.9420 C.ar   71  PHE71      -0.0003
     89  CZ        -5.8610   -1.8310  -25.9140 C.ar   71  PHE71      -0.0000
     90  N         -1.7960    0.9110  -30.8470 N.am   72  GLU72      -0.1965
     91  CA        -0.4420    0.9260  -31.4630 C.3    72  GLU72       0.1733
     92  C          0.2830   -0.4120  -31.2560 C.2    72  GLU72       0.2616
     93  O          0.0580   -1.0950  -30.2910 O.2    72  GLU72      -0.2715
     94  CB         0.4230    2.0700  -31.0110 C.3    72  GLU72       0.0429
     95  CG         0.5010    2.1700  -29.5830 C.3    72  GLU72       0.1163
     96  CD         1.8040    2.7980  -29.0080 C.2    72  GLU72       0.3649
     97  OE1        2.9220    2.8720  -29.5860 O.co2  72  GLU72      -0.2457
     98  OE2        1.6770    3.2280  -27.8990 O.co2  72  GLU72      -0.2457
     99  N          1.1470   -0.7770  -32.1880 N.am   73  PHE73      -0.1960
    100  CA         1.8290   -2.0600  -32.1920 C.3    73  PHE73       0.1771
    101  C          3.2500   -1.8330  -31.6750 C.2    73  PHE73       0.2619
    102  O          3.8870   -0.8770  -32.1000 O.2    73  PHE73      -0.2715
    103  CB         1.9850   -2.5400  -33.6520 C.3    73  PHE73       0.0574
    104  CG         2.8110   -3.7610  -33.8110 C.ar   73  PHE73      -0.0200
    105  CD1        4.1640   -3.6560  -34.3040 C.ar   73  PHE73      -0.0042
    106  CD2        2.2880   -5.0210  -33.4530 C.ar   73  PHE73      -0.0042
    107  CE1        4.9420   -4.7990  -34.4440 C.ar   73  PHE73      -0.0003
    108  CE2        3.0600   -6.1740  -33.6070 C.ar   73  PHE73      -0.0003
    109  CZ         4.4000   -6.0310  -34.1100 C.ar   73  PHE73      -0.0000
    110  N          3.7110   -2.7110  -30.7830 N.am   74  LEU74      -0.1963
    111  CA         5.1170   -2.7360  -30.3530 C.3    74  LEU74       0.1728
    112  C          5.7010   -4.0280  -30.7710 C.2    74  LEU74       0.2616
    113  O          5.0200   -5.0680  -30.7250 O.2    74  LEU74      -0.2715
    114  CB         5.1730   -2.6040  -28.8250 C.3    74  LEU74       0.0311
    115  CG         5.0760   -1.1100  -28.4800 C.3    74  LEU74       0.0022
    116  CD1        3.5930   -0.6760  -28.2870 C.3    74  LEU74       0.0001
    117  CD2        5.9330   -0.6390  -27.2460 C.3    74  LEU74       0.0001
    118  N          6.9970   -4.0170  -31.1320 N.am   75  HIS75      -0.1959
    119  CA         7.5970   -5.2360  -31.6220 C.3    75  HIS75       0.1787
    120  C          8.0320   -6.2880  -30.6240 C.2    75  HIS75       0.2620
    121  O          8.3030   -7.3780  -31.0430 O.2    75  HIS75      -0.2715
    122  CB         8.7730   -4.8960  -32.5450 C.3    75  HIS75       0.0785
    123  CG         8.3720   -4.1660  -33.8010 C.ar   75  HIS75       0.0821
    124  ND1        8.1280   -2.8030  -33.8400 N.ar   75  HIS75      -0.2267
    125  CD2        8.2790   -4.6030  -35.0800 C.ar   75  HIS75       0.1154
    126  CE1        7.8510   -2.4440  -35.0780 C.ar   75  HIS75       0.1986
    127  NE2        7.9530   -3.5150  -35.8530 N.ar   75  HIS75      -0.2212
    128  N          8.0710   -6.0440  -29.3110 N.am   76  GLN76      -0.1963
    129  CA         8.5340   -7.1140  -28.4390 C.3    76  GLN76       0.1733
    130  C          7.8240   -6.9780  -27.0820 C.2    76  GLN76       0.2616
    131  O          7.2820   -5.9260  -26.7910 O.2    76  GLN76      -0.2715
    132  CB        10.0930   -6.9990  -28.2560 C.3    76  GLN76       0.0408
    133  CG        10.7510   -8.1030  -27.2940 C.3    76  GLN76       0.0908
    134  CD        10.5170   -9.5090  -27.7430 C.2    76  GLN76       0.2608
    135  OE1        9.4010   -9.8790  -28.1010 O.2    76  GLN76      -0.2717
    136  NE2       11.5800  -10.3240  -27.7360 N.am   76  GLN76      -0.0878
    137  N          7.7570   -8.0560  -26.3230 N.am   77  ASP77      -0.1971
    138  CA         7.2620   -7.9420  -24.9560 C.3    77  ASP77       0.1709
    139  C          8.3420   -8.3000  -23.9630 C.2    77  ASP77       0.2293
    140  O          9.3940   -8.8730  -24.3120 O.2    77  ASP77      -0.2864
    141  CB         5.9760   -8.7300  -24.7080 C.3    77  ASP77       0.1436
    142  CG         6.1450  -10.1980  -24.9150 C.2    77  ASP77       0.3671
    143  OD1        6.9210  -10.8600  -24.1590 O.co2  77  ASP77      -0.2456
    144  OD2        5.4270  -10.7100  -25.8080 O.co2  77  ASP77      -0.2456
    145  N          9.2920  -12.1460  -23.4340 N.3    80  LYS80      -0.1245
    146  CA        10.1800  -12.6050  -24.4590 C.3    80  LYS80       0.1561
    147  C         11.5470  -12.0400  -24.2940 C.2    80  LYS80       0.2260
    148  O         12.5080  -12.7830  -24.4670 O.2    80  LYS80      -0.2867
    149  CB         9.6270  -12.3580  -25.8720 C.3    80  LYS80       0.0271
    150  CG         8.3620  -13.1480  -26.1750 C.3    80  LYS80       0.0035
    151  CD         7.8930  -12.8650  -27.6460 C.3    80  LYS80       0.0206
    152  CE         6.6170  -13.6060  -28.0160 C.3    80  LYS80       0.1093
    153  NZ         6.8420  -14.3080  -29.3830 N.3    80  LYS80      -0.1314
    154  N          4.0500  -10.2340  -19.6650 N.3   122  GLN122     -0.1231
    155  CA         3.2940  -10.3840  -20.9180 C.3   122  GLN122      0.1698
    156  C          2.6240   -9.1120  -21.3790 C.2   122  GLN122      0.2592
    157  O          2.4260   -8.9250  -22.5860 O.2   122  GLN122     -0.2718
    158  CB         2.2530  -11.5170  -20.8750 C.3   122  GLN122      0.0381
    159  CG         2.8610  -12.8670  -20.5940 C.3   122  GLN122      0.0905
    160  CD         3.0260  -13.2140  -19.0670 C.2   122  GLN122      0.2608
    161  OE1        3.6990  -12.5130  -18.2970 O.2   122  GLN122     -0.2717
    162  NE2        2.3820  -14.3200  -18.6490 N.am  122  GLN122     -0.0878
    163  N          2.2920   -8.2270  -20.4540 N.am  123  ASN123     -0.1974
    164  CA         1.6450   -6.9850  -20.8900 C.3   123  ASN123      0.1688
    165  C          2.4770   -5.7390  -20.7140 C.2   123  ASN123      0.2292
    166  O          1.9470   -4.6560  -20.7580 O.2   123  ASN123     -0.2864
    167  CB         0.1890   -6.8450  -20.3910 C.3   123  ASN123      0.1181
    168  CG         0.0560   -6.9400  -18.9160 C.2   123  ASN123      0.2629
    169  OD1        1.0030   -6.6370  -18.2050 O.2   123  ASN123     -0.2716
    170  ND2       -1.1540   -7.3770  -18.4240 N.am  123  ASN123     -0.0877
    171  N          5.2640   -3.8950  -22.8530 N.3   125  LEU125     -0.1245
    172  CA         5.7330   -4.0540  -24.2590 C.3   125  LEU125      0.1561
    173  C          6.8220   -3.0390  -24.5420 C.2   125  LEU125      0.2260
    174  O          6.8430   -1.9300  -23.9780 O.2   125  LEU125     -0.2867
    175  CB         4.5620   -3.8890  -25.2030 C.3   125  LEU125      0.0270
    176  CG         3.3000   -4.6630  -24.8180 C.3   125  LEU125      0.0019
    177  CD1        2.2240   -4.2500  -25.8480 C.3   125  LEU125      0.0001
    178  CD2        3.5610   -6.1320  -24.9410 C.3   125  LEU125      0.0001
    179  N          0.3700   -2.3720  -21.3000 N.3   135  ALA135     -0.1231
    180  CA        -0.7930   -2.7190  -22.0860 C.3   135  ALA135      0.1694
    181  C         -1.8990   -3.2460  -21.1730 C.2   135  ALA135      0.2592
    182  O         -1.6480   -3.7020  -20.0550 O.2   135  ALA135     -0.2718
    183  CB        -0.4050   -3.8210  -23.0460 C.3   135  ALA135      0.0304
    184  N         -3.1220   -3.2070  -21.6790 N.am  136  ASP136     -0.1974
    185  CA        -4.3250   -3.6770  -20.9300 C.3   136  ASP136      0.1709
    186  C         -4.7320   -2.8210  -19.7380 C.2   136  ASP136      0.2293
    187  O         -5.6000   -3.2330  -18.9060 O.2   136  ASP136     -0.2864
    188  CB        -4.2140   -5.1420  -20.5900 C.3   136  ASP136      0.1436
    189  CG        -4.4680   -6.0500  -21.8510 C.2   136  ASP136      0.3671
    190  OD1       -4.6470   -7.2750  -21.7010 O.co2 136  ASP136     -0.2456
    191  OD2       -4.5430   -5.5180  -22.9970 O.co2 136  ASP136     -0.2456
@<TRIPOS>BOND
     1     1     2    1
     2     2     5    1
     3     2     3    1
     4     5     6    1
     5     6     7    1
     6     3    10   am
     7     3     4    2
     8     7     9   ar
     9     7     8   ar
    10    10    11    1
    11   127   125   ar
    12   127   126   ar
    13   125   123   ar
    14   126   124   ar
    15    11    14    1
    16    11    12    1
    17   107   105   ar
    18   107   109   ar
    19    14    15    1
    20   105   104   ar
    21   109   108   ar
    22    13    12    2
    23   124   123   ar
    24   104   103    1
    25   104   106   ar
    26   123   122    1
    27    12    19   am
    28   103   100    1
    29    58    59    1
    30   108   106   ar
    31    59    60    1
    32    59    62    1
    33    15    16    1
    34    19    20    1
    35    17    16    1
    36    17    18    1
    37    60    61    2
    38   122   119    1
    39    24    26    1
    40    24    23    1
    41    82    81    2
    42   100    99    1
    43   100   101    1
    44    99    92   am
    45   102   101    2
    46    54    53    2
    47    53    52    1
    48    20    23    1
    49    20    21    1
    50   101   110   am
    51   119   118    1
    52   119   120    1
    53    91    92    1
    54    91    94    1
    55    91    90    1
    56    23    25    1
    57    81    90   am
    58    81    80    1
    59    92    93    2
    60    79    80    1
    61   118   112   am
    62   121   120    2
    63    94    95    1
    64    63    64    1
    65   110   111    1
    66   112   113    2
    67   112   111    1
    68    52    51    1
    69    52    55    1
    70   120   128   am
    71    21    27   am
    72    21    22    2
    73    80    83    1
    74   111   114    1
    75    27    28    1
    76    65    64    1
    77    65    66    2
    78    56    55    1
    79    64    67    1
    80    55    57    1
    81    97    96   ar
    82    95    96    1
    83    83    84    1
    84   153   152    1
    85   128   129    1
    86    30    29    2
    87    96    98   ar
    88    28    29    1
    89    39    37   ar
    90   114   115    1
    91    67    68    1
    92    29    31   am
    93   115   116    1
    94   115   117    1
    95   129   132    1
    96   129   130    1
    97   132   133    1
    98    84    86   ar
    99    84    85   ar
   100   135   134    2
   101    86    88   ar
   102   152   151    1
   103    37    36    1
   104    37    38   ar
   105   134   136   am
   106   134   133    1
   107    36    35    1
   108   151   150    1
   109    31    32    1
   110    68    69    1
   111    85    87   ar
   112   130   131    2
   113   130   137   am
   114    88    89   ar
   115    32    35    1
   116    32    33    1
   117    77    76    1
   118   137   138    1
   119   150   149    1
   120    69    70    1
   121    87    89   ar
   122   149   146    1
   123   177   176    1
   124   144   142   ar
   125    70    71    1
   126    33    40   am
   127    33    34    2
   128    74    73    1
   129    74    75    2
   130    40    41    1
   131    76    73    1
   132    76    78    1
   133   175   176    1
   134   175   172    1
   135    73    72    1
   136   138   141    1
   137   138   139    1
   138   178   176    1
   139   142   141    1
   140   142   143   ar
   141   173   172    1
   142   173   174    2
   143   148   147    2
   144   146   147    1
   145   146   145    1
   146    41    42    1
   147   140   139    2
   148   172   171    1
   149    43    42    2
   150    42    44   am
   151   183   180    1
   152   191   189   ar
   153   157   156    2
   154    44    45    1
   155   180   179    1
   156   180   181    1
   157   189   190   ar
   158   189   188    1
   159    46    47    2
   160    46    45    1
   161   184   181   am
   162   184   185    1
   163   156   155    1
   164   156   163   am
   165   181   182    2
   166    45    48    1
   167   185   188    1
   168   185   186    1
   169   155   158    1
   170   155   154    1
   171   164   165    1
   172   164   163    1
   173   164   167    1
   174   158   159    1
   175   166   165    2
   176   159   160    1
   177   167   168    1
   178    48    49    1
   179    48    50    1
   180   186   187    2
   181   160   162   am
   182   160   161    2
   183   168   170   am
   184   168   169    2
