@<TRIPOS>MOLECULE
tmp/3nsnA00.pdb
 215 216 0 0 0
SMALL
GASTEIGER

@<TRIPOS>ATOM
      1  N         50.4350    3.0280   11.5140 N.3   198  ARG198     -0.1245
      2  CA        49.7470    3.9600   12.3600 C.3   198  ARG198      0.1563
      3  C         50.6520    4.6410   13.3700 C.2   198  ARG198      0.2260
      4  O         50.3620    5.6730   13.8000 O.2   198  ARG198     -0.2867
      5  CB        48.4720    3.3610   12.9520 C.3   198  ARG198      0.0307
      6  CG        47.2560    3.5310   12.0660 C.3   198  ARG198      0.0489
      7  CD        47.2860    2.7360   10.7610 C.3   198  ARG198      0.2205
      8  NE        45.9800    2.6460   10.1530 N.pl3 198  ARG198     -0.0865
      9  CZ        45.1140    1.6580   10.3430 C.cat 198  ARG198      0.5346
     10  NH1       45.4240    0.6130   11.0700 N.pl3 198  ARG198      0.1354
     11  NH2       43.9490    1.7130    9.7640 N.pl3 198  ARG198      0.1354
     12  N         49.8600    1.6060    5.6220 N.3   227  ASP227     -0.1239
     13  CA        48.5160    2.1090    5.7400 C.3   227  ASP227      0.1674
     14  C         48.4820    3.5110    5.1870 C.2   227  ASP227      0.2266
     15  O         49.4160    3.9590    4.6390 O.2   227  ASP227     -0.2867
     16  CB        47.9530    2.0480    7.1570 C.3   227  ASP227      0.1410
     17  CG        46.5050    1.6170    7.1980 C.2   227  ASP227      0.3668
     18  OD1       45.6020    2.4120    6.9110 O.co2 227  ASP227     -0.2456
     19  OD2       46.2580    0.5000    7.5860 O.co2 227  ASP227     -0.2456
     20  N         43.1830    1.8510    2.5360 N.3   281  HIS281     -0.1241
     21  CA        44.3120    2.0210    3.4340 C.3   281  HIS281      0.1621
     22  C         45.6510    2.4070    2.8070 C.2   281  HIS281      0.2264
     23  O         46.6420    1.8540    3.0930 O.2   281  HIS281     -0.2867
     24  CB        44.4330    0.8170    4.3220 C.3   281  HIS281      0.0745
     25  CG        43.2720    0.6570    5.2510 C.ar  281  HIS281      0.0817
     26  ND1       43.1330    1.3980    6.3900 N.ar  281  HIS281     -0.2268
     27  CD2       42.1750   -0.1090    5.1770 C.ar  281  HIS281      0.1154
     28  CE1       42.0130    1.0860    6.9850 C.ar  281  HIS281      0.1986
     29  NE2       41.4130    0.1630    6.2700 N.ar  281  HIS281     -0.2212
     30  N         35.9890   13.4050    6.5010 N.3   300  TRP300     -0.1227
     31  CA        36.3980   12.0400    6.4970 C.3   300  TRP300      0.1737
     32  C         35.3100   11.0150    6.7560 C.2   300  TRP300      0.2595
     33  O         35.3280    9.9700    6.1790 O.2   300  TRP300     -0.2718
     34  CB        37.6070   11.8380    7.3970 C.3   300  TRP300      0.0564
     35  CG        37.3810   11.9270    8.8510 C.ar  300  TRP300      0.0003
     36  CD1       37.5980   12.9690    9.6110 C.ar  300  TRP300      0.0946
     37  CD2       36.9320   10.8990    9.7070 C.ar  300  TRP300      0.0152
     38  NE1       37.3160   12.7060   10.8970 N.ar  300  TRP300     -0.2442
     39  CE2       36.9020   11.4180   10.9850 C.ar  300  TRP300      0.0810
     40  CE3       36.5660    9.5730    9.5170 C.ar  300  TRP300      0.0012
     41  CZ2       36.5150   10.6760   12.0570 C.ar  300  TRP300      0.0191
     42  CZ3       36.1660    8.8420   10.5850 C.ar  300  TRP300      0.0001
     43  CH2       36.1310    9.3870   11.8310 C.ar  300  TRP300      0.0015
     44  N         34.3490   11.3430    7.5850 N.am  301  LYS301     -0.1980
     45  CA        33.2670   10.4390    7.8400 C.3   301  LYS301      0.1596
     46  C         32.4660   10.1230    6.6000 C.2   301  LYS301      0.2287
     47  O         31.8510    9.1140    6.5400 O.2   301  LYS301     -0.2864
     48  CB        32.3830   10.9310    8.9430 C.3   301  LYS301      0.0298
     49  CG        32.7810   10.3610   10.2750 C.3   301  LYS301      0.0038
     50  CD        31.8370   10.7900   11.3700 C.3   301  LYS301      0.0206
     51  CE        32.2730   10.3190   12.7030 C.3   301  LYS301      0.1093
     52  NZ        33.0250   11.3300   13.3920 N.3   301  LYS301     -0.1314
     53  N         36.3510    5.3040    7.3500 N.3   305  VAL305     -0.1231
     54  CA        36.0930    5.0830    8.7360 C.3   305  VAL305      0.1692
     55  C         37.1650    5.4980    9.7170 C.2   305  VAL305      0.2592
     56  O         36.9780    5.3570   10.8810 O.2   305  VAL305     -0.2718
     57  CB        35.6160    3.6760    8.9870 C.3   305  VAL305      0.0266
     58  CG1       34.3420    3.5090    8.2940 C.3   305  VAL305      0.0020
     59  CG2       36.5940    2.6810    8.5220 C.3   305  VAL305      0.0020
     60  N         38.2890    5.9770    9.2240 N.am  306  GLU306     -0.1966
     61  CA        39.2490    6.6900   10.0210 C.3   306  GLU306      0.1718
     62  C         40.1210    7.5980    9.1660 C.2   306  GLU306      0.2458
     63  O         40.4430    7.2780    8.0980 O.2   306  GLU306     -0.2730
     64  CB        40.0910    5.7710   10.9520 C.3   306  GLU306      0.0428
     65  CG        41.1980    5.0360   10.2890 C.3   306  GLU306      0.1163
     66  CD        41.8500    3.9960   11.1580 C.2   306  GLU306      0.3649
     67  OE1       42.9110    4.2340   11.7090 O.co2 306  GLU306     -0.2457
     68  OE2       41.3020    2.9220   11.2630 O.co2 306  GLU306     -0.2457
     69  N         40.4930    8.7470    9.6800 N.am  307  PRO307     -0.2727
     70  CA        41.3490    9.6540    8.9430 C.3   307  PRO307      0.1402
     71  C         42.7590    9.1790    8.9860 C.2   307  PRO307      0.2269
     72  O         43.1740    8.6740    9.9660 O.2   307  PRO307     -0.2865
     73  CB        41.1940   10.9470    9.7000 C.3   307  PRO307      0.0296
     74  CG        40.7620   10.5520   11.0120 C.3   307  PRO307      0.0237
     75  CD        40.0510    9.3200   10.9450 C.3   307  PRO307      0.0939
     76  N         40.3490   -4.8630    3.2730 N.3   345  ASP345     -0.1225
     77  CA        39.4290   -4.4190    4.2650 C.3   345  ASP345      0.1805
     78  C         38.8600   -3.0860    3.9210 C.2   345  ASP345      0.2597
     79  O         39.5140   -2.3030    3.3220 O.2   345  ASP345     -0.2718
     80  CB        40.1500   -4.2980    5.5970 C.3   345  ASP345      0.1424
     81  CG        41.5060   -3.7520    5.4540 C.2   345  ASP345      0.3668
     82  OD1       42.0460   -3.7960    4.3820 O.co2 345  ASP345     -0.2456
     83  OD2       42.0750   -3.3640    6.4000 O.co2 345  ASP345     -0.2456
     84  N         37.6030   -2.8840    4.2460 N.am  346  GLU346     -0.1979
     85  CA        36.9480   -1.5900    4.2420 C.3   346  GLU346      0.1602
     86  C         37.0220   -0.7230    2.9890 C.2   346  GLU346      0.2287
     87  O         37.2710    0.4520    3.0840 O.2   346  GLU346     -0.2864
     88  CB        37.3660   -0.7630    5.4760 C.3   346  GLU346      0.0415
     89  CG        37.5130   -1.5620    6.7630 C.3   346  GLU346      0.1163
     90  CD        37.9470   -0.7600    7.9820 C.2   346  GLU346      0.3649
     91  OE1       39.0300   -0.1880    8.0090 O.co2 346  GLU346     -0.2457
     92  OE2       37.2040   -0.7650    8.9270 O.co2 346  GLU346     -0.2457
     93  N         40.9460   -9.9380    4.5800 N.3   402  TRP402     -0.1241
     94  CA        40.0550   -9.7850    5.6970 C.3   402  TRP402      0.1605
     95  C         38.6120  -10.0640    5.3130 C.2   402  TRP402      0.2264
     96  O         38.2580   -9.9830    4.1800 O.2   402  TRP402     -0.2867
     97  CB        40.1130   -8.3640    6.2460 C.3   402  TRP402      0.0550
     98  CG        41.3280   -8.0040    6.9310 C.ar  402  TRP402      0.0003
     99  CD1       42.3230   -7.2600    6.4560 C.ar  402  TRP402      0.0946
    100  CD2       41.6870   -8.3530    8.2390 C.ar  402  TRP402      0.0152
    101  NE1       43.2800   -7.1120    7.3700 N.ar  402  TRP402     -0.2442
    102  CE2       42.9140   -7.7860    8.4880 C.ar  402  TRP402      0.0810
    103  CE3       41.0860   -9.1010    9.2300 C.ar  402  TRP402      0.0012
    104  CZ2       43.5610   -7.9570    9.6760 C.ar  402  TRP402      0.0191
    105  CZ3       41.7070   -9.2370   10.3930 C.ar  402  TRP402      0.0001
    106  CH2       42.9230   -8.6740   10.6210 C.ar  402  TRP402      0.0015
    107  N         37.6450  -10.8310   11.5130 N.3   426  TRP426     -0.1241
    108  CA        37.6530   -9.8190   12.5710 C.3   426  TRP426      0.1605
    109  C         36.2470   -9.4880   13.0740 C.2   426  TRP426      0.2264
    110  O         36.0450   -8.5640   13.7950 O.2   426  TRP426     -0.2867
    111  CB        38.4030   -8.5500   12.1530 C.3   426  TRP426      0.0550
    112  CG        37.7760   -7.8080   11.0420 C.ar  426  TRP426      0.0003
    113  CD1       37.7960   -8.1420    9.7700 C.ar  426  TRP426      0.0946
    114  CD2       37.0390   -6.6020   11.1170 C.ar  426  TRP426      0.0152
    115  NE1       37.1050   -7.2740    9.0310 N.ar  426  TRP426     -0.2442
    116  CE2       36.6250   -6.2990    9.8340 C.ar  426  TRP426      0.0810
    117  CE3       36.6840   -5.7530   12.1450 C.ar  426  TRP426      0.0012
    118  CZ2       35.8830   -5.2020    9.5450 C.ar  426  TRP426      0.0191
    119  CZ3       35.9470   -4.6690   11.8560 C.ar  426  TRP426      0.0001
    120  CH2       35.5500   -4.3960   10.5740 C.ar  426  TRP426      0.0015
    121  N         41.1360   -8.2080   19.6830 N.3   453  TYR453     -0.1241
    122  CA        41.6460   -6.9140   19.3720 C.3   453  TYR453      0.1605
    123  C         42.3060   -6.3060   20.6050 C.2   453  TYR453      0.2264
    124  O         41.6610   -5.8320   21.4800 O.2   453  TYR453     -0.2867
    125  CB        40.5480   -6.0320   18.7920 C.3   453  TYR453      0.0534
    126  CG        40.4360   -6.1330   17.3120 C.ar  453  TYR453     -0.0201
    127  CD1       40.2030   -5.0310   16.5480 C.ar  453  TYR453     -0.0009
    128  CD2       40.6250   -7.3230   16.6750 C.ar  453  TYR453     -0.0009
    129  CE1       40.1130   -5.1120   15.2260 C.ar  453  TYR453      0.0417
    130  CE2       40.5640   -7.4020   15.3600 C.ar  453  TYR453      0.0417
    131  CZ        40.3100   -6.2970   14.6350 C.ar  453  TYR453      0.1957
    132  OH        40.2650   -6.3970   13.3150 O.3   453  TYR453     -0.2866
    133  N         44.1430   -3.6290   20.9630 N.3   455  ASP455     -0.1239
    134  CA        44.0070   -2.2040   21.0060 C.3   455  ASP455      0.1674
    135  C         42.8320   -1.6170   21.7630 C.2   455  ASP455      0.2266
    136  O         42.9120   -0.5240   22.2290 O.2   455  ASP455     -0.2867
    137  CB        44.1090   -1.6100   19.6280 C.3   455  ASP455      0.1410
    138  CG        43.0580   -2.0960   18.7140 C.2   455  ASP455      0.3668
    139  OD1       42.7680   -3.2760   18.6970 O.co2 455  ASP455     -0.2456
    140  OD2       42.5450   -1.2940   18.0100 O.co2 455  ASP455     -0.2456
    141  N         40.7560    8.4420   20.2730 N.3   461  TRP461     -0.1227
    142  CA        41.7680    9.1950   19.5640 C.3   461  TRP461      0.1737
    143  C         41.1900   10.2250   18.5980 C.2   461  TRP461      0.2595
    144  O         41.8790   11.0620   18.1100 O.2   461  TRP461     -0.2718
    145  CB        42.7870    8.3070   18.8960 C.3   461  TRP461      0.0564
    146  CG        42.3430    7.4580   17.7800 C.ar  461  TRP461      0.0003
    147  CD1       41.8260    6.2320   17.8710 C.ar  461  TRP461      0.0946
    148  CD2       42.4490    7.7270   16.4090 C.ar  461  TRP461      0.0152
    149  NE1       41.5690    5.7200   16.6760 N.ar  461  TRP461     -0.2442
    150  CE2       41.9570    6.6120   15.7370 C.ar  461  TRP461      0.0810
    151  CE3       42.9150    8.8030   15.6720 C.ar  461  TRP461      0.0012
    152  CZ2       41.8980    6.5490   14.3850 C.ar  461  TRP461      0.0191
    153  CZ3       42.8850    8.7280   14.3200 C.ar  461  TRP461      0.0001
    154  CH2       42.3840    7.6070   13.6890 C.ar  461  TRP461      0.0015
    155  N         39.9230   10.1110   18.3080 N.am  462  VAL462     -0.1966
    156  CA        39.1930   11.1920   17.6970 C.3   462  VAL462      0.1727
    157  C         38.0470   11.4870   18.6500 C.2   462  VAL462      0.2617
    158  O         37.3820   10.6230   19.0680 O.2   462  VAL462     -0.2715
    159  CB        38.7450   10.9470   16.2460 C.3   462  VAL462      0.0290
    160  CG1       39.8980   10.7090   15.3830 C.3   462  VAL462      0.0023
    161  CG2       37.8260    9.8250   16.1570 C.3   462  VAL462      0.0023
    162  N         37.8630   12.7240   18.9970 N.am  463  GLY463     -0.1940
    163  CA        36.8400   13.0620   19.9490 C.3   463  GLY463      0.2014
    164  C         37.1990   12.6630   21.3560 C.2   463  GLY463      0.2638
    165  O         38.3130   12.5950   21.6780 O.2   463  GLY463     -0.2714
    166  N         36.2170   12.3610   22.1620 N.am  464  ALA464     -0.1977
    167  CA        36.4260   12.0410   23.5450 C.3   464  ALA464      0.1597
    168  C         35.6490   10.8140   23.8180 C.2   464  ALA464      0.2287
    169  O         34.9640   10.3590   22.9860 O.2   464  ALA464     -0.2864
    170  CB        35.9880   13.1160   24.3850 C.3   464  ALA464      0.0319
    171  N         37.8690    4.3400   22.8640 N.3   467  ASN467     -0.1225
    172  CA        38.0330    3.8550   21.4760 C.3   467  ASN467      0.1785
    173  C         36.9380    2.8920   20.9610 C.2   467  ASN467      0.2597
    174  O         36.1570    2.3830   21.7180 O.2   467  ASN467     -0.2718
    175  CB        39.4420    3.3750   21.1560 C.3   467  ASN467      0.1169
    176  CG        39.8380    2.1180   21.8860 C.2   467  ASN467      0.2627
    177  OD1       39.0450    1.2650   22.1600 O.2   467  ASN467     -0.2716
    178  ND2       41.0880    2.0270   22.2000 N.am  467  ASN467     -0.0877
    179  N         36.8940    2.6530   19.6730 N.am  468  TRP468     -0.1976
    180  CA        35.7130    2.0850   19.0450 C.3   468  TRP468      0.1640
    181  C         35.2640    0.7570   19.5440 C.2   468  TRP468      0.2290
    182  O         34.1190    0.5260   19.5850 O.2   468  TRP468     -0.2864
    183  CB        35.8290    2.0140   17.5310 C.3   468  TRP468      0.0576
    184  CG        36.6100    0.8860   17.0550 C.ar  468  TRP468      0.0006
    185  CD1       37.9270    0.8290   16.9640 C.ar  468  TRP468      0.0946
    186  CD2       36.1300   -0.3740   16.6250 C.ar  468  TRP468      0.0152
    187  NE1       38.3240   -0.3530   16.5040 N.ar  468  TRP468     -0.2442
    188  CE2       37.2320   -1.1230   16.2720 C.ar  468  TRP468      0.0810
    189  CE3       34.8740   -0.9400   16.4900 C.ar  468  TRP468      0.0012
    190  CZ2       37.1240   -2.4030   15.7940 C.ar  468  TRP468      0.0191
    191  CZ3       34.7740   -2.2010   16.0100 C.ar  468  TRP468      0.0001
    192  CH2       35.8790   -2.9190   15.6840 C.ar  468  TRP468      0.0015
    193  N         46.4940   -3.0890   16.4410 N.3   502  TRP502     -0.1241
    194  CA        46.4270   -1.9310   15.6060 C.3   502  TRP502      0.1605
    195  C         47.0450   -0.7920   16.4530 C.2   502  TRP502      0.2264
    196  O         46.9660   -0.7960   17.6370 O.2   502  TRP502     -0.2867
    197  CB        45.0090   -1.6640   15.2210 C.3   502  TRP502      0.0550
    198  CG        44.4080   -2.7630   14.4960 C.ar  502  TRP502      0.0003
    199  CD1       43.5410   -3.6030   14.9590 C.ar  502  TRP502      0.0946
    200  CD2       44.6330   -3.1180   13.1490 C.ar  502  TRP502      0.0152
    201  NE1       43.2210   -4.5130   14.0540 N.ar  502  TRP502     -0.2442
    202  CE2       43.8660   -4.2270   12.9010 C.ar  502  TRP502      0.0810
    203  CE3       45.4200   -2.6110   12.1290 C.ar  502  TRP502      0.0012
    204  CZ2       43.8230   -4.8400   11.6610 C.ar  502  TRP502      0.0191
    205  CZ3       45.4100   -3.2280   10.9230 C.ar  502  TRP502      0.0001
    206  CH2       44.6100   -4.3180   10.6830 C.ar  502  TRP502      0.0015
    207  N         46.9010    2.8510   16.3010 N.3   504  GLU504     -0.1245
    208  CA        46.4340    4.1930   16.3500 C.3   504  GLU504      0.1567
    209  C         46.8270    4.7450   17.7000 C.2   504  GLU504      0.2260
    210  O         47.1100    5.8640   17.8110 O.2   504  GLU504     -0.2867
    211  CB        44.9380    4.2720   16.1400 C.3   504  GLU504      0.0388
    212  CG        44.4860    4.0230   14.7220 C.3   504  GLU504      0.1160
    213  CD        44.1530    2.5760   14.4060 C.2   504  GLU504      0.3649
    214  OE1       44.5770    1.6940   15.0790 O.co2 504  GLU504     -0.2457
    215  OE2       43.5030    2.3510   13.4340 O.co2 504  GLU504     -0.2457
@<TRIPOS>BOND
     1    20    21    1
     2    22    23    2
     3    22    21    1
     4    86    87    2
     5    86    85    1
     6    76    77    1
     7    79    78    2
     8    21    24    1
     9    78    84   am
    10    78    77    1
    11    96    95    2
    12    85    84    1
    13    85    88    1
    14    77    80    1
    15    24    25    1
    16    82    81   ar
    17    93    94    1
    18    15    14    2
    19    27    25   ar
    20    27    29   ar
    21    14    13    1
    22    25    26   ar
    23    95    94    1
    24    81    80    1
    25    81    83   ar
    26    88    89    1
    27    12    13    1
    28    94    97    1
    29    13    16    1
    30    33    32    2
    31    97    98    1
    32    29    28   ar
    33    26    28   ar
    34    99    98   ar
    35    99   101   ar
    36    31    30    1
    37    31    32    1
    38    31    34    1
    39    47    46    2
    40    46    45    1
    41    32    44   am
    42    89    90    1
    43    18    17   ar
    44    98   100   ar
    45    16    17    1
    46    17    19   ar
    47    53    54    1
    48   101   102   ar
    49    34    35    1
    50    44    45    1
    51    45    48    1
    52    90    91   ar
    53    90    92   ar
    54    63    62    2
    55   100   102   ar
    56   100   103   ar
    57    58    57    1
    58   102   104   ar
    59    59    57    1
    60    54    57    1
    61    54    55    1
    62    35    36   ar
    63    35    37   ar
    64    70    71    1
    65    70    69    1
    66    70    73    1
    67    48    49    1
    68    71    72    2
    69   115   113   ar
    70   115   116   ar
    71    62    69   am
    72    62    61    1
    73    60    55   am
    74    60    61    1
    75   103   105   ar
    76    40    37   ar
    77    40    42   ar
    78   118   116   ar
    79   118   120   ar
    80    36    38   ar
    81   104   106   ar
    82    69    75    1
    83    73    74    1
    84    37    39   ar
    85    55    56    2
    86    11     9    1
    87   113   112   ar
    88   116   114   ar
    89    61    64    1
    90     8     9    2
    91     8     7    1
    92    49    50    1
    93    65    64    1
    94    65    66    1
    95     9    10    1
    96   105   106   ar
    97   120   119   ar
    98    42    43   ar
    99   206   205   ar
   100   206   204   ar
   101     7     6    1
   102    38    39   ar
   103   205   203   ar
   104    75    74    1
   105    39    41   ar
   106   112   114   ar
   107   112   111    1
   108   114   117   ar
   109    66    68   ar
   110    66    67   ar
   111    50    51    1
   112   107   108    1
   113     1     2    1
   114   204   202   ar
   115    43    41   ar
   116   119   117   ar
   117     6     5    1
   118   203   200   ar
   119   111   108    1
   120     2     5    1
   121     2     3    1
   122   108   109    1
   123    51    52    1
   124   202   200   ar
   125   202   201   ar
   126   109   110    2
   127   200   198   ar
   128   132   131    1
   129     3     4    2
   130   215   213   ar
   131   154   153   ar
   132   154   152   ar
   133   201   199   ar
   134   153   151   ar
   135   152   150   ar
   136   213   212    1
   137   213   214   ar
   138   198   199   ar
   139   198   197    1
   140   131   129   ar
   141   131   130   ar
   142   212   211    1
   143   197   194    1
   144   129   127   ar
   145   130   128   ar
   146   160   159    1
   147   194   193    1
   148   194   195    1
   149   151   148   ar
   150   192   190   ar
   151   192   191   ar
   152   150   148   ar
   153   150   149   ar
   154   190   188   ar
   155   191   189   ar
   156   211   208    1
   157   161   159    1
   158   159   156    1
   159   188   187   ar
   160   188   186   ar
   161   207   208    1
   162   208   209    1
   163   148   146   ar
   164   195   196    2
   165   189   186   ar
   166   187   185   ar
   167   127   126   ar
   168   186   184   ar
   169   128   126   ar
   170   149   147   ar
   171   185   184   ar
   172   184   183    1
   173   126   125    1
   174   183   180    1
   175   156   155    1
   176   156   157    1
   177   209   210    2
   178   146   147   ar
   179   146   145    1
   180   140   138   ar
   181   144   143    2
   182   155   143   am
   183   143   142    1
   184   157   162   am
   185   157   158    2
   186   139   138   ar
   187   138   137    1
   188   125   122    1
   189   145   142    1
   190   162   163    1
   191   180   181    1
   192   180   179    1
   193   122   121    1
   194   122   123    1
   195   181   182    2
   196   142   141    1
   197   137   134    1
   198   179   173   am
   199   163   164    1
   200   123   124    2
   201   173   172    1
   202   173   174    2
   203   133   134    1
   204   134   135    1
   205   175   172    1
   206   175   176    1
   207   164   165    2
   208   164   166   am
   209   172   171    1
   210   135   136    2
   211   176   177    2
   212   176   178   am
   213   166   167    1
   214   169   168    2
   215   167   168    1
   216   167   170    1
