@<TRIPOS>MOLECULE
tmp/3nsqB00.pdb
 125 117 0 0 0
SMALL
GASTEIGER

@<TRIPOS>ATOM
      1  N         49.6030  -20.7330   -0.0950 N.3    46  LEU46      -0.1231
      2  CA        50.1310  -21.2480    1.1260 C.3    46  LEU46       0.1693
      3  C         49.5290  -20.6410    2.3620 C.2    46  LEU46       0.2591
      4  O         49.2520  -21.3280    3.2890 O.2    46  LEU46      -0.2718
      5  CB        51.6460  -21.2150    1.1340 C.3    46  LEU46       0.0284
      6  CG        52.3320  -22.0830    0.0970 C.3    46  LEU46       0.0019
      7  CD1       53.7690  -22.0880    0.2420 C.3    46  LEU46       0.0001
      8  CD2       51.8750  -23.4360    0.2260 C.3    46  LEU46       0.0001
      9  N         49.3320  -19.3410    2.3620 N.am   47  ILE47      -0.1980
     10  CA        48.7170  -18.6310    3.4600 C.3    47  ILE47       0.1595
     11  C         47.2990  -19.0340    3.6980 C.2    47  ILE47       0.2287
     12  O         46.8990  -19.1380    4.8000 O.2    47  ILE47      -0.2864
     13  CB        48.7510  -17.1320    3.2670 C.3    47  ILE47       0.0276
     14  CG1       50.1440  -16.5840    3.3830 C.3    47  ILE47       0.0022
     15  CG2       47.9300  -16.4590    4.2800 C.3    47  ILE47       0.0022
     16  CD1       50.2120  -15.1960    3.0210 C.3    47  ILE47       0.0001
     17  N         47.4670  -22.6290    5.3960 N.3    50  PHE50      -0.1241
     18  CA        47.9200  -22.6350    6.7730 C.3    50  PHE50       0.1605
     19  C         46.9950  -21.9930    7.7790 C.2    50  PHE50       0.2264
     20  O         47.0300  -22.3290    8.9050 O.2    50  PHE50      -0.2867
     21  CB        49.4360  -22.3840    6.9440 C.3    50  PHE50       0.0534
     22  CG        49.8630  -20.9560    6.9060 C.ar   50  PHE50      -0.0203
     23  CD1       49.2310  -20.0040    7.6480 C.ar   50  PHE50      -0.0042
     24  CD2       50.9580  -20.5720    6.1860 C.ar   50  PHE50      -0.0042
     25  CE1       49.6300  -18.7150    7.6090 C.ar   50  PHE50      -0.0003
     26  CE2       51.3490  -19.2860    6.1720 C.ar   50  PHE50      -0.0003
     27  CZ        50.6830  -18.3640    6.8770 C.ar   50  PHE50      -0.0000
     28  N         49.1590  -20.4840   14.6780 N.3    61  ILE61      -0.1245
     29  CA        49.2220  -20.9460   13.3090 C.3    61  ILE61       0.1561
     30  C         49.9230  -22.2780   13.2210 C.2    61  ILE61       0.2260
     31  O         51.0470  -22.4050   13.6100 O.2    61  ILE61      -0.2867
     32  CB        50.0640  -19.9880   12.4670 C.3    61  ILE61       0.0252
     33  CG1       49.3940  -18.6810   12.2980 C.3    61  ILE61       0.0019
     34  CG2       50.2240  -20.4360   11.0750 C.3    61  ILE61       0.0019
     35  CD1       50.2710  -17.8060   11.6440 C.3    61  ILE61       0.0001
     36  N         51.6560  -24.2250   10.9760 N.3    63  LEU63      -0.1245
     37  CA        52.2350  -24.2140    9.6620 C.3    63  LEU63       0.1561
     38  C         52.3410  -25.5640    8.9820 C.2    63  LEU63       0.2260
     39  O         51.9450  -25.7260    7.8390 O.2    63  LEU63      -0.2867
     40  CB        53.6410  -23.6800    9.7760 C.3    63  LEU63       0.0270
     41  CG        53.7850  -22.1800    9.7520 C.3    63  LEU63       0.0019
     42  CD1       55.0610  -21.7970   10.3890 C.3    63  LEU63       0.0001
     43  CD2       53.7440  -21.7190    8.3460 C.3    63  LEU63       0.0001
     44  N         53.1010  -22.0430   15.9570 N.3    69  VAL69      -0.1245
     45  CA        53.6540  -20.7760   16.3160 C.3    69  VAL69       0.1561
     46  C         52.6410  -20.0440   17.1350 C.2    69  VAL69       0.2260
     47  O         51.5170  -19.9530   16.7420 O.2    69  VAL69      -0.2867
     48  CB        53.9010  -19.9850   15.0820 C.3    69  VAL69       0.0252
     49  CG1       54.2360  -18.6450   15.4520 C.3    69  VAL69       0.0019
     50  CG2       55.0350  -20.5660   14.3120 C.3    69  VAL69       0.0019
     51  N         55.8840  -14.8200   17.6840 N.3    74  ALA74      -0.1245
     52  CA        55.7520  -13.8840   16.6050 C.3    74  ALA74       0.1562
     53  C         55.9780  -12.4970   17.1010 C.2    74  ALA74       0.2260
     54  O         56.7250  -11.7660   16.5490 O.2    74  ALA74      -0.2867
     55  CB        54.3860  -13.9880   16.0270 C.3    74  ALA74       0.0290
     56  N         57.0600   -9.4890   14.3750 N.3    79  VAL79      -0.1245
     57  CA        56.1450   -9.7230   13.2770 C.3    79  VAL79       0.1561
     58  C         54.7420   -9.8470   13.7730 C.2    79  VAL79       0.2260
     59  O         53.9920  -10.6080   13.2830 O.2    79  VAL79      -0.2867
     60  CB        56.4630  -10.9610   12.4410 C.3    79  VAL79       0.0252
     61  CG1       57.6770  -10.7540   11.6590 C.3    79  VAL79       0.0019
     62  CG2       56.5990  -12.1500   13.2730 C.3    79  VAL79       0.0019
     63  N         51.3690   -8.6870   11.4630 N.3    82  ILE82      -0.1231
     64  CA        51.0400   -9.6790   10.4630 C.3    82  ILE82       0.1692
     65  C         50.4680  -10.9900   10.9880 C.2    82  ILE82       0.2592
     66  O         49.6340  -11.5620   10.3590 O.2    82  ILE82      -0.2718
     67  CB        52.1550   -9.8750    9.4640 C.3    82  ILE82       0.0266
     68  CG1       51.7480  -10.8610    8.4030 C.3    82  ILE82       0.0019
     69  CG2       53.3410  -10.3710   10.1210 C.3    82  ILE82       0.0020
     70  CD1       50.3780  -10.7570    7.9860 C.3    82  ILE82       0.0001
     71  N         50.9420  -11.4660   12.1310 N.am   83  PHE83      -0.1976
     72  CA        50.3870  -12.6160   12.8290 C.3    83  PHE83       0.1639
     73  C         48.9540  -12.3840   13.2660 C.2    83  PHE83       0.2290
     74  O         48.1130  -13.2130   13.1460 O.2    83  PHE83      -0.2864
     75  CB        51.2280  -12.8630   14.0690 C.3    83  PHE83       0.0560
     76  CG        50.8790  -14.0850   14.8240 C.ar   83  PHE83      -0.0200
     77  CD1       51.4330  -15.2670   14.5130 C.ar   83  PHE83      -0.0042
     78  CD2       50.0230  -14.0360   15.8690 C.ar   83  PHE83      -0.0042
     79  CE1       51.1400  -16.3500   15.2000 C.ar   83  PHE83      -0.0003
     80  CE2       49.7170  -15.1270   16.5440 C.ar   83  PHE83      -0.0003
     81  CZ        50.2840  -16.2840   16.2150 C.ar   83  PHE83      -0.0000
     82  N         46.5840  -12.2760   10.1140 N.3    86  VAL86      -0.1245
     83  CA        46.2550  -13.6040    9.6530 C.3    86  VAL86       0.1561
     84  C         45.2330  -14.2870   10.5140 C.2    86  VAL86       0.2260
     85  O         44.3850  -14.9740   10.0420 O.2    86  VAL86      -0.2867
     86  CB        47.4950  -14.4770    9.6170 C.3    86  VAL86       0.0252
     87  CG1       47.1300  -15.8500    9.3650 C.3    86  VAL86       0.0019
     88  CG2       48.4140  -14.0150    8.5880 C.3    86  VAL86       0.0019
     89  N         53.4750  -10.5300    3.4040 N.3   169  CYS169     -0.1235
     90  CA        54.3250  -11.6100    3.8010 C.3   169  CYS169      0.1677
     91  C         55.4570  -11.7060    2.8500 C.2   169  CYS169      0.2270
     92  O         56.1710  -12.6260    2.8780 O.2   169  CYS169     -0.2867
     93  CB        53.5690  -12.9380    3.8610 C.3   169  CYS169      0.0956
     94  SG        52.5590  -13.1860    5.2100 S.3   169  CYS169     -0.0801
     95  N         60.0720   -8.6570    6.8320 N.3   174  PHE174     -0.1227
     96  CA        59.4250   -9.8510    7.3580 C.3   174  PHE174      0.1736
     97  C         60.2980  -11.0770    7.2570 C.2   174  PHE174      0.2595
     98  O         60.4590  -11.8120    8.1800 O.2   174  PHE174     -0.2718
     99  CB        58.0880  -10.0160    6.6290 C.3   174  PHE174      0.0547
    100  CG        57.3930  -11.3120    6.8460 C.ar  174  PHE174     -0.0202
    101  CD1       56.4110  -11.4270    7.7810 C.ar  174  PHE174     -0.0042
    102  CD2       57.6660  -12.4020    6.0720 C.ar  174  PHE174     -0.0042
    103  CE1       55.7750  -12.5890    7.9760 C.ar  174  PHE174     -0.0003
    104  CE2       57.0200  -13.5700    6.2750 C.ar  174  PHE174     -0.0003
    105  CZ        56.0730  -13.6560    7.2330 C.ar  174  PHE174     -0.0000
    106  N         60.8830  -11.2950    6.1190 N.am  175  PHE175     -0.1976
    107  CA        61.7890  -12.4100    5.9740 C.3   175  PHE175      0.1639
    108  C         63.0700  -12.3740    6.8000 C.2   175  PHE175      0.2290
    109  O         63.4860  -13.3580    7.3570 O.2   175  PHE175     -0.2864
    110  CB        62.1020  -12.6060    4.5120 C.3   175  PHE175      0.0560
    111  CG        61.0480  -13.3030    3.7930 C.ar  175  PHE175     -0.0200
    112  CD1       60.8180  -14.6100    4.0140 C.ar  175  PHE175     -0.0042
    113  CD2       60.2620  -12.6510    2.9240 C.ar  175  PHE175     -0.0042
    114  CE1       59.8510  -15.2500    3.3620 C.ar  175  PHE175     -0.0003
    115  CE2       59.3000  -13.3010    2.2780 C.ar  175  PHE175     -0.0003
    116  CZ        59.1040  -14.6020    2.4980 C.ar  175  PHE175     -0.0000
    117  N         63.9090  -12.0410    9.3710 N.3   177  LYS177     -0.1245
    118  CA        63.7070  -12.1620   10.7900 C.3   177  LYS177      0.1561
    119  C         65.0300  -12.8850   11.0520 C.2   177  LYS177      0.2260
    120  O         65.9040  -12.7950   10.2210 O.2   177  LYS177     -0.2867
    121  CB        62.4070  -12.9300   11.1200 C.3   177  LYS177      0.0271
    122  CG        62.4450  -14.4660   11.1180 C.3   177  LYS177      0.0035
    123  CD        61.6620  -15.0670   10.0330 C.3   177  LYS177      0.0206
    124  CE        60.2240  -14.7440   10.0910 C.3   177  LYS177      0.1093
    125  NZ        59.5040  -15.3330    8.9790 N.3   177  LYS177     -0.1314
@<TRIPOS>BOND
     1     1     2    1
     2     6     8    1
     3     6     7    1
     4     6     5    1
     5     2     5    1
     6     2     3    1
     7   115   116   ar
     8   115   113   ar
     9     9     3   am
    10     9    10    1
    11     3     4    2
    12   116   114   ar
    13    91    92    2
    14    91    90    1
    15   113   111   ar
    16    16    14    1
    17    13    14    1
    18    13    10    1
    19    13    15    1
    20   114   112   ar
    21    89    90    1
    22    10    11    1
    23    11    12    2
    24   111   112   ar
    25   111   110    1
    26    90    93    1
    27    93    94    1
    28   110   107    1
    29    17    18    1
    30   107   106    1
    31   107   108    1
    32   102   104   ar
    33   102   100   ar
    34   106    97   am
    35    26    24   ar
    36    26    27   ar
    37    24    22   ar
    38   104   105   ar
    39    99   100    1
    40    99    96    1
    41    18    21    1
    42    18    19    1
    43   108   109    2
    44    95    96    1
    45   100   101   ar
    46    27    25   ar
    47    22    21    1
    48    22    23   ar
    49   105   103   ar
    50    97    96    1
    51    97    98    2
    52    25    23   ar
    53    19    20    2
    54   101   103   ar
    55    39    38    2
    56    70    68    1
    57    43    41    1
    58    68    67    1
    59    88    86    1
    60   125   124    1
    61    38    37    1
    62    87    86    1
    63   117   118    1
    64    67    69    1
    65    67    64    1
    66    86    83    1
    67    83    82    1
    68    83    84    1
    69    37    40    1
    70    37    36    1
    71    41    40    1
    72    41    42    1
    73   123   124    1
    74   123   122    1
    75    85    84    2
    76   120   119    2
    77    66    65    2
    78    64    65    1
    79    64    63    1
    80   118   119    1
    81   118   121    1
    82    65    71   am
    83    34    32    1
    84   122   121    1
    85    35    33    1
    86    61    60    1
    87    71    72    1
    88    33    32    1
    89    60    62    1
    90    60    57    1
    91    32    29    1
    92    72    73    1
    93    72    75    1
    94    74    73    2
    95    30    29    1
    96    30    31    2
    97    57    58    1
    98    57    56    1
    99    59    58    2
   100    29    28    1
   101    75    76    1
   102    50    48    1
   103    77    76   ar
   104    77    79   ar
   105    76    78   ar
   106    48    49    1
   107    48    45    1
   108    79    81   ar
   109    78    80   ar
   110    44    45    1
   111    55    52    1
   112    81    80   ar
   113    45    46    1
   114    54    53    2
   115    52    53    1
   116    52    51    1
   117    47    46    2
