@<TRIPOS>MOLECULE
tmp/3nswB00.pdb
 74 72 0 0 0
SMALL
GASTEIGER

@<TRIPOS>ATOM
      1  N         21.2180   -2.8090  -26.8770 N.3    30  VAL30      -0.1231
      2  CA        21.2440   -1.7030  -25.9020 C.3    30  VAL30       0.1692
      3  C         22.1590   -0.6050  -26.4210 C.2    30  VAL30       0.2593
      4  O         23.3590   -0.8290  -26.6450 O.2    30  VAL30      -0.2718
      5  CB        21.6980   -2.1880  -24.4900 C.3    30  VAL30       0.0266
      6  CG1       21.8970   -0.9960  -23.5190 C.3    30  VAL30       0.0020
      7  CG2       20.6620   -3.1530  -23.9230 C.3    30  VAL30       0.0020
      8  N         21.5970    0.5880  -26.6190 N.am   31  THR31      -0.1939
      9  CA        22.3490    1.7030  -27.1880 C.3    31  THR31       0.2028
     10  C         22.7790    2.7190  -26.1310 C.2    31  THR31       0.2643
     11  O         23.5620    3.6340  -26.4080 O.2    31  THR31      -0.2714
     12  CB        21.4960    2.4570  -28.2170 C.3    31  THR31       0.1808
     13  OG1       20.2720    2.8560  -27.5960 O.3    31  THR31      -0.2208
     14  CG2       21.1930    1.5710  -29.4200 C.3    31  THR31       0.0379
     15  N         22.2630    2.5560  -24.9170 N.am   32  GLY32      -0.1939
     16  CA        22.5460    3.4830  -23.8340 C.3    32  GLY32       0.2014
     17  C         21.6220    3.2750  -22.6580 C.2    32  GLY32       0.2639
     18  O         20.8350    2.3310  -22.6420 O.2    32  GLY32      -0.2714
     19  N         21.7110    4.1750  -21.6830 N.am   33  LYS33      -0.1963
     20  CA        20.8660    4.1070  -20.4990 C.3    33  LYS33       0.1728
     21  C         20.5920    5.5150  -20.0000 C.2    33  LYS33       0.2616
     22  O         21.5000    6.3620  -19.9310 O.2    33  LYS33      -0.2715
     23  CB        21.5200    3.2480  -19.4100 C.3    33  LYS33       0.0311
     24  CG        20.5700    2.8530  -18.2760 C.3    33  LYS33       0.0038
     25  CD        21.2470    1.9840  -17.2210 C.3    33  LYS33       0.0206
     26  CE        20.3740    1.8360  -15.9740 C.3    33  LYS33       0.1093
     27  NZ        19.0760    1.1480  -16.2430 N.3    33  LYS33      -0.1314
     28  N         19.3260    5.7680  -19.6880 N.am   34  THR34      -0.1951
     29  CA        18.8960    7.0510  -19.1180 C.3    34  THR34       0.1897
     30  C         18.1670    6.7350  -17.8350 C.2    34  THR34       0.2313
     31  O         17.2050    5.9570  -17.8440 O.2    34  THR34      -0.2863
     32  CB        17.9280    7.8060  -20.0500 C.3    34  THR34       0.1794
     33  OG1       18.5030    7.9220  -21.3560 O.3    34  THR34      -0.2208
     34  CG2       17.6200    9.2020  -19.5090 C.3    34  THR34       0.0378
     35  N         17.1630    1.3980  -19.9190 N.3    38  TYR38      -0.1227
     36  CA        18.0390    1.1700  -21.0360 C.3    38  TYR38       0.1736
     37  C         17.3430    1.6300  -22.2970 C.2    38  TYR38       0.2595
     38  O         16.1310    1.4210  -22.4600 O.2    38  TYR38      -0.2718
     39  CB        18.3250   -0.3260  -21.1560 C.3    38  TYR38       0.0548
     40  CG        19.1070   -0.8860  -19.9920 C.ar   38  TYR38      -0.0200
     41  CD1       20.4890   -0.7160  -19.9160 C.ar   38  TYR38      -0.0009
     42  CD2       18.4690   -1.5980  -18.9720 C.ar   38  TYR38      -0.0009
     43  CE1       21.2290   -1.2400  -18.8480 C.ar   38  TYR38       0.0417
     44  CE2       19.1930   -2.1210  -17.8960 C.ar   38  TYR38       0.0417
     45  CZ        20.5790   -1.9420  -17.8520 C.ar   38  TYR38       0.1957
     46  OH        21.3130   -2.4650  -16.8090 O.3    38  TYR38      -0.2866
     47  N         18.1050    2.2640  -23.1770 N.am   39  ASN39      -0.1974
     48  CA        17.6380    2.5740  -24.5320 C.3    39  ASN39       0.1688
     49  C         17.8890    1.3750  -25.4460 C.2    39  ASN39       0.2292
     50  O         18.9450    0.7570  -25.3860 O.2    39  ASN39      -0.2864
     51  CB        18.3340    3.8200  -25.0670 C.3    39  ASN39       0.1181
     52  CG        17.9100    5.0840  -24.3300 C.2    39  ASN39       0.2629
     53  OD1       18.7200    5.9760  -24.0910 O.2    39  ASN39      -0.2716
     54  ND2       16.6380    5.1540  -23.9580 N.am   39  ASN39      -0.0877
     55  N         23.1830   -4.6390  -18.0530 N.3    71  LEU71      -0.1231
     56  CA        23.4030   -4.7540  -19.5000 C.3    71  LEU71       0.1693
     57  C         24.4820   -3.7800  -19.9380 C.2    71  LEU71       0.2593
     58  O         24.6400   -2.7070  -19.3440 O.2    71  LEU71      -0.2718
     59  CB        22.1120   -4.4790  -20.2710 C.3    71  LEU71       0.0284
     60  CG        20.8480   -5.2150  -19.8170 C.3    71  LEU71       0.0019
     61  CD1       19.7190   -4.9040  -20.7690 C.3    71  LEU71       0.0001
     62  CD2       21.1180   -6.7280  -19.7620 C.3    71  LEU71       0.0001
     63  N         25.2260   -4.1600  -20.9670 N.am   72  THR72      -0.1939
     64  CA        26.3340   -3.3390  -21.4420 C.3    72  THR72       0.2028
     65  C         25.9970   -2.5550  -22.7130 C.2    72  THR72       0.2642
     66  O         25.1240   -2.9510  -23.4900 O.2    72  THR72      -0.2714
     67  CB        27.6270   -4.1690  -21.6190 C.3    72  THR72       0.1808
     68  OG1       27.3630   -5.3200  -22.4310 O.3    72  THR72      -0.2208
     69  CG2       28.1400   -4.6230  -20.2540 C.3    72  THR72       0.0379
     70  N         26.7080   -1.4420  -22.8920 N.am   73  ALA73      -0.1977
     71  CA        26.5610   -0.5570  -24.0400 C.3    73  ALA73       0.1597
     72  C         26.8460   -1.3070  -25.3300 C.2    73  ALA73       0.2287
     73  O         27.7120   -2.1810  -25.3580 O.2    73  ALA73      -0.2864
     74  CB        27.5170    0.6240  -23.9050 C.3    73  ALA73       0.0319
@<TRIPOS>BOND
     1    14    12    1
     2    12    13    1
     3    12     9    1
     4     9     8    1
     5     9    10    1
     6     1     2    1
     7     4     3    2
     8     8     3   am
     9     3     2    1
    10    11    10    2
    11    10    15   am
    12     2     5    1
    13    49    50    2
    14    49    48    1
    15    73    72    2
    16    72    71    1
    17    51    48    1
    18    51    52    1
    19    15    16    1
    20    48    47    1
    21     5     7    1
    22     5     6    1
    23    52    53    2
    24    52    54   am
    25    71    74    1
    26    71    70    1
    27    16    17    1
    28    66    65    2
    29    47    37   am
    30    70    65   am
    31    65    64    1
    32    17    18    2
    33    17    19   am
    34    38    37    2
    35    68    67    1
    36    37    36    1
    37    19    20    1
    38    67    64    1
    39    67    69    1
    40    64    63    1
    41    33    32    1
    42    39    36    1
    43    39    40    1
    44    36    35    1
    45    63    57   am
    46    61    60    1
    47    20    21    1
    48    20    23    1
    49    59    60    1
    50    59    56    1
    51    32    34    1
    52    32    29    1
    53    21    22    2
    54    21    28   am
    55    40    41   ar
    56    40    42   ar
    57    57    56    1
    58    57    58    2
    59    41    43   ar
    60    60    62    1
    61    28    29    1
    62    56    55    1
    63    23    24    1
    64    29    30    1
    65    42    44   ar
    66    43    45   ar
    67    24    25    1
    68    44    45   ar
    69    45    46    1
    70    31    30    2
    71    25    26    1
    72    27    26    1
