@<TRIPOS>MOLECULE
tmp/3nsxA00.pdb
 135 134 0 0 0
SMALL
GASTEIGER

@<TRIPOS>ATOM
      1  N        -10.7940    2.6830   17.0090 N.3   172  TRP172     -0.1241
      2  CA       -11.5300    1.5160   17.4890 C.3   172  TRP172      0.1605
      3  C        -13.0260    1.7760   17.6220 C.2   172  TRP172      0.2264
      4  O        -13.8340    0.9070   17.3190 O.2   172  TRP172     -0.2867
      5  CB       -10.9480    0.9790   18.8080 C.3   172  TRP172      0.0550
      6  CG       -11.7430   -0.1690   19.4380 C.ar  172  TRP172      0.0003
      7  CD1      -12.9940   -0.5930   19.0900 C.ar  172  TRP172      0.0946
      8  CD2      -11.3340   -1.0090   20.5290 C.ar  172  TRP172      0.0152
      9  NE1      -13.3870   -1.6390   19.8850 N.ar  172  TRP172     -0.2442
     10  CE2      -12.3870   -1.9160   20.7780 C.ar  172  TRP172      0.0810
     11  CE3      -10.1810   -1.0840   21.3200 C.ar  172  TRP172      0.0012
     12  CZ2      -12.3220   -2.8810   21.7810 C.ar  172  TRP172      0.0191
     13  CZ3      -10.1190   -2.0470   22.3150 C.ar  172  TRP172      0.0001
     14  CH2      -11.1820   -2.9300   22.5370 C.ar  172  TRP172      0.0015
     15  N        -13.2720   -0.7510   12.5030 N.3   200  ASP200     -0.1225
     16  CA       -13.0180   -1.7240   13.5560 C.3   200  ASP200      0.1805
     17  C        -14.3350   -2.4210   13.9050 C.2   200  ASP200      0.2597
     18  O        -15.3750   -2.1490   13.2950 O.2   200  ASP200     -0.2718
     19  CB       -12.4120   -1.0380   14.7890 C.3   200  ASP200      0.1424
     20  CG       -11.3380   -1.8710   15.4520 C.2   200  ASP200      0.3668
     21  OD1      -10.2460   -1.3270   15.7050 O.co2 200  ASP200     -0.2456
     22  OD2      -11.5830   -3.0700   15.7200 O.co2 200  ASP200     -0.2456
     23  N        -14.2850   -3.2820   14.9150 N.am  201  ILE201     -0.1980
     24  CA       -15.3300   -4.2780   15.1490 C.3   201  ILE201      0.1595
     25  C        -16.7380   -3.7350   15.3800 C.2   201  ILE201      0.2287
     26  O        -17.7190   -4.4680   15.2580 O.2   201  ILE201     -0.2864
     27  CB       -14.9380   -5.2140   16.3160 C.3   201  ILE201      0.0276
     28  CG1      -14.7800   -4.4170   17.6150 C.3   201  ILE201      0.0022
     29  CG2      -13.6380   -5.9380   15.9750 C.3   201  ILE201      0.0022
     30  CD1      -14.3820   -5.2610   18.8220 C.3   201  ILE201      0.0001
     31  N        -12.6420   -4.8220    9.3170 N.3   237  ILE237     -0.1245
     32  CA       -11.9290   -5.8810   10.0160 C.3   237  ILE237      0.1561
     33  C        -12.7690   -7.1640   10.0200 C.2   237  ILE237      0.2260
     34  O        -14.0070   -7.1140   10.0080 O.2   237  ILE237     -0.2867
     35  CB       -11.6050   -5.4330   11.4540 C.3   237  ILE237      0.0252
     36  CG1      -10.4870   -6.2790   12.0650 C.3   237  ILE237      0.0019
     37  CG2      -12.8660   -5.4240   12.3250 C.3   237  ILE237      0.0019
     38  CD1       -9.9770   -5.6730   13.3800 C.3   237  ILE237      0.0001
     39  N        -14.3290  -11.0280   21.4500 N.3   274  TRP274     -0.1241
     40  CA       -15.2330   -9.8650   21.4950 C.3   274  TRP274      0.1605
     41  C        -16.7370  -10.1780   21.6120 C.2   274  TRP274      0.2264
     42  O        -17.4640   -9.4790   22.3250 O.2   274  TRP274     -0.2867
     43  CB       -14.9980   -8.9330   20.3020 C.3   274  TRP274      0.0550
     44  CG       -13.5670   -8.5430   20.1190 C.ar  274  TRP274      0.0003
     45  CD1      -12.7770   -8.8180   19.0410 C.ar  274  TRP274      0.0946
     46  CD2      -12.7500   -7.8240   21.0460 C.ar  274  TRP274      0.0152
     47  NE1      -11.5210   -8.3020   19.2350 N.ar  274  TRP274     -0.2442
     48  CE2      -11.4730   -7.6930   20.4610 C.ar  274  TRP274      0.0810
     49  CE3      -12.9760   -7.2690   22.3080 C.ar  274  TRP274      0.0012
     50  CZ2      -10.4240   -7.0310   21.0940 C.ar  274  TRP274      0.0191
     51  CZ3      -11.9280   -6.6140   22.9420 C.ar  274  TRP274      0.0001
     52  CH2      -10.6700   -6.5000   22.3330 C.ar  274  TRP274      0.0015
     53  N         -8.8930   -6.3630    6.8020 N.3   308  TRP308     -0.1241
     54  CA        -7.8180   -6.7810    7.6880 C.3   308  TRP308      0.1605
     55  C         -8.3000   -7.8790    8.6370 C.2   308  TRP308      0.2264
     56  O         -9.4300   -7.8200    9.1090 O.2   308  TRP308     -0.2867
     57  CB        -7.1700   -5.5900    8.4210 C.3   308  TRP308      0.0550
     58  CG        -8.0860   -4.5740    9.0850 C.ar  308  TRP308      0.0003
     59  CD1       -9.2000   -3.9830    8.5530 C.ar  308  TRP308      0.0946
     60  CD2       -7.9020   -3.9910   10.3820 C.ar  308  TRP308      0.0152
     61  NE1       -9.7340   -3.0880    9.4560 N.ar  308  TRP308     -0.2442
     62  CE2       -8.9540   -3.0750   10.5840 C.ar  308  TRP308      0.0810
     63  CE3       -6.9490   -4.1650   11.3950 C.ar  308  TRP308      0.0012
     64  CZ2       -9.0810   -2.3290   11.7650 C.ar  308  TRP308      0.0191
     65  CZ3       -7.0800   -3.4390   12.5620 C.ar  308  TRP308      0.0001
     66  CH2       -8.1360   -2.5260   12.7370 C.ar  308  TRP308      0.0015
     67  N         -7.8780  -10.0750   12.0990 N.3   310  ASP310     -0.1225
     68  CA        -7.3650   -9.8300   13.4500 C.3   310  ASP310      0.1805
     69  C         -7.6740  -10.9950   14.3950 C.2   310  ASP310      0.2597
     70  O         -8.4580  -11.8950   14.0690 O.2   310  ASP310     -0.2718
     71  CB        -8.0020   -8.5500   14.0040 C.3   310  ASP310      0.1424
     72  CG        -7.2690   -7.9930   15.2120 C.2   310  ASP310      0.3668
     73  OD1       -6.0950   -8.3520   15.4400 O.co2 310  ASP310     -0.2456
     74  OD2       -7.8840   -7.1820   15.9330 O.co2 310  ASP310     -0.2456
     75  N         -7.0360  -10.9640   15.5620 N.am  311  MET311     -0.1979
     76  CA        -7.2590  -11.9370   16.6430 C.3   311  MET311      0.1605
     77  C         -6.9890  -13.3690   16.1960 C.2   311  MET311      0.2287
     78  O         -7.5570  -14.3250   16.7460 O.2   311  MET311     -0.2864
     79  CB        -8.6930  -11.8400   17.1740 C.3   311  MET311      0.0413
     80  CG        -9.1880  -10.4250   17.4480 C.3   311  MET311      0.0598
     81  SD        -8.1720   -9.5080   18.6250 S.3   311  MET311     -0.1393
     82  CE        -8.6530  -10.2550   20.1860 C.3   311  MET311      0.0692
     83  N         -2.8770  -10.0830   11.3180 N.3   407  ARG407     -0.1245
     84  CA        -2.0710   -9.9050   12.5140 C.3   407  ARG407      0.1563
     85  C         -1.0640  -11.0510   12.6690 C.2   407  ARG407      0.2260
     86  O          0.1480  -10.8220   12.7130 O.2   407  ARG407     -0.2867
     87  CB        -2.9580   -9.7790   13.7480 C.3   407  ARG407      0.0307
     88  CG        -2.1720   -9.2690   14.9460 C.3   407  ARG407      0.0489
     89  CD        -3.0670   -8.7860   16.0830 C.3   407  ARG407      0.2205
     90  NE        -3.5560   -9.8940   16.9040 N.pl3 407  ARG407     -0.0865
     91  CZ        -4.2460   -9.7250   18.0270 C.cat 407  ARG407      0.5346
     92  NH1       -4.6530  -10.7740   18.7310 N.pl3 407  ARG407      0.1354
     93  NH2       -4.5290   -8.4900   18.4500 N.pl3 407  ARG407      0.1354
     94  N          0.4280   -6.1920    9.9310 N.3   420  TRP420     -0.1241
     95  CA         0.6810   -4.9520   10.6460 C.3   420  TRP420      0.1605
     96  C          1.1000   -5.2580   12.0640 C.2   420  TRP420      0.2264
     97  O          0.6570   -6.2490   12.6580 O.2   420  TRP420     -0.2867
     98  CB        -0.5330   -4.0280   10.6070 C.3   420  TRP420      0.0550
     99  CG        -1.4750   -4.1570   11.7680 C.ar  420  TRP420      0.0003
    100  CD1       -1.5280   -3.3530   12.8700 C.ar  420  TRP420      0.0946
    101  CD2       -2.5180   -5.1210   11.9240 C.ar  420  TRP420      0.0152
    102  NE1       -2.5360   -3.7680   13.7090 N.ar  420  TRP420     -0.2442
    103  CE2       -3.1550   -4.8530   13.1530 C.ar  420  TRP420      0.0810
    104  CE3       -2.9690   -6.1980   11.1530 C.ar  420  TRP420      0.0012
    105  CZ2       -4.2250   -5.6150   13.6180 C.ar  420  TRP420      0.0191
    106  CZ3       -4.0340   -6.9400   11.6160 C.ar  420  TRP420      0.0001
    107  CH2       -4.6470   -6.6490   12.8340 C.ar  420  TRP420      0.0015
    108  N         -0.3540   -1.8760   22.2140 N.3   424  ASN424     -0.1240
    109  CA        -1.2480   -1.4500   23.2870 C.3   424  ASN424      0.1653
    110  C         -0.6840   -0.2620   24.0590 C.2   424  ASN424      0.2266
    111  O         -1.2310    0.1480   25.0850 O.2   424  ASN424     -0.2867
    112  CB        -1.5120   -2.6130   24.2340 C.3   424  ASN424      0.1155
    113  CG        -2.3600   -3.6890   23.5960 C.2   424  ASN424      0.2627
    114  OD1       -3.4680   -3.4180   23.1330 O.2   424  ASN424     -0.2716
    115  ND2       -1.8450   -4.9160   23.5620 N.am  424  ASN424     -0.0877
    116  N         -4.2820    4.5090   13.1620 N.3   481  HIS481     -0.1226
    117  CA        -5.4180    3.8170   13.7670 C.3   481  HIS481      0.1752
    118  C         -5.2420    3.7960   15.2800 C.2   481  HIS481      0.2596
    119  O         -4.2990    3.1790   15.7880 O.2   481  HIS481     -0.2718
    120  CB        -5.5490    2.3910   13.2210 C.3   481  HIS481      0.0759
    121  CG        -6.8450    1.7310   13.5800 C.ar  481  HIS481      0.0818
    122  ND1       -8.0220    1.9870   12.9080 N.ar  481  HIS481     -0.2268
    123  CD2       -7.1570    0.8530   14.5600 C.ar  481  HIS481      0.1154
    124  CE1       -8.9980    1.2830   13.4490 C.ar  481  HIS481      0.1986
    125  NE2       -8.4980    0.5820   14.4510 N.ar  481  HIS481     -0.2212
    126  N         -6.1480    4.4750   15.9870 N.am  482  ALA482     -0.1966
    127  CA        -6.0320    4.6860   17.4310 C.3   482  ALA482      0.1728
    128  C         -7.0330    3.8340   18.2070 C.2   482  ALA482      0.2616
    129  O         -8.1190    3.5330   17.7110 O.2   482  ALA482     -0.2715
    130  CB        -6.2230    6.1550   17.7660 C.3   482  ALA482      0.0334
    131  N         -6.6620    3.4570   19.4290 N.am  483  ALA483     -0.1977
    132  CA        -7.4360    2.4960   20.2180 C.3   483  ALA483      0.1597
    133  C         -8.7270    3.0750   20.8020 C.2   483  ALA483      0.2287
    134  O         -9.0200    4.2600   20.6330 O.2   483  ALA483     -0.2864
    135  CB        -6.5660    1.8990   21.3230 C.3   483  ALA483      0.0319
@<TRIPOS>BOND
     1    53    54    1
     2    54    57    1
     3    54    55    1
     4    57    58    1
     5    59    58   ar
     6    59    61   ar
     7    55    56    2
     8    58    60   ar
     9    31    32    1
    10    61    62   ar
    11    94    95    1
    12    34    33    2
    13    32    33    1
    14    32    35    1
    15    60    62   ar
    16    60    63   ar
    17    62    64   ar
    18    98    95    1
    19    98    99    1
    20    95    96    1
    21   104   106   ar
    22   104   101   ar
    23    83    84    1
    24    63    65   ar
    25    35    36    1
    26    35    37    1
    27   106   107   ar
    28    64    66   ar
    29    99   101   ar
    30    99   100   ar
    31   101   103   ar
    32    96    97    2
    33    36    38    1
    34    67    68    1
    35    15    16    1
    36    84    85    1
    37    84    87    1
    38    65    66   ar
    39    85    86    2
    40   107   105   ar
    41   100   102   ar
    42   122   124   ar
    43   122   121   ar
    44   103   105   ar
    45   103   102   ar
    46   116   117    1
    47   120   121    1
    48   120   117    1
    49    18    17    2
    50   124   125   ar
    51    68    71    1
    52    68    69    1
    53    16    17    1
    54    16    19    1
    55   121   123   ar
    56    87    88    1
    57   117   118    1
    58    17    23   am
    59    71    72    1
    60    70    69    2
    61    69    75   am
    62   125   123   ar
    63    19    20    1
    64    23    24    1
    65    88    89    1
    66    24    25    1
    67    24    27    1
    68    72    73   ar
    69    72    74   ar
    70    26    25    2
    71   118   119    2
    72   118   126   am
    73    20    21   ar
    74    20    22   ar
    75    75    76    1
    76    29    27    1
    77   126   127    1
    78    89    90    1
    79    77    76    1
    80    77    78    2
    81    27    28    1
    82    76    79    1
    83    90    91    2
    84     1     2    1
    85    79    80    1
    86     4     3    2
    87   127   130    1
    88   127   128    1
    89    80    81    1
    90     2     3    1
    91     2     5    1
    92    28    30    1
    93   129   128    2
    94    91    93    1
    95    91    92    1
    96   128   131   am
    97    81    82    1
    98     5     6    1
    99    45    47   ar
   100    45    44   ar
   101     7     6   ar
   102     7     9   ar
   103    47    48   ar
   104   131   132    1
   105     6     8   ar
   106     9    10   ar
   107    44    43    1
   108    44    46   ar
   109   132   133    1
   110   132   135    1
   111    43    40    1
   112    48    46   ar
   113    48    50   ar
   114     8    10   ar
   115     8    11   ar
   116   134   133    2
   117    10    12   ar
   118    46    49   ar
   119    50    52   ar
   120    11    13   ar
   121    39    40    1
   122    40    41    1
   123    41    42    2
   124    12    14   ar
   125   108   109    1
   126    49    51   ar
   127    13    14   ar
   128    52    51   ar
   129   114   113    2
   130   109   110    1
   131   109   112    1
   132   115   113   am
   133   113   112    1
   134   110   111    2
