@<TRIPOS>MOLECULE
tmp/3nt1A04.pdb
 181 173 0 0 0
SMALL
GASTEIGER

@<TRIPOS>ATOM
      1  N        -48.6190  -60.6040  -17.4850 N.3    61  LEU61      -0.1245
      2  CA       -47.2930  -60.8710  -18.0500 C.3    61  LEU61       0.1561
      3  C        -46.2470  -61.2320  -16.9940 C.2    61  LEU61       0.2260
      4  O        -45.2110  -61.8140  -17.3260 O.2    61  LEU61      -0.2867
      5  CB       -46.7990  -59.6650  -18.8660 C.3    61  LEU61       0.0270
      6  CG       -47.4300  -59.5190  -20.2550 C.3    61  LEU61       0.0019
      7  CD1      -47.3020  -58.0890  -20.7820 C.3    61  LEU61       0.0001
      8  CD2      -46.8080  -60.5130  -21.2350 C.3    61  LEU61       0.0001
      9  N        -45.8020  -61.5960  -29.7140 N.3    82  MET82      -0.1245
     10  CA       -44.7630  -60.6050  -29.9670 C.3    82  MET82       0.1570
     11  C        -45.1940  -59.6530  -31.0760 C.2    82  MET82       0.2261
     12  O        -44.9390  -58.4580  -30.9920 O.2    82  MET82      -0.2867
     13  CB       -43.4250  -61.2550  -30.3320 C.3    82  MET82       0.0387
     14  CG       -42.2580  -60.2590  -30.3830 C.3    82  MET82       0.0595
     15  SD       -41.8750  -59.5900  -28.7540 S.3    82  MET82      -0.1393
     16  CE       -40.9850  -58.0880  -29.1950 C.3    82  MET82       0.0692
     17  N        -47.4230  -57.1560  -29.4780 N.3    85  VAL85      -0.1245
     18  CA       -46.6200  -56.2260  -28.6780 C.3    85  VAL85       0.1561
     19  C        -46.0160  -55.1430  -29.5730 C.2    85  VAL85       0.2260
     20  O        -46.1190  -53.9580  -29.2720 O.2    85  VAL85      -0.2867
     21  CB       -45.4840  -56.9360  -27.9060 C.3    85  VAL85       0.0252
     22  CG1      -44.5420  -55.9090  -27.2730 C.3    85  VAL85       0.0019
     23  CG2      -46.0580  -57.8640  -26.8410 C.3    85  VAL85       0.0019
     24  N        -47.7570  -51.2320  -29.5290 N.3    89  ARG89      -0.1245
     25  CA       -46.8450  -50.2030  -29.0170 C.3    89  ARG89       0.1563
     26  C        -46.5370  -49.1500  -30.0760 C.2    89  ARG89       0.2260
     27  O        -46.5770  -47.9510  -29.8020 O.2    89  ARG89      -0.2867
     28  CB       -45.5280  -50.8240  -28.5400 C.3    89  ARG89       0.0307
     29  CG       -45.6290  -51.6990  -27.2970 C.3    89  ARG89       0.0489
     30  CD       -46.2330  -50.9570  -26.1590 C.3    89  ARG89       0.2205
     31  NE       -46.0770  -51.6240  -24.8710 N.pl3  89  ARG89      -0.0865
     32  CZ       -46.6430  -51.1790  -23.7540 C.cat  89  ARG89       0.5346
     33  NH1      -47.4060  -50.0930  -23.7900 N.pl3  89  ARG89       0.1354
     34  NH2      -46.4570  -51.8140  -22.6060 N.pl3  89  ARG89       0.1354
     35  N        -31.9300  -57.0170  -22.7900 N.3   317  TYR317     -0.1227
     36  CA       -32.0430  -55.7540  -22.0550 C.3   317  TYR317      0.1736
     37  C        -33.5030  -55.4260  -21.7360 C.2   317  TYR317      0.2595
     38  O        -33.8790  -55.3130  -20.5650 O.2   317  TYR317     -0.2718
     39  CB       -31.3650  -54.6530  -22.8720 C.3   317  TYR317      0.0548
     40  CG       -31.5410  -53.2290  -22.4030 C.ar  317  TYR317     -0.0200
     41  CD1      -30.7610  -52.7120  -21.3760 C.ar  317  TYR317     -0.0009
     42  CD2      -32.4480  -52.3800  -23.0300 C.ar  317  TYR317     -0.0009
     43  CE1      -30.9030  -51.3980  -20.9620 C.ar  317  TYR317      0.0417
     44  CE2      -32.5940  -51.0600  -22.6320 C.ar  317  TYR317      0.0417
     45  CZ       -31.8230  -50.5750  -21.5970 C.ar  317  TYR317      0.1957
     46  OH       -31.9560  -49.2650  -21.2050 O.3   317  TYR317     -0.2866
     47  N        -34.3270  -55.3000  -22.7720 N.am  318  VAL318     -0.1980
     48  CA       -35.7720  -55.0860  -22.5900 C.3   318  VAL318      0.1595
     49  C        -36.4210  -56.2650  -21.8580 C.2   318  VAL318      0.2287
     50  O        -37.2710  -56.0710  -20.9810 O.2   318  VAL318     -0.2864
     51  CB       -36.4850  -54.8380  -23.9390 C.3   318  VAL318      0.0276
     52  CG1      -38.0150  -54.8830  -23.7660 C.3   318  VAL318      0.0022
     53  CG2      -36.0540  -53.5030  -24.5280 C.3   318  VAL318      0.0022
     54  N        -35.6800  -55.6530  -18.1100 N.3   321  LEU321     -0.1231
     55  CA       -36.3520  -54.5200  -17.4750 C.3   321  LEU321      0.1693
     56  C        -37.8810  -54.6670  -17.4990 C.2   321  LEU321      0.2592
     57  O        -38.5650  -54.1130  -16.6360 O.2   321  LEU321     -0.2718
     58  CB       -35.8910  -53.1900  -18.0760 C.3   321  LEU321      0.0284
     59  CG       -36.2500  -52.8500  -19.5140 C.3   321  LEU321      0.0019
     60  CD1      -37.6920  -52.3450  -19.6330 C.3   321  LEU321      0.0001
     61  CD2      -35.2660  -51.8030  -20.0550 C.3   321  LEU321      0.0001
     62  N        -38.4090  -55.4230  -18.4650 N.am  322  SER322     -0.1952
     63  CA       -39.8550  -55.6630  -18.5500 C.3   322  SER322      0.1924
     64  C        -40.3630  -56.4650  -17.3620 C.2   322  SER322      0.2314
     65  O        -41.4850  -56.2470  -16.8840 O.2   322  SER322     -0.2863
     66  CB       -40.2260  -56.4090  -19.8390 C.3   322  SER322      0.2116
     67  OG       -39.8520  -57.7770  -19.7780 O.3   322  SER322     -0.2180
     68  N        -41.1430  -59.5460  -17.6460 N.3   324  TYR324     -0.1241
     69  CA       -42.1630  -60.4670  -18.1500 C.3   324  TYR324      0.1605
     70  C        -41.6460  -61.8940  -18.1880 C.2   324  TYR324      0.2264
     71  O        -40.4620  -62.1260  -18.4280 O.2   324  TYR324     -0.2867
     72  CB       -42.6370  -60.0830  -19.5590 C.3   324  TYR324      0.0534
     73  CG       -43.1850  -58.6790  -19.7120 C.ar  324  TYR324     -0.0201
     74  CD1      -43.6690  -57.9580  -18.6190 C.ar  324  TYR324     -0.0009
     75  CD2      -43.2450  -58.0840  -20.9630 C.ar  324  TYR324     -0.0009
     76  CE1      -44.1670  -56.6780  -18.7710 C.ar  324  TYR324      0.0417
     77  CE2      -43.7450  -56.8120  -21.1250 C.ar  324  TYR324      0.0417
     78  CZ       -44.2040  -56.1080  -20.0280 C.ar  324  TYR324      0.1957
     79  OH       -44.6940  -54.8310  -20.1940 O.3   324  TYR324     -0.2866
     80  N        -39.6090  -62.4420  -25.1050 N.3   328  LEU328     -0.1245
     81  CA       -39.6190  -61.5050  -26.2260 C.3   328  LEU328      0.1561
     82  C        -38.7380  -62.0250  -27.3610 C.2   328  LEU328      0.2260
     83  O        -37.8500  -62.8530  -27.1420 O.2   328  LEU328     -0.2867
     84  CB       -39.1320  -60.1330  -25.7720 C.3   328  LEU328      0.0270
     85  CG       -39.8910  -59.4750  -24.6140 C.3   328  LEU328      0.0019
     86  CD1      -39.1560  -58.2370  -24.1490 C.3   328  LEU328      0.0001
     87  CD2      -41.3210  -59.1360  -25.0190 C.3   328  LEU328      0.0001
     88  N        -38.7980  -38.9310  -24.9350 N.3   350  PHE350     -0.1241
     89  CA       -38.0800  -40.2020  -24.8080 C.3   350  PHE350      0.1605
     90  C        -36.7110  -39.9520  -24.1790 C.2   350  PHE350      0.2264
     91  O        -36.3020  -40.6640  -23.2660 O.2   350  PHE350     -0.2867
     92  CB       -37.9680  -40.8750  -26.1790 C.3   350  PHE350      0.0534
     93  CG       -37.4190  -42.2830  -26.1520 C.ar  350  PHE350     -0.0203
     94  CD1      -37.7850  -43.1910  -25.1670 C.ar  350  PHE350     -0.0042
     95  CD2      -36.5540  -42.7100  -27.1520 C.ar  350  PHE350     -0.0042
     96  CE1      -37.2900  -44.4880  -25.1770 C.ar  350  PHE350     -0.0003
     97  CE2      -36.0530  -44.0150  -27.1620 C.ar  350  PHE350     -0.0003
     98  CZ       -36.4270  -44.8970  -26.1780 C.ar  350  PHE350     -0.0000
     99  N        -37.4620  -39.0520  -20.3680 N.3   353  LEU353     -0.1231
    100  CA       -37.8590  -40.1840  -19.5280 C.3   353  LEU353      0.1693
    101  C        -36.7110  -41.1530  -19.2700 C.2   353  LEU353      0.2592
    102  O        -36.7170  -41.8520  -18.2580 O.2   353  LEU353     -0.2718
    103  CB       -39.0740  -40.9180  -20.1090 C.3   353  LEU353      0.0284
    104  CG       -38.9250  -41.7850  -21.3600 C.3   353  LEU353      0.0019
    105  CD1      -38.3240  -43.1750  -21.0330 C.3   353  LEU353      0.0001
    106  CD2      -40.2820  -41.9440  -22.0440 C.3   353  LEU353      0.0001
    107  N        -35.7150  -41.1640  -20.1630 N.am  354  TYR354     -0.1976
    108  CA       -34.5640  -42.0690  -20.0510 C.3   354  TYR354      0.1639
    109  C        -33.4280  -41.5280  -19.1550 C.2   354  TYR354      0.2290
    110  O        -32.3460  -42.1250  -19.0950 O.2   354  TYR354     -0.2864
    111  CB       -34.0040  -42.3720  -21.4460 C.3   354  TYR354      0.0560
    112  CG       -33.8930  -43.8420  -21.7960 C.ar  354  TYR354     -0.0198
    113  CD1      -34.5050  -44.3450  -22.9350 C.ar  354  TYR354     -0.0009
    114  CD2      -33.1720  -44.7300  -20.9990 C.ar  354  TYR354     -0.0009
    115  CE1      -34.4010  -45.6880  -23.2790 C.ar  354  TYR354      0.0417
    116  CE2      -33.0600  -46.0730  -21.3430 C.ar  354  TYR354      0.0417
    117  CZ       -33.6850  -46.5440  -22.4830 C.ar  354  TYR354      0.1957
    118  OH       -33.5860  -47.8730  -22.8420 O.3   354  TYR354     -0.2866
    119  N        -32.2320  -41.9620  -16.2530 N.3   356  TRP356     -0.1241
    120  CA       -32.4070  -42.9460  -15.1870 C.3   356  TRP356      0.1605
    121  C        -31.2820  -42.8720  -14.1550 C.2   356  TRP356      0.2264
    122  O        -30.6980  -43.8870  -13.7760 O.2   356  TRP356     -0.2867
    123  CB       -32.4850  -44.3570  -15.7790 C.3   356  TRP356      0.0550
    124  CG       -33.7070  -44.6310  -16.6140 C.ar  356  TRP356      0.0003
    125  CD1      -34.8250  -43.8500  -16.7300 C.ar  356  TRP356      0.0946
    126  CD2      -33.9490  -45.7960  -17.4090 C.ar  356  TRP356      0.0152
    127  NE1      -35.7360  -44.4520  -17.5660 N.ar  356  TRP356     -0.2442
    128  CE2      -35.2270  -45.6480  -17.9940 C.ar  356  TRP356      0.0810
    129  CE3      -33.2090  -46.9490  -17.6880 C.ar  356  TRP356      0.0012
    130  CZ2      -35.7780  -46.6100  -18.8480 C.ar  356  TRP356      0.0191
    131  CZ3      -33.7600  -47.9120  -18.5390 C.ar  356  TRP356      0.0001
    132  CH2      -35.0290  -47.7330  -19.1060 C.ar  356  TRP356      0.0015
    133  N        -39.8860  -49.6760  -12.1710 N.3   487  PHE487     -0.1241
    134  CA       -40.6340  -48.5650  -12.7610 C.3   487  PHE487      0.1605
    135  C        -42.1010  -48.5940  -12.3750 C.2   487  PHE487      0.2264
    136  O        -42.6440  -49.6500  -12.0490 O.2   487  PHE487     -0.2867
    137  CB       -40.6070  -48.6410  -14.2950 C.3   487  PHE487      0.0534
    138  CG       -39.2430  -48.5550  -14.9080 C.ar  487  PHE487     -0.0203
    139  CD1      -38.3140  -47.6170  -14.4780 C.ar  487  PHE487     -0.0042
    140  CD2      -38.9050  -49.3910  -15.9650 C.ar  487  PHE487     -0.0042
    141  CE1      -37.0670  -47.5370  -15.0660 C.ar  487  PHE487     -0.0003
    142  CE2      -37.6580  -49.3100  -16.5640 C.ar  487  PHE487     -0.0003
    143  CZ       -36.7330  -48.3840  -16.1080 C.ar  487  PHE487     -0.0000
    144  N        -43.7110  -44.8020  -16.8290 N.3   491  MET491     -0.1230
    145  CA       -42.4280  -45.0860  -17.4780 C.3   491  MET491      0.1702
    146  C        -42.5630  -46.1830  -18.5380 C.2   491  MET491      0.2592
    147  O        -42.0200  -46.0610  -19.6280 O.2   491  MET491     -0.2718
    148  CB       -41.3620  -45.4900  -16.4570 C.3   491  MET491      0.0401
    149  CG       -39.9720  -45.6520  -17.0540 C.3   491  MET491      0.0596
    150  SD       -39.1930  -44.0620  -17.4040 S.3   491  MET491     -0.1393
    151  CE       -38.6630  -43.5970  -15.7670 C.3   491  MET491      0.0692
    152  N        -43.3020  -47.2420  -18.2240 N.am  492  VAL492     -0.1980
    153  CA       -43.4270  -48.3640  -19.1450 C.3   492  VAL492      0.1595
    154  C        -44.2900  -47.9910  -20.3490 C.2   492  VAL492      0.2287
    155  O        -43.9280  -48.2660  -21.4920 O.2   492  VAL492     -0.2864
    156  CB       -44.0170  -49.6030  -18.4520 C.3   492  VAL492      0.0276
    157  CG1      -44.1770  -50.7430  -19.4480 C.3   492  VAL492      0.0022
    158  CG2      -43.1330  -50.0250  -17.2760 C.3   492  VAL492      0.0022
    159  N        -42.2870  -45.3560  -22.3430 N.3   495  GLY495     -0.1210
    160  CA       -40.9980  -45.8870  -22.7920 C.3   495  GLY495      0.1956
    161  C        -41.1070  -46.9470  -23.8710 C.2   495  GLY495      0.2611
    162  O        -40.3550  -46.9260  -24.8410 O.2   495  GLY495     -0.2717
    163  N        -42.0560  -47.8720  -23.7110 N.am  496  ALA496     -0.1979
    164  CA       -42.1580  -49.0210  -24.6100 C.3   496  ALA496      0.1597
    165  C        -42.4750  -48.6310  -26.0630 C.2   496  ALA496      0.2287
    166  O        -41.7760  -49.0690  -26.9750 O.2   496  ALA496     -0.2864
    167  CB       -43.1660  -50.0420  -24.0730 C.3   496  ALA496      0.0319
    168  N        -39.4090  -46.9930  -27.5650 N.3   499  SER499     -0.1202
    169  CA       -38.3080  -47.9500  -27.6440 C.3   499  SER499      0.2020
    170  C        -38.4730  -48.9350  -28.8040 C.2   499  SER499      0.2618
    171  O        -37.5790  -49.0800  -29.6480 O.2   499  SER499     -0.2717
    172  CB       -38.1820  -48.7060  -26.3130 C.3   499  SER499      0.2103
    173  OG       -37.2660  -49.7790  -26.4090 O.3   499  SER499     -0.2182
    174  N        -39.6130  -49.6100  -28.8430 N.am  500  LEU500     -0.1979
    175  CA       -39.8350  -50.6730  -29.8260 C.3   500  LEU500      0.1596
    176  C        -39.9460  -50.1210  -31.2490 C.2   500  LEU500      0.2287
    177  O        -39.4730  -50.7410  -32.1990 O.2   500  LEU500     -0.2864
    178  CB       -41.0720  -51.4940  -29.4590 C.3   500  LEU500      0.0297
    179  CG       -41.0000  -52.2070  -28.0980 C.3   500  LEU500      0.0022
    180  CD1      -42.2790  -52.9830  -27.8170 C.3   500  LEU500      0.0001
    181  CD2      -39.7820  -53.1350  -28.0220 C.3   500  LEU500      0.0001
@<TRIPOS>BOND
     1   177   176    2
     2   176   175    1
     3    11    12    2
     4    11    10    1
     5    14    13    1
     6    14    15    1
     7    13    10    1
     8    26    27    2
     9    26    25    1
    10    10     9    1
    11   175   178    1
    12   175   174    1
    13   171   170    2
    14    19    20    2
    15    19    18    1
    16    24    25    1
    17    17    18    1
    18   178   179    1
    19    16    15    1
    20    25    28    1
    21   174   170   am
    22   170   169    1
    23    18    21    1
    24    28    29    1
    25   179   181    1
    26   179   180    1
    27    21    22    1
    28    21    23    1
    29   169   168    1
    30   169   172    1
    31    82    83    2
    32    82    81    1
    33    29    30    1
    34    97    95   ar
    35    97    98   ar
    36    95    93   ar
    37   166   165    2
    38   173   172    1
    39    81    84    1
    40    81    80    1
    41    92    93    1
    42    92    89    1
    43    98    96   ar
    44    30    31    1
    45    93    94   ar
    46   165   164    1
    47    84    85    1
    48    96    94   ar
    49    87    85    1
    50    88    89    1
    51    31    32    2
    52   162   161    2
    53    89    90    1
    54    85    86    1
    55   164   167    1
    56   164   163    1
    57    53    51    1
    58    90    91    2
    59    51    52    1
    60    51    48    1
    61   161   163   am
    62   161   160    1
    63    33    32    1
    64    32    34    1
    65   115   113   ar
    66   115   117   ar
    67    42    44   ar
    68    42    40   ar
    69   113   112   ar
    70    39    40    1
    71    39    36    1
    72   118   117    1
    73   160   159    1
    74    35    36    1
    75    47    48    1
    76    47    37   am
    77    44    45   ar
    78    48    49    1
    79   117   116   ar
    80    40    41   ar
    81    36    37    1
    82   106   104    1
    83    49    50    2
    84   112   111    1
    85   112   114   ar
    86    37    38    2
    87    45    46    1
    88    45    43   ar
    89   155   154    2
    90   111   108    1
    91    41    43   ar
    92   104   105    1
    93   104   103    1
    94   116   114   ar
    95     8     6    1
    96    77    75   ar
    97    77    78   ar
    98    75    73   ar
    99     7     6    1
   100    99   100    1
   101   154   153    1
   102     6     5    1
   103    79    78    1
   104   107   108    1
   105   107   101   am
   106   103   100    1
   107    61    59    1
   108   108   109    1
   109    78    76   ar
   110    66    67    1
   111    66    63    1
   112    73    72    1
   113    73    74   ar
   114    60    59    1
   115   147   146    2
   116    72    69    1
   117   100   101    1
   118    59    58    1
   119   157   156    1
   120   101   102    2
   121   109   110    2
   122   153   156    1
   123   153   152    1
   124   132   130   ar
   125   132   131   ar
   126     5     2    1
   127   130   128   ar
   128    76    74   ar
   129    63    62    1
   130    63    64    1
   131   131   129   ar
   132   146   152   am
   133   146   145    1
   134    62    56   am
   135   156   158    1
   136    71    70    2
   137    70    69    1
   138    69    68    1
   139    54    55    1
   140    58    55    1
   141     2     1    1
   142     2     3    1
   143   128   127   ar
   144   128   126   ar
   145   129   126   ar
   146   127   125   ar
   147    56    55    1
   148    56    57    2
   149   145   144    1
   150   145   148    1
   151   126   124   ar
   152   150   149    1
   153   150   151    1
   154    64    65    2
   155     4     3    2
   156   149   148    1
   157   125   124   ar
   158   124   123    1
   159   142   143   ar
   160   142   140   ar
   161   119   120    1
   162   143   141   ar
   163   140   138   ar
   164   123   120    1
   165   120   121    1
   166   141   139   ar
   167   138   139   ar
   168   138   137    1
   169   137   134    1
   170   121   122    2
   171   134   135    1
   172   134   133    1
   173   135   136    2
