@<TRIPOS>MOLECULE
tmp/3ntbB05.pdb
 181 173 0 0 0
SMALL
GASTEIGER

@<TRIPOS>ATOM
      1  N        -10.5940   62.6150  -15.9170 N.3    61  LEU61      -0.1245
      2  CA       -11.1220   62.7340  -14.5580 C.3    61  LEU61       0.1561
      3  C        -10.0380   62.9370  -13.4940 C.2    61  LEU61       0.2260
      4  O        -10.3340   63.3920  -12.3870 O.2    61  LEU61      -0.2867
      5  CB       -11.9870   61.5170  -14.2110 C.3    61  LEU61       0.0270
      6  CG       -13.3670   61.4080  -14.8710 C.3    61  LEU61       0.0019
      7  CD1      -13.8210   59.9590  -14.9340 C.3    61  LEU61       0.0001
      8  CD2      -14.4010   62.2710  -14.1510 C.3    61  LEU61       0.0001
      9  N        -22.7990   63.3240  -12.8970 N.3    82  MET82      -0.1245
     10  CA       -23.0920   62.2790  -11.9190 C.3    82  MET82       0.1570
     11  C        -24.2580   61.4010  -12.3750 C.2    82  MET82       0.2261
     12  O        -24.2690   60.1980  -12.1140 O.2    82  MET82      -0.2867
     13  CB       -23.3770   62.8770  -10.5360 C.3    82  MET82       0.0387
     14  CG       -23.4470   61.8480   -9.4100 C.3    82  MET82       0.0595
     15  SD       -21.8770   61.0020   -9.1400 S.3    82  MET82      -0.1393
     16  CE       -22.4220   59.4870   -8.3580 C.3    82  MET82       0.0692
     17  N        -22.7270   58.9460  -14.9570 N.3    85  VAL85      -0.1245
     18  CA       -21.9120   57.8750  -14.3640 C.3    85  VAL85       0.1561
     19  C        -22.7720   56.7860  -13.7160 C.2    85  VAL85       0.2260
     20  O        -22.3960   55.6180  -13.7220 O.2    85  VAL85      -0.2867
     21  CB       -20.8180   58.3870  -13.3640 C.3    85  VAL85       0.0252
     22  CG1      -20.0220   59.5470  -13.9600 C.3    85  VAL85       0.0019
     23  CG2      -21.4130   58.7680  -12.0140 C.3    85  VAL85       0.0019
     24  N        -22.8200   53.0500  -15.7720 N.3    89  ARG89      -0.1245
     25  CA       -22.2850   51.9320  -14.9980 C.3    89  ARG89       0.1563
     26  C        -23.3460   50.8620  -14.7610 C.2    89  ARG89       0.2260
     27  O        -23.0480   49.6680  -14.8080 O.2    89  ARG89      -0.2867
     28  CB       -21.6910   52.4020  -13.6650 C.3    89  ARG89       0.0307
     29  CG       -20.4380   53.2710  -13.7850 C.3    89  ARG89       0.0489
     30  CD       -19.2710   52.5370  -14.4240 C.3    89  ARG89       0.2205
     31  NE       -18.0390   53.3200  -14.3530 N.pl3  89  ARG89      -0.0865
     32  CZ       -16.8790   52.9480  -14.8840 C.cat  89  ARG89       0.5346
     33  NH1      -16.7770   51.7990  -15.5400 N.pl3  89  ARG89       0.1354
     34  NH2      -15.8160   53.7290  -14.7610 N.pl3  89  ARG89       0.1354
     35  N        -15.8030   57.5140    0.4530 N.3   317  TYR317     -0.1227
     36  CA       -15.1150   56.2430    0.2190 C.3   317  TYR317      0.1736
     37  C        -14.7780   56.0380   -1.2600 C.2   317  TYR317      0.2595
     38  O        -13.6090   55.8820   -1.6160 O.2   317  TYR317     -0.2718
     39  CB       -15.9670   55.0960    0.7820 C.3   317  TYR317      0.0548
     40  CG       -15.4940   53.6890    0.4880 C.ar  317  TYR317     -0.0200
     41  CD1      -14.5360   53.0690    1.2900 C.ar  317  TYR317     -0.0009
     42  CD2      -16.0420   52.9590   -0.5660 C.ar  317  TYR317     -0.0009
     43  CE1      -14.1170   51.7650    1.0320 C.ar  317  TYR317      0.0417
     44  CE2      -15.6280   51.6590   -0.8330 C.ar  317  TYR317      0.0417
     45  CZ       -14.6680   51.0700   -0.0310 C.ar  317  TYR317      0.1957
     46  OH       -14.2600   49.7840   -0.2980 O.3   317  TYR317     -0.2866
     47  N        -15.8050   56.0480   -2.1100 N.am  318  VAL318     -0.1980
     48  CA       -15.6360   55.8980   -3.5570 C.3   318  VAL318      0.1595
     49  C        -14.9420   57.1300   -4.1520 C.2   318  VAL318      0.2287
     50  O        -14.1640   57.0110   -5.1030 O.2   318  VAL318     -0.2864
     51  CB       -16.9940   55.6180   -4.2690 C.3   318  VAL318      0.0276
     52  CG1      -16.8600   55.6960   -5.7800 C.3   318  VAL318      0.0022
     53  CG2      -17.5370   54.2520   -3.8700 C.3   318  VAL318      0.0022
     54  N        -11.4420   56.6160   -3.5980 N.3   321  LEU321     -0.1231
     55  CA       -11.0660   55.4120   -4.3260 C.3   321  LEU321      0.1693
     56  C        -10.8850   55.6570   -5.8220 C.2   321  LEU321      0.2592
     57  O         -9.9540   55.1310   -6.4340 O.2   321  LEU321     -0.2718
     58  CB       -12.1120   54.3210   -4.0890 C.3   321  LEU321      0.0284
     59  CG       -11.7290   52.8780   -4.4070 C.3   321  LEU321      0.0019
     60  CD1      -10.3670   52.5460   -3.8160 C.3   321  LEU321      0.0001
     61  CD2      -12.7980   51.9380   -3.8760 C.3   321  LEU321      0.0001
     62  N        -11.7800   56.4540   -6.4000 N.am  322  SER322     -0.1952
     63  CA       -11.7280   56.7930   -7.8180 C.3   322  SER322      0.1924
     64  C        -10.5110   57.6550   -8.1390 C.2   322  SER322      0.2314
     65  O         -9.8890   57.4950   -9.1900 O.2   322  SER322     -0.2863
     66  CB       -13.0070   57.5210   -8.2370 C.3   322  SER322      0.2116
     67  OG       -13.0840   58.8090   -7.6460 O.3   322  SER322     -0.2180
     68  N        -10.7130   60.8570   -8.5870 N.3   324  TYR324     -0.1241
     69  CA       -11.1720   61.8860   -9.5160 C.3   324  TYR324      0.1605
     70  C        -11.1570   63.2680   -8.8710 C.2   324  TYR324      0.2264
     71  O        -11.2690   63.3940   -7.6480 O.2   324  TYR324     -0.2867
     72  CB       -12.5870   61.5830  -10.0350 C.3   324  TYR324      0.0534
     73  CG       -12.7790   60.2460  -10.7320 C.ar  324  TYR324     -0.0201
     74  CD1      -11.7000   59.5360  -11.2660 C.ar  324  TYR324     -0.0009
     75  CD2      -14.0560   59.7070  -10.8840 C.ar  324  TYR324     -0.0009
     76  CE1      -11.8890   58.3150  -11.9090 C.ar  324  TYR324      0.0417
     77  CE2      -14.2550   58.4900  -11.5270 C.ar  324  TYR324      0.0417
     78  CZ       -13.1700   57.8000  -12.0370 C.ar  324  TYR324      0.1957
     79  OH       -13.3680   56.5970  -12.6740 O.3   324  TYR324     -0.2866
     80  N        -18.2180   63.6840   -6.7030 N.3   328  LEU328     -0.1245
     81  CA       -19.3510   62.7650   -6.8010 C.3   328  LEU328      0.1561
     82  C        -20.4770   63.1940   -5.8660 C.2   328  LEU328      0.2260
     83  O        -20.2330   63.8350   -4.8380 O.2   328  LEU328     -0.2867
     84  CB       -18.9220   61.3280   -6.4760 C.3   328  LEU328      0.0270
     85  CG       -17.8040   60.6590   -7.2850 C.3   328  LEU328      0.0019
     86  CD1      -17.3910   59.3560   -6.6180 C.3   328  LEU328      0.0001
     87  CD2      -18.2140   60.4100   -8.7300 C.3   328  LEU328      0.0001
     88  N        -18.1190   40.1140   -7.9520 N.3   350  PHE350     -0.1241
     89  CA       -17.9920   41.2920   -7.0910 C.3   350  PHE350      0.1605
     90  C        -17.3590   40.9180   -5.7500 C.2   350  PHE350      0.2264
     91  O        -16.5280   41.6590   -5.2260 O.2   350  PHE350     -0.2867
     92  CB       -19.3630   41.9480   -6.8870 C.3   350  PHE350      0.0534
     93  CG       -19.3150   43.2930   -6.2020 C.ar  350  PHE350     -0.0203
     94  CD1      -18.2950   44.2050   -6.4720 C.ar  350  PHE350     -0.0042
     95  CD2      -20.3230   43.6650   -5.3170 C.ar  350  PHE350     -0.0042
     96  CE1      -18.2690   45.4520   -5.8500 C.ar  350  PHE350     -0.0003
     97  CE2      -20.3030   44.9090   -4.6880 C.ar  350  PHE350     -0.0003
     98  CZ       -19.2750   45.8040   -4.9550 C.ar  350  PHE350     -0.0000
     99  N        -13.4740   40.0590   -6.6340 N.3   353  LEU353     -0.1231
    100  CA       -12.6490   41.2410   -6.9040 C.3   353  LEU353      0.1693
    101  C        -12.3840   42.0810   -5.6530 C.2   353  LEU353      0.2592
    102  O        -11.4060   42.8280   -5.5990 O.2   353  LEU353     -0.2718
    103  CB       -13.2540   42.1010   -8.0270 C.3   353  LEU353      0.0284
    104  CG       -14.5520   42.8920   -7.8220 C.3   353  LEU353      0.0019
    105  CD1      -14.3020   44.2570   -7.1760 C.3   353  LEU353      0.0001
    106  CD2      -15.2600   43.0660   -9.1520 C.3   353  LEU353      0.0001
    107  N        -13.2520   41.9410   -4.6530 N.am  354  TYR354     -0.1976
    108  CA       -13.1890   42.7540   -3.4410 C.3   354  TYR354      0.1639
    109  C        -12.3040   42.1600   -2.3390 C.2   354  TYR354      0.2290
    110  O        -12.2460   42.6950   -1.2280 O.2   354  TYR354     -0.2864
    111  CB       -14.5980   43.0100   -2.9020 C.3   354  TYR354      0.0560
    112  CG       -14.9000   44.4660   -2.6210 C.ar  354  TYR354     -0.0198
    113  CD1      -15.9320   45.1200   -3.2910 C.ar  354  TYR354     -0.0009
    114  CD2      -14.1530   45.1930   -1.6940 C.ar  354  TYR354     -0.0009
    115  CE1      -16.2190   46.4550   -3.0390 C.ar  354  TYR354      0.0417
    116  CE2      -14.4290   46.5300   -1.4410 C.ar  354  TYR354      0.0417
    117  CZ       -15.4610   47.1540   -2.1180 C.ar  354  TYR354      0.1957
    118  OH       -15.7430   48.4750   -1.8670 O.3   354  TYR354     -0.2866
    119  N         -9.4520   42.4620   -1.0310 N.3   356  TRP356     -0.1241
    120  CA        -8.3590   43.4320   -1.0450 C.3   356  TRP356      0.1605
    121  C         -7.4050   43.2450    0.1300 C.2   356  TRP356      0.2264
    122  O         -7.1320   44.1850    0.8790 O.2   356  TRP356     -0.2867
    123  CB        -8.8970   44.8680   -1.0600 C.3   356  TRP356      0.0550
    124  CG        -9.7540   45.2240   -2.2440 C.ar  356  TRP356      0.0003
    125  CD1       -9.9020   44.5140   -3.4030 C.ar  356  TRP356      0.0946
    126  CD2      -10.5500   46.4050   -2.3930 C.ar  356  TRP356      0.0152
    127  NE1      -10.7590   45.1680   -4.2540 N.ar  356  TRP356     -0.2442
    128  CE2      -11.1700   46.3330   -3.6610 C.ar  356  TRP356      0.0810
    129  CE3      -10.8080   47.5150   -1.5740 C.ar  356  TRP356      0.0012
    130  CZ2      -12.0320   47.3270   -4.1310 C.ar  356  TRP356      0.0191
    131  CZ3      -11.6630   48.5060   -2.0430 C.ar  356  TRP356      0.0001
    132  CH2      -12.2650   48.4040   -3.3120 C.ar  356  TRP356      0.0015
    133  N         -5.4910   50.7940   -8.0480 N.3   487  PHE487     -0.1241
    134  CA        -6.0390   49.7430   -8.9050 C.3   487  PHE487      0.1605
    135  C         -5.6490   49.8940  -10.3680 C.2   487  PHE487      0.2264
    136  O         -5.2620   50.9760  -10.8160 O.2   487  PHE487     -0.2867
    137  CB        -7.5710   49.7050   -8.8120 C.3   487  PHE487      0.0534
    138  CG        -8.1000   49.4240   -7.4340 C.ar  487  PHE487     -0.0203
    139  CD1       -7.6100   48.3620   -6.6800 C.ar  487  PHE487     -0.0042
    140  CD2       -9.1150   50.2090   -6.9020 C.ar  487  PHE487     -0.0042
    141  CE1       -8.1140   48.1020   -5.4100 C.ar  487  PHE487     -0.0003
    142  CE2       -9.6220   49.9540   -5.6370 C.ar  487  PHE487     -0.0003
    143  CZ        -9.1170   48.9030   -4.8870 C.ar  487  PHE487     -0.0000
    144  N        -10.1170   46.2740  -12.3600 N.3   491  MET491     -0.1230
    145  CA       -10.7360   46.4620  -11.0470 C.3   491  MET491      0.1702
    146  C        -11.7710   47.5880  -11.0530 C.2   491  MET491      0.2592
    147  O        -12.8770   47.4200  -10.5400 O.2   491  MET491     -0.2718
    148  CB        -9.6700   46.7180   -9.9750 C.3   491  MET491      0.0401
    149  CG       -10.2070   46.7410   -8.5460 C.3   491  MET491      0.0596
    150  SD       -10.6050   45.1110   -7.8820 S.3   491  MET491     -0.1393
    151  CE        -8.9770   44.5100   -7.4340 C.3   491  MET491      0.0692
    152  N        -11.4050   48.7240  -11.6430 N.am  492  VAL492     -0.1980
    153  CA       -12.2870   49.8910  -11.7200 C.3   492  VAL492      0.1595
    154  C        -13.4950   49.6120  -12.6190 C.2   492  VAL492      0.2287
    155  O        -14.6170   50.0000  -12.2960 O.2   492  VAL492     -0.2864
    156  CB       -11.5260   51.1580  -12.2210 C.3   492  VAL492      0.0276
    157  CG1      -12.4500   52.3740  -12.2770 C.3   492  VAL492      0.0022
    158  CG2      -10.3250   51.4550  -11.3320 C.3   492  VAL492      0.0022
    159  N        -15.6250   46.7300  -10.8780 N.3   495  GLY495     -0.1210
    160  CA       -16.0750   47.1540   -9.5560 C.3   495  GLY495      0.1956
    161  C        -17.0980   48.2730   -9.5250 C.2   495  GLY495      0.2611
    162  O        -18.0030   48.2570   -8.6900 O.2   495  GLY495     -0.2717
    163  N        -16.9540   49.2440  -10.4280 N.am  496  ALA496     -0.1979
    164  CA       -17.8630   50.3980  -10.4870 C.3   496  ALA496      0.1597
    165  C        -19.3200   50.0530  -10.8420 C.2   496  ALA496      0.2287
    166  O        -20.2370   50.5840  -10.2120 O.2   496  ALA496     -0.2864
    167  CB       -17.3150   51.4870  -11.4140 C.3   496  ALA496      0.0319
    168  N        -20.7470   48.0970   -7.7300 N.3   499  SER499     -0.1202
    169  CA       -20.8310   48.9910   -6.5740 C.3   499  SER499      0.2020
    170  C        -21.9950   49.9770   -6.6580 C.2   499  SER499      0.2618
    171  O        -22.8470   50.0070   -5.7710 O.2   499  SER499     -0.2717
    172  CB       -19.5080   49.7430   -6.3830 C.3   499  SER499      0.2103
    173  OG       -19.6320   50.7890   -5.4340 O.3   499  SER499     -0.2182
    174  N        -22.0270   50.7710   -7.7270 N.am  500  LEU500     -0.1979
    175  CA       -23.0260   51.8340   -7.8850 C.3   500  LEU500      0.1596
    176  C        -24.4510   51.3050   -8.0290 C.2   500  LEU500      0.2287
    177  O        -25.4000   51.9270   -7.5460 O.2   500  LEU500     -0.2864
    178  CB       -22.6690   52.7480   -9.0620 C.3   500  LEU500      0.0297
    179  CG       -21.3930   53.5880   -8.9370 C.3   500  LEU500      0.0022
    180  CD1      -21.1470   54.3820  -10.2160 C.3   500  LEU500      0.0001
    181  CD2      -21.4400   54.5190   -7.7230 C.3   500  LEU500      0.0001
@<TRIPOS>BOND
     1     1     2    1
     2    24    25    1
     3    33    32    1
     4    25    26    1
     5    25    28    1
     6    17    18    1
     7     7     6    1
     8    32    34    1
     9    32    31    2
    10     6     5    1
    11     6     8    1
    12    27    26    2
    13     2     5    1
    14     2     3    1
    15    30    31    1
    16    30    29    1
    17    18    19    1
    18    18    21    1
    19    22    21    1
    20    29    28    1
    21    20    19    2
    22     3     4    2
    23    21    23    1
    24     9    10    1
    25    79    78    1
    26   154   155    2
    27   154   153    1
    28    11    12    2
    29    11    10    1
    30   144   145    1
    31   157   156    1
    32   156   153    1
    33   156   158    1
    34    78    76   ar
    35    78    77   ar
    36    10    13    1
    37    76    74   ar
    38   153   152    1
    39   152   146   am
    40    77    75   ar
    41   167   164    1
    42    74    73   ar
    43   146   145    1
    44   146   147    2
    45   145   148    1
    46    75    73   ar
    47   159   160    1
    48   165   164    1
    49   165   166    2
    50   136   135    2
    51    73    72    1
    52    13    14    1
    53   164   163    1
    54   163   161   am
    55   135   134    1
    56   180   179    1
    57    72    69    1
    58   148   149    1
    59   160   161    1
    60   161   162    2
    61    69    70    1
    62    69    68    1
    63    14    15    1
    64    65    64    2
    65   106   104    1
    66    15    16    1
    67   178   179    1
    68   178   175    1
    69   179   181    1
    70   134   137    1
    71   134   133    1
    72    70    71    2
    73   137   138    1
    74    87    85    1
    75   149   150    1
    76    66    63    1
    77    66    67    1
    78    64    63    1
    79   176   175    1
    80   176   177    2
    81   103   104    1
    82   103   100    1
    83    88    89    1
    84   175   174    1
    85   150   151    1
    86   104   105    1
    87    63    62    1
    88   168   169    1
    89   174   170   am
    90   138   140   ar
    91   138   139   ar
    92    85    86    1
    93    85    84    1
    94    89    92    1
    95    89    90    1
    96   100    99    1
    97   100   101    1
    98   140   142   ar
    99    92    93    1
   100    81    80    1
   101    81    84    1
   102    81    82    1
   103   139   141   ar
   104   170   169    1
   105   170   171    2
   106   169   172    1
   107    94    93   ar
   108    94    96   ar
   109    57    56    2
   110    62    56   am
   111   172   173    1
   112    93    95   ar
   113    82    83    2
   114    96    98   ar
   115    56    55    1
   116    52    51    1
   117    90    91    2
   118   101   102    2
   119   101   107   am
   120   142   143   ar
   121   141   143   ar
   122    95    97   ar
   123    50    49    2
   124    98    97   ar
   125   107   108    1
   126    59    58    1
   127    59    61    1
   128    59    60    1
   129    55    58    1
   130    55    54    1
   131    51    53    1
   132    51    48    1
   133   127   128   ar
   134   127   125   ar
   135    49    48    1
   136   130   128   ar
   137   130   132   ar
   138   128   126   ar
   139    48    47    1
   140   108   111    1
   141   108   109    1
   142   125   124   ar
   143   132   131   ar
   144   113   115   ar
   145   113   112   ar
   146   115   117   ar
   147   111   112    1
   148   112   114   ar
   149   126   124   ar
   150   126   129   ar
   151   109   110    2
   152   124   123    1
   153   117   118    1
   154   117   116   ar
   155    47    37   am
   156   131   129   ar
   157   114   116   ar
   158    38    37    2
   159    37    36    1
   160   123   120    1
   161   120   119    1
   162   120   121    1
   163    44    42   ar
   164    44    45   ar
   165    42    40   ar
   166    46    45    1
   167    45    43   ar
   168   121   122    2
   169    36    35    1
   170    36    39    1
   171    40    39    1
   172    40    41   ar
   173    43    41   ar
