@<TRIPOS>MOLECULE
tmp/3ntdA02.pdb
 174 167 0 0 0
SMALL
GASTEIGER

@<TRIPOS>ATOM
      1  N         28.4630  -34.0370    5.8150 N.3   379  TYR379     -0.1227
      2  CA        27.5660  -33.0240    6.3040 C.3   379  TYR379      0.1736
      3  C         26.3480  -33.6810    6.8590 C.2   379  TYR379      0.2595
      4  O         25.8250  -34.7640    6.3480 O.2   379  TYR379     -0.2718
      5  CB        27.1450  -32.0200    5.2100 C.3   379  TYR379      0.0548
      6  CG        28.3160  -31.4190    4.4270 C.ar  379  TYR379     -0.0200
      7  CD1       29.0640  -30.3430    4.9390 C.ar  379  TYR379     -0.0009
      8  CD2       28.6760  -31.9230    3.1860 C.ar  379  TYR379     -0.0009
      9  CE1       30.1540  -29.8480    4.2260 C.ar  379  TYR379      0.0417
     10  CE2       29.7570  -31.4020    2.4510 C.ar  379  TYR379      0.0417
     11  CZ        30.4580  -30.3560    2.9830 C.ar  379  TYR379      0.1957
     12  OH        31.5240  -29.8460    2.2880 O.3   379  TYR379     -0.2866
     13  N         25.8670  -33.0420    7.9160 N.am  380  VAL380     -0.1966
     14  CA        24.5050  -33.3030    8.3700 C.3   380  VAL380      0.1727
     15  C         23.8200  -31.9480    8.5500 C.2   380  VAL380      0.2616
     16  O         24.4370  -30.8900    8.7470 O.2   380  VAL380     -0.2715
     17  CB        24.4750  -34.1540    9.7470 C.3   380  VAL380      0.0290
     18  CG1       24.8480  -35.6530    9.5430 C.3   380  VAL380      0.0023
     19  CG2       25.3420  -33.5340   10.7430 C.3   380  VAL380      0.0023
     20  N         22.5090  -31.9820    8.6020 N.am  381  HIS381     -0.1959
     21  CA        21.7360  -30.7870    8.9240 C.3   381  HIS381      0.1787
     22  C         20.6250  -31.3150    9.8490 C.2   381  HIS381      0.2620
     23  O         19.6390  -31.8220    9.4060 O.2   381  HIS381     -0.2715
     24  CB        21.1510  -30.1730    7.6380 C.3   381  HIS381      0.0785
     25  CG        22.2130  -29.8710    6.5940 C.ar  381  HIS381      0.0821
     26  ND1       22.8620  -28.6630    6.5420 N.ar  381  HIS381     -0.2267
     27  CD2       22.6790  -30.5980    5.5520 C.ar  381  HIS381      0.1154
     28  CE1       23.7580  -28.6810    5.5540 C.ar  381  HIS381      0.1986
     29  NE2       23.6590  -29.8470    4.9210 N.ar  381  HIS381     -0.2212
     30  N         20.8820  -31.2100   11.1430 N.am  382  THR382     -0.1951
     31  CA        20.1560  -31.9480   12.1980 C.3   382  THR382      0.1897
     32  C         19.6770  -30.8230   13.2030 C.2   382  THR382      0.2313
     33  O         20.4420  -29.8950   13.5060 O.2   382  THR382     -0.2863
     34  CB        21.1830  -33.0730   12.8010 C.3   382  THR382      0.1794
     35  OG1       20.6820  -33.5840   14.0610 O.3   382  THR382     -0.2208
     36  CG2       22.5650  -32.4500   13.1250 C.3   382  THR382      0.0378
     37  N         10.0190  -31.6390   17.8350 N.3   388  TYR388     -0.1241
     38  CA         8.6610  -31.4310   18.4020 C.3   388  TYR388      0.1605
     39  C          8.5870  -30.4570   19.6170 C.2   388  TYR388      0.2264
     40  O          7.4680  -30.0880   20.0750 O.2   388  TYR388     -0.2867
     41  CB         8.0420  -32.7850   18.7160 C.3   388  TYR388      0.0534
     42  CG         8.8800  -33.5250   19.7590 C.ar  388  TYR388     -0.0201
     43  CD1        8.8850  -33.1130   21.1340 C.ar  388  TYR388     -0.0009
     44  CD2        9.6890  -34.5500   19.3910 C.ar  388  TYR388     -0.0009
     45  CE1        9.6870  -33.7850   22.0650 C.ar  388  TYR388      0.0417
     46  CE2       10.5040  -35.2200   20.2980 C.ar  388  TYR388      0.0417
     47  CZ        10.4870  -34.8230   21.6390 C.ar  388  TYR388      0.1957
     48  OH        11.2760  -35.4720   22.5190 O.3   388  TYR388     -0.2866
     49  N         20.1670  -35.7820   26.7790 N.3   446  TYR446     -0.1241
     50  CA        18.8900  -35.5750   26.0960 C.3   446  TYR446      0.1605
     51  C         17.6910  -35.4190   26.9540 C.2   446  TYR446      0.2264
     52  O         17.2580  -36.3840   27.6440 O.2   446  TYR446     -0.2867
     53  CB        18.6210  -36.7870   25.1850 C.3   446  TYR446      0.0534
     54  CG        17.2890  -36.7350   24.5290 C.ar  446  TYR446     -0.0201
     55  CD1       16.5140  -37.8910   24.4620 C.ar  446  TYR446     -0.0009
     56  CD2       16.7520  -35.5190   24.0090 C.ar  446  TYR446     -0.0009
     57  CE1       15.2810  -37.9070   23.8660 C.ar  446  TYR446      0.0417
     58  CE2       15.4640  -35.5500   23.3530 C.ar  446  TYR446      0.0417
     59  CZ        14.7490  -36.7450   23.2920 C.ar  446  TYR446      0.1957
     60  OH        13.4690  -36.8070   22.6940 O.3   446  TYR446     -0.2866
     61  N         17.4080  -37.6320   20.8600 N.3   453  ALA453     -0.1231
     62  CA        17.8310  -38.9970   21.1190 C.3   453  ALA453      0.1694
     63  C         19.1190  -39.3330   20.4130 C.2   453  ALA453      0.2591
     64  O         19.9490  -40.0530   20.9680 O.2   453  ALA453     -0.2718
     65  CB        16.7790  -40.0550   20.7430 C.3   453  ALA453      0.0304
     66  N         19.3130  -38.7970   19.2380 N.am  454  LYS454     -0.1980
     67  CA        20.5780  -38.9440   18.6110 C.3   454  LYS454      0.1596
     68  C         21.0580  -37.5830   18.2930 C.2   454  LYS454      0.2287
     69  O         20.4160  -36.8560   17.6220 O.2   454  LYS454     -0.2864
     70  CB        20.4880  -39.8390   17.3880 C.3   454  LYS454      0.0298
     71  CG        20.0220  -41.1710   17.7570 C.3   454  LYS454      0.0038
     72  CD        20.0080  -42.1030   16.6830 C.3   454  LYS454      0.0206
     73  CE        18.6840  -42.1710   16.0980 C.3   454  LYS454      0.1093
     74  NZ        17.8280  -41.2270   16.7750 N.3   454  LYS454     -0.1314
     75  N         24.6300  -38.6500   14.6580 N.3   459  GLN459     -0.1245
     76  CA        24.2000  -38.7140   13.2710 C.3   459  GLN459      0.1566
     77  C         25.3960  -38.5540   12.3360 C.2   459  GLN459      0.2260
     78  O         25.5710  -39.3900   11.4780 O.2   459  GLN459     -0.2867
     79  CB        23.1730  -37.6360   12.9820 C.3   459  GLN459      0.0367
     80  CG        21.7980  -37.7780   13.7610 C.3   459  GLN459      0.0905
     81  CD        20.9040  -38.9650   13.3270 C.2   459  GLN459      0.2608
     82  OE1       21.3200  -39.8760   12.6070 O.2   459  GLN459     -0.2717
     83  NE2       19.6020  -38.9300   13.7620 N.am  459  GLN459     -0.0878
     84  N         27.4880  -41.7020   12.4580 N.3   462  PHE462     -0.1227
     85  CA        26.9070  -42.8070   11.6380 C.3   462  PHE462      0.1736
     86  C         27.1680  -42.5630   10.1610 C.2   462  PHE462      0.2595
     87  O         27.5220  -43.4700    9.4320 O.2   462  PHE462     -0.2718
     88  CB        25.3780  -42.9430   11.8330 C.3   462  PHE462      0.0547
     89  CG        24.9630  -43.3140   13.2460 C.ar  462  PHE462     -0.0202
     90  CD1       25.7140  -44.2200   14.0010 C.ar  462  PHE462     -0.0042
     91  CD2       23.8110  -42.8060   13.7880 C.ar  462  PHE462     -0.0042
     92  CE1       25.3380  -44.5700   15.3510 C.ar  462  PHE462     -0.0003
     93  CE2       23.4110  -43.1520   15.1470 C.ar  462  PHE462     -0.0003
     94  CZ        24.1900  -44.0260   15.9000 C.ar  462  PHE462     -0.0000
     95  N         26.9020  -41.3970    9.6760 N.am  463  VAL463     -0.1980
     96  CA        27.0530  -41.1660    8.2010 C.3   463  VAL463      0.1595
     97  C         28.5060  -41.3620    7.7980 C.2   463  VAL463      0.2287
     98  O         28.8090  -42.0150    6.8240 O.2   463  VAL463     -0.2864
     99  CB        26.5640  -39.7610    7.7240 C.3   463  VAL463      0.0276
    100  CG1       26.5290  -39.7070    6.1860 C.3   463  VAL463      0.0022
    101  CG2       25.2230  -39.4650    8.2180 C.3   463  VAL463      0.0022
    102  N         29.4090  -45.1650    8.0770 N.3   466  ASN466     -0.1240
    103  CA        28.8340  -45.8700    6.9560 C.3   466  ASN466      0.1653
    104  C         29.7680  -45.7680    5.7340 C.2   466  ASN466      0.2266
    105  O         30.0170  -46.7930    5.0900 O.2   466  ASN466     -0.2867
    106  CB        27.4250  -45.3530    6.6420 C.3   466  ASN466      0.1155
    107  CG        26.3980  -45.7330    7.7600 C.2   466  ASN466      0.2627
    108  OD1       26.6940  -46.5670    8.6620 O.2   466  ASN466     -0.2716
    109  ND2       25.2060  -45.1780    7.6690 N.am  466  ASN466     -0.0877
    110  N         18.4080  -33.0630    2.7330 N.3   533  VAL533     -0.1231
    111  CA        19.5990  -32.9850    3.5480 C.3   533  VAL533      0.1692
    112  C         20.4890  -34.1780    3.4780 C.2   533  VAL533      0.2593
    113  O         21.5120  -34.2050    4.1280 O.2   533  VAL533     -0.2718
    114  CB        19.2420  -32.6300    5.0690 C.3   533  VAL533      0.0266
    115  CG1       18.4670  -31.4100    5.1380 C.3   533  VAL533      0.0020
    116  CG2       18.5030  -33.8150    5.7600 C.3   533  VAL533      0.0020
    117  N         20.1740  -35.2050    2.6720 N.am  534  GLY534     -0.1942
    118  CA        21.0260  -36.4020    2.6970 C.3   534  GLY534      0.2014
    119  C         20.3000  -37.5920    3.2590 C.2   534  GLY534      0.2638
    120  O         20.6190  -38.7410    2.9450 O.2   534  GLY534     -0.2714
    121  N         19.3380  -37.3550    4.1720 N.am  535  LEU535     -0.1977
    122  CA        18.8480  -38.4780    4.9850 C.3   535  LEU535      0.1596
    123  C         17.9050  -39.4350    4.1980 C.2   535  LEU535      0.2287
    124  O         18.0850  -40.6550    4.1920 O.2   535  LEU535     -0.2864
    125  CB        18.1440  -37.9250    6.2300 C.3   535  LEU535      0.0297
    126  CG        17.3430  -38.9560    7.0330 C.3   535  LEU535      0.0022
    127  CD1       17.3260  -38.5950    8.5530 C.3   535  LEU535      0.0001
    128  CD2       15.8880  -38.9670    6.5310 C.3   535  LEU535      0.0001
    129  N         19.8530  -41.2970    1.7970 N.3   538  ASN538     -0.1225
    130  CA        20.5240  -42.5260    2.3320 C.3   538  ASN538      0.1785
    131  C         19.6330  -43.7610    2.2830 C.2   538  ASN538      0.2597
    132  O         20.0760  -44.8420    1.8970 O.2   538  ASN538     -0.2718
    133  CB        21.1010  -42.3170    3.7640 C.3   538  ASN538      0.1169
    134  CG        21.7080  -43.5560    4.2920 C.2   538  ASN538      0.2627
    135  OD1       22.8090  -44.0120    3.8520 O.2   538  ASN538     -0.2716
    136  ND2       21.0190  -44.1580    5.2260 N.am  538  ASN538     -0.0877
    137  N         18.3380  -43.5840    2.6060 N.am  539  VAL539     -0.1980
    138  CA        17.3750  -44.7190    2.6730 C.3   539  VAL539      0.1595
    139  C         17.1980  -45.3150    1.2480 C.2   539  VAL539      0.2287
    140  O         17.3110  -46.5320    0.9950 O.2   539  VAL539     -0.2864
    141  CB        15.9780  -44.1790    3.1300 C.3   539  VAL539      0.0276
    142  CG1       14.8970  -45.2010    2.9050 C.3   539  VAL539      0.0022
    143  CG2       16.0160  -43.7720    4.6790 C.3   539  VAL539      0.0022
    144  N         20.2410  -47.2280    0.1370 N.3   542  ARG542     -0.1245
    145  CA        20.3110  -48.5000    0.6690 C.3   542  ARG542      0.1563
    146  C         19.2710  -49.4330   -0.0570 C.2   542  ARG542      0.2260
    147  O         19.6130  -50.5560   -0.3470 O.2   542  ARG542     -0.2867
    148  CB        20.0580  -48.4660    2.1920 C.3   542  ARG542      0.0307
    149  CG        21.3200  -47.9150    2.9280 C.3   542  ARG542      0.0489
    150  CD        22.5220  -48.7850    2.7500 C.3   542  ARG542      0.2205
    151  NE        22.3910  -50.2210    2.8440 N.pl3 542  ARG542     -0.0865
    152  CZ        23.4580  -51.0090    2.8160 C.cat 542  ARG542      0.5346
    153  NH1       24.6640  -50.4550    2.5840 N.pl3 542  ARG542      0.1354
    154  NH2       23.3440  -52.3320    2.8210 N.pl3 542  ARG542      0.1354
    155  N         25.2760  -41.3750   -2.9780 N.3   553  ASN553     -0.1240
    156  CA        24.3440  -40.4530   -2.3000 C.3   553  ASN553      0.1653
    157  C         25.0160  -39.0950   -2.0780 C.2   553  ASN553      0.2266
    158  O         26.1720  -39.0410   -1.6740 O.2   553  ASN553     -0.2867
    159  CB        23.7010  -41.0920   -1.0160 C.3   553  ASN553      0.1155
    160  CG        22.7190  -40.0700   -0.2850 C.2   553  ASN553      0.2627
    161  OD1       21.7980  -39.4150   -0.9080 O.2   553  ASN553     -0.2716
    162  ND2       22.8680  -39.9930    1.0410 N.am  553  ASN553     -0.0877
    163  N         26.0310  -36.2930   -0.1650 N.3   555  ILE555     -0.1231
    164  CA        26.2690  -35.8640    1.2430 C.3   555  ILE555      0.1692
    165  C         25.9510  -34.4500    1.4770 C.2   555  ILE555      0.2592
    166  O         26.3930  -33.5280    0.7520 O.2   555  ILE555     -0.2718
    167  CB        27.7070  -36.2200    1.6690 C.3   555  ILE555      0.0266
    168  CG1       27.9000  -37.6590    1.3170 C.3   555  ILE555      0.0019
    169  CG2       27.9370  -36.0540    3.1840 C.3   555  ILE555      0.0020
    170  CD1       28.9400  -37.7920    0.3920 C.3   555  ILE555      0.0001
    171  N         25.0660  -34.3010    2.4510 N.am  556  GLY556     -0.1957
    172  CA        24.4790  -32.9830    2.8090 C.3   556  GLY556      0.1869
    173  C         23.3560  -32.5380    1.9210 C.2   556  GLY556      0.2309
    174  O         22.7700  -31.4660    2.1160 O.2   556  GLY556     -0.2863
@<TRIPOS>BOND
     1   155   156    1
     2   156   157    1
     3   156   159    1
     4   157   158    2
     5   159   160    1
     6   161   160    2
     7   147   146    2
     8   160   162   am
     9   163   164    1
    10   146   145    1
    11   144   145    1
    12   170   168    1
    13   145   148    1
    14   166   165    2
    15   140   139    2
    16   164   165    1
    17   164   167    1
    18   139   138    1
    19   168   167    1
    20   165   171   am
    21   167   169    1
    22   129   130    1
    23   132   131    2
    24   173   174    2
    25   173   172    1
    26   148   149    1
    27   131   130    1
    28   131   137   am
    29    12    11    1
    30   130   133    1
    31   171   172    1
    32    10    11   ar
    33    10     8   ar
    34   153   152    1
    35   137   138    1
    36   117   118    1
    37   117   112   am
    38   138   141    1
    39   118   119    1
    40   110   111    1
    41   150   151    1
    42   150   149    1
    43   152   154    1
    44   152   151    2
    45   142   141    1
    46   120   119    2
    47    11     9   ar
    48   141   143    1
    49     8     6   ar
    50   119   121   am
    51   112   111    1
    52   112   113    2
    53   111   114    1
    54   133   134    1
    55   135   134    2
    56   121   122    1
    57   124   123    2
    58   123   122    1
    59     9     7   ar
    60   134   136   am
    61     6     7   ar
    62     6     5    1
    63    29    27   ar
    64    29    28   ar
    65   122   125    1
    66   114   115    1
    67   114   116    1
    68   105   104    2
    69     5     2    1
    70    27    25   ar
    71    28    26   ar
    72   104   103    1
    73     1     2    1
    74   100    99    1
    75   125   126    1
    76     2     3    1
    77     4     3    2
    78   128   126    1
    79    26    25   ar
    80    25    24    1
    81   106   103    1
    82   106   107    1
    83    98    97    2
    84     3    13   am
    85   103   102    1
    86   126   127    1
    87    24    21    1
    88   109   107   am
    89    99    96    1
    90    99   101    1
    91   107   108    2
    92    97    96    1
    93    13    14    1
    94    96    95    1
    95    14    15    1
    96    14    17    1
    97    15    20   am
    98    15    16    2
    99    20    21    1
   100    21    22    1
   101    23    22    2
   102    87    86    2
   103    18    17    1
   104    95    86   am
   105    17    19    1
   106    22    30   am
   107    86    85    1
   108    30    31    1
   109    78    77    2
   110    85    88    1
   111    85    84    1
   112    88    89    1
   113    31    34    1
   114    31    32    1
   115    77    76    1
   116    82    81    2
   117    34    36    1
   118    34    35    1
   119    79    76    1
   120    79    80    1
   121    32    33    2
   122    89    91   ar
   123    89    90   ar
   124    76    75    1
   125    81    80    1
   126    81    83   am
   127    91    93   ar
   128    90    92   ar
   129    93    94   ar
   130    92    94   ar
   131    73    72    1
   132    73    74    1
   133    72    71    1
   134    70    71    1
   135    70    67    1
   136    69    68    2
   137    37    38    1
   138    68    67    1
   139    38    41    1
   140    38    39    1
   141    67    66    1
   142    41    42    1
   143    66    63   am
   144    44    42   ar
   145    44    46   ar
   146    39    40    2
   147    42    43   ar
   148    46    47   ar
   149    63    64    2
   150    63    62    1
   151    65    62    1
   152    61    62    1
   153    43    45   ar
   154    47    45   ar
   155    47    48    1
   156    60    59    1
   157    59    58   ar
   158    59    57   ar
   159    58    56   ar
   160    57    55   ar
   161    56    54   ar
   162    55    54   ar
   163    54    53    1
   164    53    50    1
   165    50    49    1
   166    50    51    1
   167    51    52    2
