@<TRIPOS>MOLECULE
tmp/3ntdA00.pdb
 149 141 0 0 0
SMALL
GASTEIGER

@<TRIPOS>ATOM
      1  N         48.3970   -8.2370   29.4770 N.3    10  VAL10      -0.1231
      2  CA        47.0600   -8.7560   29.1740 C.3    10  VAL10       0.1692
      3  C         47.0020  -10.2890   29.1880 C.2    10  VAL10       0.2591
      4  O         47.4480  -10.9340   30.1660 O.2    10  VAL10      -0.2718
      5  CB        46.4560   -8.1040   27.8700 C.3    10  VAL10       0.0266
      6  CG1       44.9550   -8.1400   27.9080 C.3    10  VAL10       0.0020
      7  CG2       46.9220   -6.6280   27.8070 C.3    10  VAL10       0.0020
      8  N         46.4260  -10.8970   28.1590 N.am   11  ALA11      -0.1980
      9  CA        46.1310  -12.3110   28.2100 C.3    11  ALA11       0.1597
     10  C         47.2930  -13.2570   28.6060 C.2    11  ALA11       0.2287
     11  O         47.1540  -14.0640   29.5760 O.2    11  ALA11      -0.2864
     12  CB        45.2920  -12.8000   26.9740 C.3    11  ALA11       0.0319
     13  N         49.4460  -11.2490   32.0620 N.3    14  ALA14      -0.1231
     14  CA        48.7850  -11.0410   33.3950 C.3    14  ALA14       0.1694
     15  C         48.4630  -12.3700   34.0340 C.2    14  ALA14       0.2592
     16  O         48.3880  -12.5090   35.3140 O.2    14  ALA14      -0.2718
     17  CB        47.5070  -10.1610   33.3310 C.3    14  ALA14       0.0304
     18  N         48.3320  -13.3710   33.1590 N.am   15  SER15      -0.1952
     19  CA        47.9600  -14.6640   33.5890 C.3    15  SER15       0.1924
     20  C         49.2320  -15.3540   34.1450 C.2    15  SER15       0.2314
     21  O         49.2040  -16.1300   35.1660 O.2    15  SER15      -0.2863
     22  CB        47.2600  -15.3990   32.4100 C.3    15  SER15       0.2116
     23  OG        47.7950  -16.6970   32.4390 O.3    15  SER15      -0.2180
     24  N         49.9570  -13.6250   37.6990 N.3    18  ALA18      -0.1231
     25  CA        49.0690  -14.0900   38.8200 C.3    18  ALA18       0.1694
     26  C         49.4350  -15.4610   39.2590 C.2    18  ALA18       0.2591
     27  O         49.6220  -15.6830   40.4630 O.2    18  ALA18      -0.2718
     28  CB        47.6010  -13.9110   38.5620 C.3    18  ALA18       0.0304
     29  N         49.6310  -16.3870   38.3020 N.am   19  ARG19      -0.1980
     30  CA        50.1140  -17.7050   38.6020 C.3    19  ARG19       0.1597
     31  C         51.4390  -17.7860   39.3710 C.2    19  ARG19       0.2287
     32  O         51.5500  -18.5450   40.3780 O.2    19  ARG19      -0.2864
     33  CB        50.1000  -18.6140   37.3240 C.3    19  ARG19       0.0334
     34  CG        50.7520  -19.9810   37.4720 C.3    19  ARG19       0.0492
     35  CD        49.8290  -20.9530   38.2850 C.3    19  ARG19       0.2205
     36  NE        50.3980  -22.3330   38.1770 N.pl3  19  ARG19      -0.0865
     37  CZ        50.0750  -23.3600   38.9570 C.cat  19  ARG19       0.5346
     38  NH1       49.1220  -23.2120   39.9200 N.pl3  19  ARG19       0.1354
     39  NH2       50.5410  -24.5350   38.6780 N.pl3  19  ARG19       0.1354
     40  N         51.1580  -17.1390   42.9310 N.3    22  ARG22      -0.1245
     41  CA        50.5440  -18.2260   43.6770 C.3    22  ARG22       0.1563
     42  C         51.6180  -19.2790   43.8920 C.2    22  ARG22       0.2260
     43  O         51.6260  -19.9300   44.9380 O.2    22  ARG22      -0.2867
     44  CB        49.3350  -18.7980   42.9450 C.3    22  ARG22       0.0307
     45  CG        48.1150  -17.8330   42.9840 C.3    22  ARG22       0.0489
     46  CD        46.9150  -18.5910   42.3620 C.3    22  ARG22       0.2205
     47  NE        46.8960  -18.7740   40.8940 N.pl3  22  ARG22      -0.0865
     48  CZ        46.3750  -17.8820   40.0450 C.cat  22  ARG22       0.5346
     49  NH1       45.9430  -16.7030   40.5140 N.pl3  22  ARG22       0.1354
     50  NH2       46.3230  -18.1330   38.7060 N.pl3  22  ARG22       0.1354
     51  N         44.9530   -6.2130   31.8120 N.3    39  SER39      -0.1202
     52  CA        43.8360   -7.2090   32.0090 C.3    39  SER39       0.2020
     53  C         42.5220   -6.6400   31.4710 C.2    39  SER39       0.2619
     54  O         41.4770   -6.7210   32.1250 O.2    39  SER39      -0.2717
     55  CB        43.6410   -7.5340   33.5080 C.3    39  SER39       0.2103
     56  OG        44.8640   -8.0840   34.0580 O.3    39  SER39      -0.2182
     57  N         42.5760   -6.0470   30.2850 N.am   40  PHE40      -0.1961
     58  CA        41.3450   -5.5040   29.6960 C.3    40  PHE40       0.1771
     59  C         40.7870   -6.5690   28.8030 C.2    40  PHE40       0.2619
     60  O         41.5340   -7.4810   28.3940 O.2    40  PHE40      -0.2715
     61  CB        41.5520   -4.1560   28.9440 C.3    40  PHE40       0.0574
     62  CG        42.5560   -4.2220   27.7140 C.ar   40  PHE40      -0.0200
     63  CD1       42.1140   -4.4780   26.3800 C.ar   40  PHE40      -0.0042
     64  CD2       43.9100   -3.9650   27.8890 C.ar   40  PHE40      -0.0042
     65  CE1       43.0880   -4.5390   25.2820 C.ar   40  PHE40      -0.0003
     66  CE2       44.8500   -3.9670   26.7810 C.ar   40  PHE40      -0.0003
     67  CZ        44.4360   -4.2530   25.5040 C.ar   40  PHE40      -0.0000
     68  N         39.4830   -6.4850   28.5360 N.am   41  ALA41      -0.1963
     69  CA        38.7420   -7.5180   27.7370 C.3    41  ALA41       0.1728
     70  C         38.8150   -7.1420   26.2630 C.2    41  ALA41       0.2616
     71  O         37.8920   -6.4790   25.6940 O.2    41  ALA41      -0.2715
     72  CB        37.2650   -7.5810   28.2050 C.3    41  ALA41       0.0334
     73  N         39.9120   -7.4940   25.6570 N.am   42  ASN42      -0.1958
     74  CA        40.0880   -7.1830   24.2260 C.3    42  ASN42       0.1819
     75  C         38.8710   -7.6910   23.4790 C.2    42  ASN42       0.2621
     76  O         38.4090   -7.0070   22.5790 O.2    42  ASN42      -0.2715
     77  CB        41.3260   -7.8810   23.5490 C.3    42  ASN42       0.1195
     78  CG        42.5290   -8.1410   24.4740 C.2    42  ASN42       0.2630
     79  OD1       42.3920   -8.7120   25.6070 O.2    42  ASN42      -0.2716
     80  ND2       43.7610   -7.7750   23.9740 N.am   42  ASN42      -0.0877
     81  N         38.4020   -8.8740   23.7930 N.am   43  CYS43      -0.1968
     82  CA        37.3320   -9.4690   23.0500 C.3    43  CYS43       0.1712
     83  C         36.0400   -8.6400   23.1760 C.2    43  CYS43       0.2296
     84  O         35.1490   -8.7170   22.3990 O.2    43  CYS43      -0.2864
     85  CB        37.1480  -10.8950   23.5340 C.3    43  CYS43       0.0983
     86  SG        38.5480  -11.6070   24.2930 S.3    43  CYS43      -0.0798
     87  N         39.5110   -5.5000   34.1220 N.3    61  LEU61      -0.1231
     88  CA        39.2900   -6.6560   35.0080 C.3    61  LEU61       0.1693
     89  C         40.2630   -6.5850   36.1540 C.2    61  LEU61       0.2591
     90  O         39.9730   -7.0960   37.2090 O.2    61  LEU61      -0.2718
     91  CB        39.4930   -7.9780   34.2680 C.3    61  LEU61       0.0284
     92  CG        38.3670   -8.1580   33.2440 C.3    61  LEU61       0.0019
     93  CD1       38.6160   -9.3480   32.4410 C.3    61  LEU61       0.0001
     94  CD2       37.0240   -8.3120   33.9300 C.3    61  LEU61       0.0001
     95  N         41.3920   -5.8960   35.9330 N.am   62  GLN62      -0.1979
     96  CA        42.3030   -5.6260   36.9900 C.3    62  GLN62       0.1601
     97  C         42.8740   -4.2200   36.8780 C.2    62  GLN62       0.2287
     98  O         42.8470   -3.6090   35.8110 O.2    62  GLN62      -0.2864
     99  CB        43.4220   -6.6610   37.0110 C.3    62  GLN62       0.0394
    100  CG        42.9300   -8.1350   37.1620 C.3    62  GLN62       0.0908
    101  CD        42.5520   -8.4590   38.6150 C.2    62  GLN62       0.2608
    102  OE1       42.8500   -7.6750   39.5550 O.2    62  GLN62      -0.2717
    103  NE2       41.8890   -9.6080   38.8000 N.am   62  GLN62      -0.0878
    104  N         46.4250   -5.4410   41.2920 N.3    67  PHE67      -0.1241
    105  CA        47.5000   -6.4030   41.1440 C.3    67  PHE67       0.1605
    106  C         48.4930   -6.3090   42.2680 C.2    67  PHE67       0.2264
    107  O         49.1240   -7.2880   42.6080 O.2    67  PHE67      -0.2867
    108  CB        48.2120   -6.2450   39.8170 C.3    67  PHE67       0.0534
    109  CG        47.9140   -7.3540   38.8340 C.ar   67  PHE67      -0.0203
    110  CD1       47.1910   -7.1170   37.6310 C.ar   67  PHE67      -0.0042
    111  CD2       48.3550   -8.5950   39.0760 C.ar   67  PHE67      -0.0042
    112  CE1       46.9750   -8.1580   36.6890 C.ar   67  PHE67      -0.0003
    113  CE2       48.1090   -9.6910   38.1500 C.ar   67  PHE67      -0.0003
    114  CZ        47.4630   -9.4610   36.9740 C.ar   67  PHE67      -0.0000
    115  N         48.1700   -9.7050   44.4520 N.3    71  PHE71      -0.1241
    116  CA        49.2640  -10.5520   44.0710 C.3    71  PHE71       0.1605
    117  C         50.6120   -9.9180   44.3100 C.2    71  PHE71       0.2264
    118  O         51.6140  -10.4340   43.8500 O.2    71  PHE71      -0.2867
    119  CB        49.0930  -10.9220   42.5480 C.3    71  PHE71       0.0534
    120  CG        47.8800  -11.7950   42.2930 C.ar   71  PHE71      -0.0203
    121  CD1       47.8180  -13.1070   42.8260 C.ar   71  PHE71      -0.0042
    122  CD2       46.8090  -11.3150   41.5530 C.ar   71  PHE71      -0.0042
    123  CE1       46.6950  -13.9280   42.5960 C.ar   71  PHE71      -0.0003
    124  CE2       45.6700  -12.1090   41.3420 C.ar   71  PHE71      -0.0003
    125  CZ        45.6200  -13.4000   41.8610 C.ar   71  PHE71      -0.0000
    126  N         42.5110  -16.3860   22.7230 N.3   321  ALA321     -0.1245
    127  CA        42.6770  -15.8610   24.0690 C.3   321  ALA321      0.1562
    128  C         42.9220  -16.9920   25.0430 C.2   321  ALA321      0.2260
    129  O         43.6620  -16.8360   25.9820 O.2   321  ALA321     -0.2867
    130  CB        41.3820  -14.9730   24.5410 C.3   321  ALA321      0.0290
    131  N         46.1650  -17.5120   27.6450 N.3   325  ASN325     -0.1240
    132  CA        46.0030  -17.5170   29.1450 C.3   325  ASN325      0.1653
    133  C         46.6470  -18.7960   29.6810 C.2   325  ASN325      0.2266
    134  O         47.4120  -18.7630   30.6560 O.2   325  ASN325     -0.2867
    135  CB        44.4490  -17.4930   29.4370 C.3   325  ASN325      0.1155
    136  CG        43.8580  -16.0850   29.5060 C.2   325  ASN325      0.2627
    137  OD1       43.7550  -15.5210   30.5870 O.2   325  ASN325     -0.2716
    138  ND2       43.3540  -15.5400   28.3570 N.am  325  ASN325     -0.0877
    139  N         49.9700  -19.1150   32.0700 N.3   329  ARG329     -0.1245
    140  CA        49.9740  -19.8400   33.3770 C.3   329  ARG329      0.1563
    141  C         51.1450  -20.8910   33.3620 C.2   329  ARG329      0.2260
    142  O         51.9080  -21.0320   34.3030 O.2   329  ARG329     -0.2867
    143  CB        48.5740  -20.4280   33.5890 C.3   329  ARG329      0.0307
    144  CG        48.4860  -21.8140   34.3190 C.3   329  ARG329      0.0489
    145  CD        47.0700  -22.0420   34.8560 C.3   329  ARG329      0.2205
    146  NE        46.8200  -22.9790   35.9880 N.pl3 329  ARG329     -0.0865
    147  CZ        47.5540  -24.0060   36.3970 C.cat 329  ARG329      0.5346
    148  NH1       48.6940  -24.2870   35.8150 N.pl3 329  ARG329      0.1354
    149  NH2       47.1850  -24.7150   37.4720 N.pl3 329  ARG329      0.1354
@<TRIPOS>BOND
     1    84    83    2
     2    76    75    2
     3   126   127    1
     4    82    83    1
     5    82    85    1
     6    82    81    1
     7    75    81   am
     8    75    74    1
     9    85    86    1
    10    77    74    1
    11    77    78    1
    12    80    78   am
    13   127   130    1
    14   127   128    1
    15    74    73    1
    16    78    79    2
    17   128   129    2
    18    65    67   ar
    19    65    63   ar
    20    67    66   ar
    21    73    70   am
    22    71    70    2
    23    70    69    1
    24    63    62   ar
    25    66    64   ar
    26    12     9    1
    27   131   132    1
    28    62    64   ar
    29    62    61    1
    30    69    72    1
    31    69    68    1
    32     7     5    1
    33     5     6    1
    34     5     2    1
    35     8     9    1
    36     8     3   am
    37     9    10    1
    38   138   136   am
    39    60    59    2
    40    68    59   am
    41    10    11    2
    42    59    58    1
    43    61    58    1
    44   132   135    1
    45   132   133    1
    46     2     3    1
    47     2     1    1
    48     3     4    2
    49   135   136    1
    50   136   137    2
    51   133   134    2
    52    58    57    1
    53    57    53   am
    54    53    52    1
    55    53    54    2
    56    51    52    1
    57    52    55    1
    58    13    14    1
    59   139   140    1
    60    22    23    1
    61    22    19    1
    62    93    92    1
    63    18    19    1
    64    18    15   am
    65    92    94    1
    66    92    91    1
    67    17    14    1
    68   141   140    1
    69   141   142    2
    70   140   143    1
    71    14    15    1
    72    55    56    1
    73   143   144    1
    74    19    20    1
    75    15    16    2
    76    87    88    1
    77    20    21    2
    78    91    88    1
    79   144   145    1
    80   145   146    1
    81    88    89    1
    82    98    97    2
    83   148   147    1
    84    95    89   am
    85    95    96    1
    86   146   147    2
    87    89    90    2
    88   147   149    1
    89   112   114   ar
    90   112   110   ar
    91    97    96    1
    92   114   113   ar
    93    96    99    1
    94    99   100    1
    95   100   101    1
    96    33    34    1
    97    33    30    1
    98    34    35    1
    99   110   109   ar
   100    24    25    1
   101   113   111   ar
   102    36    35    1
   103    36    37    2
   104    29    30    1
   105    29    26   am
   106    28    25    1
   107    30    31    1
   108   101   103   am
   109   101   102    2
   110    39    37    1
   111    50    48    1
   112    25    26    1
   113   109   111   ar
   114   109   108    1
   115    37    38    1
   116    26    27    2
   117    31    32    2
   118   108   105    1
   119    48    49    1
   120    48    47    2
   121    47    46    1
   122   105   104    1
   123   105   106    1
   124   124   122   ar
   125   124   125   ar
   126   122   120   ar
   127   125   123   ar
   128   106   107    2
   129   120   119    1
   130   120   121   ar
   131    46    45    1
   132   119   116    1
   133   123   121   ar
   134    40    41    1
   135    44    45    1
   136    44    41    1
   137    41    42    1
   138   118   117    2
   139    42    43    2
   140   116   117    1
   141   116   115    1
