@<TRIPOS>MOLECULE
tmp/3ntgC03.pdb
 191 183 0 0 0
SMALL
GASTEIGER

@<TRIPOS>ATOM
      1  N         10.0440   57.8600   81.7640 N.3    57  VAL57      -0.1245
      2  CA        10.9890   58.5540   80.8880 C.3    57  VAL57       0.1561
      3  C         10.4510   58.6580   79.4620 C.2    57  VAL57       0.2260
      4  O         10.6140   59.6920   78.8130 O.2    57  VAL57      -0.2867
      5  CB        12.3640   57.8550   80.8770 C.3    57  VAL57       0.0252
      6  CG1       13.3000   58.4840   79.8510 C.3    57  VAL57       0.0019
      7  CG2       12.9840   57.9270   82.2730 C.3    57  VAL57       0.0019
      8  N         22.5830   62.8250   74.4140 N.3    82  MET82      -0.1245
      9  CA        22.8100   61.7180   73.4740 C.3    82  MET82       0.1570
     10  C         23.9580   60.8390   73.9420 C.2    82  MET82       0.2261
     11  O         23.9200   59.6170   73.8020 O.2    82  MET82      -0.2867
     12  CB        23.1220   62.2580   72.0720 C.3    82  MET82       0.0387
     13  CG        23.1370   61.1930   70.9850 C.3    82  MET82       0.0595
     14  SD        21.4680   60.7930   70.4800 S.3    82  MET82      -0.1393
     15  CE        21.5210   59.0010   70.4550 C.3    82  MET82       0.0692
     16  N         22.6020   58.5880   76.4420 N.3    85  VAL85      -0.1245
     17  CA        21.7640   57.4990   75.9070 C.3    85  VAL85       0.1561
     18  C         22.6540   56.4260   75.2770 C.2    85  VAL85       0.2260
     19  O         22.4040   55.2340   75.4500 O.2    85  VAL85      -0.2867
     20  CB        20.6040   57.9370   74.9170 C.3    85  VAL85       0.0252
     21  CG1       20.1370   59.3720   75.1710 C.3    85  VAL85       0.0019
     22  CG2       20.9770   57.7170   73.4590 C.3    85  VAL85       0.0019
     23  N         22.8050   52.8630   77.2220 N.3    89  ARG89      -0.1245
     24  CA        22.1200   51.8070   76.5130 C.3    89  ARG89       0.1563
     25  C         23.0930   50.6760   76.2240 C.2    89  ARG89       0.2260
     26  O         22.7510   49.5040   76.3610 O.2    89  ARG89      -0.2867
     27  CB        21.4920   52.3290   75.2170 C.3    89  ARG89       0.0307
     28  CG        20.0380   51.9680   75.0820 C.3    89  ARG89       0.0489
     29  CD        19.1720   52.8000   76.0070 C.3    89  ARG89       0.2205
     30  NE        17.8160   52.2690   76.0730 N.pl3  89  ARG89      -0.0865
     31  CZ        16.7990   52.8750   76.6600 C.cat  89  ARG89       0.5346
     32  NH1       16.9550   54.0550   77.2570 N.pl3  89  ARG89       0.1354
     33  NH2       15.6120   52.2990   76.6520 N.pl3  89  ARG89       0.1354
     34  N         15.5330   57.4050   60.9680 N.3   317  TYR317     -0.1227
     35  CA        14.8160   56.1310   61.1880 C.3   317  TYR317      0.1736
     36  C         14.5050   55.8790   62.6600 C.2   317  TYR317      0.2595
     37  O         13.3460   55.7130   63.0170 O.2   317  TYR317     -0.2718
     38  CB        15.6550   55.0010   60.5910 C.3   317  TYR317      0.0548
     39  CG        15.2420   53.5540   60.8000 C.ar  317  TYR317     -0.0200
     40  CD1       14.5770   52.8500   59.8100 C.ar  317  TYR317     -0.0009
     41  CD2       15.6430   52.8520   61.9290 C.ar  317  TYR317     -0.0009
     42  CE1       14.2580   51.5110   59.9650 C.ar  317  TYR317      0.0417
     43  CE2       15.3310   51.5100   62.0950 C.ar  317  TYR317      0.0417
     44  CZ        14.6350   50.8480   61.1100 C.ar  317  TYR317      0.1957
     45  OH        14.3220   49.5180   61.2760 O.3   317  TYR317     -0.2866
     46  N         15.5380   55.8330   63.5020 N.am  318  VAL318     -0.1980
     47  CA        15.3410   55.7240   64.9430 C.3   318  VAL318      0.1595
     48  C         14.5920   56.9580   65.4560 C.2   318  VAL318      0.2287
     49  O         13.6790   56.8280   66.2670 O.2   318  VAL318     -0.2864
     50  CB        16.6770   55.5240   65.7110 C.3   318  VAL318      0.0276
     51  CG1       16.4930   55.7280   67.2140 C.3   318  VAL318      0.0022
     52  CG2       17.2280   54.1420   65.4550 C.3   318  VAL318      0.0022
     53  N         11.0170   56.5280   64.8320 N.3   321  LEU321     -0.1231
     54  CA        10.4820   55.3340   65.4840 C.3   321  LEU321      0.1693
     55  C         10.3180   55.5990   66.9870 C.2   321  LEU321      0.2592
     56  O          9.2860   55.2690   67.5700 O.2   321  LEU321     -0.2718
     57  CB        11.3950   54.1470   65.2010 C.3   321  LEU321      0.0284
     58  CG        10.8100   52.7470   65.0920 C.3   321  LEU321      0.0019
     59  CD1        9.6700   52.7030   64.0970 C.3   321  LEU321      0.0001
     60  CD2       11.9370   51.8080   64.6970 C.3   321  LEU321      0.0001
     61  N         11.3080   56.2440   67.5960 N.am  322  SER322     -0.1952
     62  CA        11.2720   56.5470   69.0340 C.3   322  SER322      0.1924
     63  C         10.0300   57.3390   69.4290 C.2   322  SER322      0.2314
     64  O          9.4470   57.1020   70.4890 O.2   322  SER322     -0.2863
     65  CB        12.5100   57.3420   69.4570 C.3   322  SER322      0.2116
     66  OG        12.5510   58.6300   68.8550 O.3   322  SER322     -0.2180
     67  N         10.2820   60.5340   69.8360 N.3   324  TYR324     -0.1241
     68  CA        10.8590   61.5290   70.7290 C.3   324  TYR324      0.1605
     69  C         10.9410   62.9260   70.1100 C.2   324  TYR324      0.2264
     70  O         11.2330   63.0800   68.9270 O.2   324  TYR324     -0.2867
     71  CB        12.2740   61.1130   71.1340 C.3   324  TYR324      0.0534
     72  CG        12.4030   59.8970   72.0220 C.ar  324  TYR324     -0.0201
     73  CD1       11.3070   59.3350   72.6780 C.ar  324  TYR324     -0.0009
     74  CD2       13.6530   59.3280   72.2390 C.ar  324  TYR324     -0.0009
     75  CE1       11.4620   58.2270   73.5050 C.ar  324  TYR324      0.0417
     76  CE2       13.8110   58.2350   73.0550 C.ar  324  TYR324      0.0417
     77  CZ        12.7200   57.6870   73.6900 C.ar  324  TYR324      0.1957
     78  OH        12.9070   56.5910   74.5060 O.3   324  TYR324     -0.2866
     79  N         13.1480   64.9500   71.3630 N.3   326  PHE326     -0.1241
     80  CA        14.5850   65.1740   71.4440 C.3   326  PHE326      0.1605
     81  C         15.2110   64.8340   70.0990 C.2   326  PHE326      0.2264
     82  O         14.8970   63.8000   69.5070 O.2   326  PHE326     -0.2867
     83  CB        15.2190   64.3380   72.5610 C.3   326  PHE326      0.0534
     84  CG        16.7140   64.4620   72.6290 C.ar  326  PHE326     -0.0203
     85  CD1       17.3030   65.6790   72.9000 C.ar  326  PHE326     -0.0042
     86  CD2       17.5260   63.3700   72.4000 C.ar  326  PHE326     -0.0042
     87  CE1       18.6790   65.8040   72.9550 C.ar  326  PHE326     -0.0003
     88  CE2       18.8970   63.4860   72.4480 C.ar  326  PHE326     -0.0003
     89  CZ        19.4770   64.7080   72.7260 C.ar  326  PHE326     -0.0000
     90  N         17.8630   63.3920   68.1150 N.3   328  LEU328     -0.1245
     91  CA        18.9860   62.4530   68.1810 C.3   328  LEU328      0.1561
     92  C         20.1310   62.8960   67.2710 C.2   328  LEU328      0.2260
     93  O         19.9000   63.5730   66.2600 O.2   328  LEU328     -0.2867
     94  CB        18.5460   61.0410   67.7780 C.3   328  LEU328      0.0270
     95  CG        17.4120   60.3800   68.5660 C.3   328  LEU328      0.0019
     96  CD1       17.0220   59.0730   67.8880 C.3   328  LEU328      0.0001
     97  CD2       17.7960   60.1460   70.0140 C.3   328  LEU328      0.0001
     98  N         17.8750   39.8450   69.0690 N.3   350  PHE350     -0.1241
     99  CA        17.7380   41.0400   68.2440 C.3   350  PHE350      0.1605
    100  C         17.0650   40.6440   66.9420 C.2   350  PHE350      0.2264
    101  O         16.1370   41.3040   66.5160 O.2   350  PHE350     -0.2867
    102  CB        19.1020   41.6820   67.9770 C.3   350  PHE350      0.0534
    103  CG        19.0360   43.0900   67.4310 C.ar  350  PHE350     -0.0203
    104  CD1       18.0300   43.9690   67.8040 C.ar  350  PHE350     -0.0042
    105  CD2       20.0190   43.5470   66.5700 C.ar  350  PHE350     -0.0042
    106  CE1       18.0010   45.2650   67.3080 C.ar  350  PHE350     -0.0003
    107  CE2       19.9870   44.8430   66.0700 C.ar  350  PHE350     -0.0003
    108  CZ        18.9820   45.6940   66.4370 C.ar  350  PHE350     -0.0000
    109  N         13.3070   39.7980   67.7270 N.3   353  LEU353     -0.1231
    110  CA        12.4360   40.9480   67.9880 C.3   353  LEU353      0.1693
    111  C         12.2030   41.8070   66.7510 C.2   353  LEU353      0.2592
    112  O         11.1930   42.4880   66.6610 O.2   353  LEU353     -0.2718
    113  CB        12.9340   41.7930   69.1610 C.3   353  LEU353      0.0284
    114  CG        14.1920   42.6380   69.0320 C.3   353  LEU353      0.0019
    115  CD1       13.9340   43.9410   68.2740 C.3   353  LEU353      0.0001
    116  CD2       14.7290   42.9160   70.4290 C.3   353  LEU353      0.0001
    117  N         13.1130   41.7310   65.7860 N.am  354  TYR354     -0.1976
    118  CA        13.0360   42.5380   64.5690 C.3   354  TYR354      0.1639
    119  C         12.0770   41.9860   63.5030 C.2   354  TYR354      0.2290
    120  O         11.9370   42.5810   62.4360 O.2   354  TYR354     -0.2864
    121  CB        14.4410   42.7150   63.9660 C.3   354  TYR354      0.0560
    122  CG        14.8070   44.1590   63.7170 C.ar  354  TYR354     -0.0198
    123  CD1       15.8720   44.7580   64.3920 C.ar  354  TYR354     -0.0009
    124  CD2       14.0730   44.9380   62.8330 C.ar  354  TYR354     -0.0009
    125  CE1       16.1980   46.0880   64.1730 C.ar  354  TYR354      0.0417
    126  CE2       14.4020   46.2610   62.6050 C.ar  354  TYR354      0.0417
    127  CZ        15.4680   46.8280   63.2710 C.ar  354  TYR354      0.1957
    128  OH        15.7830   48.1410   63.0430 O.3   354  TYR354     -0.2866
    129  N          9.2380   42.2790   62.1900 N.3   356  TRP356     -0.1241
    130  CA         8.1660   43.2590   62.2050 C.3   356  TRP356      0.1605
    131  C          7.2260   43.1150   61.0150 C.2   356  TRP356      0.2264
    132  O          6.8470   44.1010   60.4030 O.2   356  TRP356     -0.2867
    133  CB         8.7470   44.6680   62.2300 C.3   356  TRP356      0.0550
    134  CG         9.5230   44.9950   63.4750 C.ar  356  TRP356      0.0003
    135  CD1        9.5080   44.3210   64.6630 C.ar  356  TRP356      0.0946
    136  CD2       10.4070   46.1010   63.6540 C.ar  356  TRP356      0.0152
    137  NE1       10.3530   44.9260   65.5610 N.ar  356  TRP356     -0.2442
    138  CE2       10.9050   46.0310   64.9730 C.ar  356  TRP356      0.0810
    139  CE3       10.8330   47.1420   62.8260 C.ar  356  TRP356      0.0012
    140  CZ2       11.8120   46.9570   65.4790 C.ar  356  TRP356      0.0191
    141  CZ3       11.7200   48.0670   63.3290 C.ar  356  TRP356      0.0001
    142  CH2       12.2050   47.9700   64.6440 C.ar  356  TRP356      0.0015
    143  N          5.1090   50.4120   69.1710 N.3   487  PHE487     -0.1241
    144  CA         5.6810   49.3530   69.9990 C.3   487  PHE487      0.1605
    145  C          5.2730   49.4820   71.4430 C.2   487  PHE487      0.2264
    146  O          4.9460   50.5620   71.9000 O.2   487  PHE487     -0.2867
    147  CB         7.2200   49.4540   70.0090 C.3   487  PHE487      0.0534
    148  CG         7.8710   49.2290   68.6810 C.ar  487  PHE487     -0.0203
    149  CD1        7.4240   48.2340   67.8200 C.ar  487  PHE487     -0.0042
    150  CD2        8.9690   49.9870   68.3100 C.ar  487  PHE487     -0.0042
    151  CE1        8.0470   48.0220   66.5980 C.ar  487  PHE487     -0.0003
    152  CE2        9.5980   49.7800   67.1010 C.ar  487  PHE487     -0.0003
    153  CZ         9.1330   48.8000   66.2410 C.ar  487  PHE487     -0.0000
    154  N          9.8050   45.8770   73.5380 N.3   491  MET491     -0.1230
    155  CA        10.4150   46.0670   72.2360 C.3   491  MET491      0.1702
    156  C         11.4380   47.1760   72.2760 C.2   491  MET491      0.2592
    157  O         12.5330   47.0220   71.7680 O.2   491  MET491     -0.2718
    158  CB         9.3730   46.4220   71.1760 C.3   491  MET491      0.0401
    159  CG         9.9520   46.4650   69.7560 C.3   491  MET491      0.0596
    160  SD        10.3950   44.8440   69.0880 S.3   491  MET491     -0.1393
    161  CE         8.7940   44.3150   68.4650 C.3   491  MET491      0.0692
    162  N         11.0660   48.2980   72.8750 N.am  492  VAL492     -0.1980
    163  CA        11.9330   49.4640   72.9280 C.3   492  VAL492      0.1595
    164  C         13.1630   49.1930   73.7850 C.2   492  VAL492      0.2287
    165  O         14.2640   49.6390   73.4530 O.2   492  VAL492     -0.2864
    166  CB        11.1770   50.7140   73.4730 C.3   492  VAL492      0.0276
    167  CG1       12.1360   51.8810   73.6990 C.3   492  VAL492      0.0022
    168  CG2       10.0760   51.1240   72.5040 C.3   492  VAL492      0.0022
    169  N         15.5170   46.4610   72.1980 N.3   495  GLY495     -0.1210
    170  CA        15.9280   46.8590   70.8670 C.3   495  GLY495      0.1956
    171  C         16.8890   48.0290   70.7930 C.2   495  GLY495      0.2611
    172  O         17.8000   48.0240   69.9550 O.2   495  GLY495     -0.2717
    173  N         16.6900   49.0360   71.6410 N.am  496  ALA496     -0.1979
    174  CA        17.5980   50.1900   71.6840 C.3   496  ALA496      0.1597
    175  C         19.0660   49.7800   71.9260 C.2   496  ALA496      0.2287
    176  O         19.9450   50.1820   71.1570 O.2   496  ALA496     -0.2864
    177  CB        17.1490   51.2070   72.7200 C.3   496  ALA496      0.0319
    178  N         20.5740   47.7180   68.9870 N.3   499  SER499     -0.1202
    179  CA        20.6810   48.5840   67.8100 C.3   499  SER499      0.2020
    180  C         21.7960   49.6280   67.8920 C.2   499  SER499      0.2618
    181  O         22.6120   49.7350   66.9830 O.2   499  SER499     -0.2717
    182  CB        19.3470   49.2890   67.5560 C.3   499  SER499      0.2103
    183  OG        19.5170   50.3710   66.6770 O.3   499  SER499     -0.2182
    184  N         21.8180   50.4100   68.9660 N.am  500  LEU500     -0.1979
    185  CA        22.8050   51.4900   69.1010 C.3   500  LEU500      0.1596
    186  C         24.2330   50.9430   69.2230 C.2   500  LEU500      0.2287
    187  O         25.1720   51.5210   68.6660 O.2   500  LEU500     -0.2864
    188  CB        22.4700   52.3930   70.2940 C.3   500  LEU500      0.0297
    189  CG        21.2280   53.2740   70.1410 C.3   500  LEU500      0.0022
    190  CD1       20.8040   53.8750   71.5040 C.3   500  LEU500      0.0001
    191  CD2       21.4390   54.3760   69.0870 C.3   500  LEU500      0.0001
@<TRIPOS>BOND
     1    40    42   ar
     2    40    39   ar
     3    42    44   ar
     4   132   131    2
     5    38    39    1
     6    38    35    1
     7    39    41   ar
     8    34    35    1
     9   131   130    1
    10    44    45    1
    11    44    43   ar
    12    35    36    1
    13    41    43   ar
    14   129   130    1
    15   130   133    1
    16   133   134    1
    17   120   119    2
    18   126   124   ar
    19   126   127   ar
    20    36    37    2
    21    36    46   am
    22   139   141   ar
    23   139   136   ar
    24   124   122   ar
    25   128   127    1
    26   127   125   ar
    27   141   142   ar
    28   134   136   ar
    29   134   135   ar
    30    46    47    1
    31   119   118    1
    32   136   138   ar
    33   122   121    1
    34   122   123   ar
    35   121   118    1
    36    59    58    1
    37   125   123   ar
    38   118   117    1
    39   142   140   ar
    40   135   137   ar
    41    60    58    1
    42    53    54    1
    43    47    48    1
    44    47    50    1
    45   138   140   ar
    46   138   137   ar
    47    58    57    1
    48    57    54    1
    49    52    50    1
    50    48    49    2
    51    54    55    1
    52    50    51    1
    53   117   111   am
    54   107   108   ar
    55   107   105   ar
    56   153   151   ar
    57   153   152   ar
    58    93    92    2
    59   108   106   ar
    60   101   100    2
    61   105   103   ar
    62   151   149   ar
    63   112   111    2
    64   183   182    1
    65   111   110    1
    66   100    99    1
    67   181   180    2
    68    55    56    2
    69    55    61   am
    70   152   150   ar
    71    92    91    1
    72   106   104   ar
    73   103   104   ar
    74   103   102    1
    75   182   179    1
    76    61    62    1
    77   109   110    1
    78    94    91    1
    79    94    95    1
    80   179   180    1
    81   179   178    1
    82   149   148   ar
    83    96    95    1
    84   180   184   am
    85   102    99    1
    86   110   113    1
    87    90    91    1
    88    99    98    1
    89   115   114    1
    90   150   148   ar
    91   161   160    1
    92    95    97    1
    93   187   186    2
    94   148   147    1
    95    66    65    1
    96    70    69    2
    97   184   185    1
    98   114   113    1
    99   114   116    1
   100    62    63    1
   101    62    65    1
   102   191   189    1
   103   160   159    1
   104   185   186    1
   105   185   188    1
   106   143   144    1
   107    63    64    2
   108    82    81    2
   109   159   158    1
   110    67    68    1
   111   172   171    2
   112   144   147    1
   113   144   145    1
   114    81    80    1
   115    69    68    1
   116   189   188    1
   117   189   190    1
   118    15    14    1
   119    14    13    1
   120    68    71    1
   121   171   170    1
   122   171   173   am
   123   170   169    1
   124    13    12    1
   125    71    72    1
   126   176   175    2
   127   158   155    1
   128    79    80    1
   129   145   146    2
   130    80    83    1
   131   173   174    1
   132   174   175    1
   133   174   177    1
   134   157   156    2
   135    72    74   ar
   136    72    73   ar
   137    12     9    1
   138   155   156    1
   139   155   154    1
   140    74    76   ar
   141   156   162   am
   142    86    88   ar
   143    86    84   ar
   144    88    89   ar
   145   168   166    1
   146    83    84    1
   147    84    85   ar
   148    73    75   ar
   149    89    87   ar
   150   162   163    1
   151    85    87   ar
   152   163   166    1
   153   163   164    1
   154    76    77   ar
   155   165   164    2
   156    22    20    1
   157   166   167    1
   158     9    10    1
   159     9     8    1
   160    75    77   ar
   161    77    78    1
   162    11    10    2
   163    20    21    1
   164    20    17    1
   165    28    27    1
   166    28    29    1
   167    27    24    1
   168    18    19    2
   169    18    17    1
   170    17    16    1
   171    29    30    1
   172    30    31    2
   173    25    26    2
   174    25    24    1
   175    24    23    1
   176    33    31    1
   177    31    32    1
   178     4     3    2
   179     3     2    1
   180     6     5    1
   181     5     2    1
   182     5     7    1
   183     2     1    1
