@<TRIPOS>MOLECULE
tmp/3nthA00.pdb
 130 120 0 0 0
SMALL
GASTEIGER

@<TRIPOS>ATOM
      1  N         13.3220  -14.4130   -0.8180 N.3     6  VAL6       -0.1245
      2  CA        14.4150  -15.2310   -1.3190 C.3     6  VAL6        0.1561
      3  C         14.4840  -16.5030   -0.4880 C.2     6  VAL6        0.2260
      4  O         14.5050  -16.4440    0.7350 O.2     6  VAL6       -0.2867
      5  CB        15.7780  -14.4900   -1.2310 C.3     6  VAL6        0.0252
      6  CG1       15.7280  -13.1960   -2.0290 C.3     6  VAL6        0.0019
      7  CG2       16.1290  -14.2110    0.2090 C.3     6  VAL6        0.0019
      8  N         16.3290  -18.9970    1.2620 N.3     8  VAL8       -0.1245
      9  CA        17.6900  -19.1790    1.7400 C.3     8  VAL8        0.1561
     10  C         17.9700  -20.6190    2.1520 C.2     8  VAL8        0.2260
     11  O         19.0890  -21.1040    2.0150 O.2     8  VAL8       -0.2867
     12  CB        17.9820  -18.2330    2.9350 C.3     8  VAL8        0.0252
     13  CG1       17.7730  -16.7890    2.5160 C.3     8  VAL8        0.0019
     14  CG2       17.0730  -18.5650    4.0910 C.3     8  VAL8        0.0019
     15  N         13.2910  -15.0090    3.0480 N.3    19  GLN19      -0.1245
     16  CA        13.6030  -13.6810    3.5380 C.3    19  GLN19       0.1566
     17  C         12.8180  -12.6310    2.7670 C.2    19  GLN19       0.2260
     18  O         13.1910  -12.2500    1.6590 O.2    19  GLN19      -0.2867
     19  CB        15.0920  -13.4100    3.4160 C.3    19  GLN19       0.0367
     20  CG        15.9090  -13.9570    4.5650 C.3    19  GLN19       0.0905
     21  CD        17.3560  -13.5230    4.4890 C.2    19  GLN19       0.2608
     22  OE1       18.1280  -13.7220    5.4240 O.2    19  GLN19      -0.2717
     23  NE2       17.7320  -12.9280    3.3670 N.am   19  GLN19      -0.0878
     24  N         14.1330   -6.9550    4.7210 N.3    24  VAL24      -0.1245
     25  CA        15.5230   -6.7360    4.3580 C.3    24  VAL24       0.1561
     26  C         16.1010   -5.4760    4.9790 C.2    24  VAL24       0.2260
     27  O         17.2190   -5.5000    5.4840 O.2    24  VAL24      -0.2867
     28  CB        15.6990   -6.7140    2.8230 C.3    24  VAL24       0.0252
     29  CG1       16.9120   -5.8660    2.4180 C.3    24  VAL24       0.0019
     30  CG2       15.8800   -8.1410    2.3360 C.3    24  VAL24       0.0019
     31  N         16.8360   -6.1700    8.5960 N.3    27  LEU27      -0.1231
     32  CA        17.8980   -7.1670    8.6600 C.3    27  LEU27       0.1693
     33  C         19.2950   -6.6070    8.4000 C.2    27  LEU27       0.2591
     34  O         20.2660   -7.0010    9.0480 O.2    27  LEU27      -0.2718
     35  CB        17.6060   -8.2800    7.6580 C.3    27  LEU27       0.0284
     36  CG        18.7080   -9.3220    7.4930 C.3    27  LEU27       0.0019
     37  CD1       18.8120  -10.1450    8.7610 C.3    27  LEU27       0.0001
     38  CD2       18.4070  -10.2040    6.2910 C.3    27  LEU27       0.0001
     39  N         19.3900   -5.7010    7.4350 N.am   28  GLU28      -0.1979
     40  CA        20.6600   -5.0840    7.0760 C.3    28  GLU28       0.1602
     41  C         21.1810   -4.2510    8.2530 C.2    28  GLU28       0.2287
     42  O         22.3480   -4.3470    8.6290 O.2    28  GLU28      -0.2864
     43  CB        20.4620   -4.2000    5.8390 C.3    28  GLU28       0.0415
     44  CG        21.6900   -4.0410    4.9320 C.3    28  GLU28       0.1163
     45  CD        22.0400   -5.3070    4.1430 C.2    28  GLU28       0.3649
     46  OE1       22.5770   -6.2650    4.7380 O.co2  28  GLU28      -0.2457
     47  OE2       21.7760   -5.3450    2.9210 O.co2  28  GLU28      -0.2457
     48  N         22.5140   -6.4650   10.9410 N.3    31  THR31      -0.1218
     49  CA        23.8500   -6.9120   10.6000 C.3    31  THR31       0.1862
     50  C         24.8730   -5.7990   10.8180 C.2    31  THR31       0.2287
     51  O         25.9540   -6.0370   11.3690 O.2    31  THR31      -0.2866
     52  CB        23.8920   -7.3890    9.1390 C.3    31  THR31       0.1770
     53  OG1       22.9890   -8.4900    8.9810 O.3    31  THR31      -0.2211
     54  CG2       25.2920   -7.8350    8.7570 C.3    31  THR31       0.0375
     55  N         28.0580   -6.1130   13.2760 N.3    35  LEU35      -0.1245
     56  CA        29.4330   -6.1150   12.8060 C.3    35  LEU35       0.1561
     57  C         30.2820   -5.1190   13.5740 C.2    35  LEU35       0.2260
     58  O         31.4590   -5.3670   13.8210 O.2    35  LEU35      -0.2867
     59  CB        29.5040   -5.8090   11.3100 C.3    35  LEU35       0.0270
     60  CG        29.3100   -7.0110   10.3780 C.3    35  LEU35       0.0019
     61  CD1       29.4050   -6.5670    8.9220 C.3    35  LEU35       0.0001
     62  CD2       30.3710   -8.0600   10.6750 C.3    35  LEU35       0.0001
     63  N         29.2570  -17.9750   12.0780 N.3    57  PHE57      -0.1241
     64  CA        28.9590  -18.7750   10.9060 C.3    57  PHE57       0.1605
     65  C         30.2840  -19.2550   10.3410 C.2    57  PHE57       0.2264
     66  O         31.0630  -18.4660    9.8180 O.2    57  PHE57      -0.2867
     67  CB        28.2280  -17.9290    9.8650 C.3    57  PHE57       0.0534
     68  CG        27.7730  -18.6970    8.6570 C.ar   57  PHE57      -0.0203
     69  CD1       27.4930  -20.0540    8.7380 C.ar   57  PHE57      -0.0042
     70  CD2       27.5100  -18.0340    7.4630 C.ar   57  PHE57      -0.0042
     71  CE1       26.9510  -20.7310    7.6550 C.ar   57  PHE57      -0.0003
     72  CE2       26.9640  -18.7070    6.3720 C.ar   57  PHE57      -0.0003
     73  CZ        26.6840  -20.0540    6.4720 C.ar   57  PHE57      -0.0000
     74  N         31.1280  -17.7880    6.7920 N.3    60  ASP60      -0.1239
     75  CA        31.3610  -16.3500    6.7570 C.3    60  ASP60       0.1674
     76  C         32.4630  -15.9350    7.7180 C.2    60  ASP60       0.2266
     77  O         33.3000  -15.0970    7.3900 O.2    60  ASP60      -0.2867
     78  CB        30.0650  -15.6180    7.1390 C.3    60  ASP60       0.1410
     79  CG        29.5120  -14.7780    6.0070 C.2    60  ASP60       0.3668
     80  OD1       30.1350  -13.7510    5.6760 O.co2  60  ASP60      -0.2456
     81  OD2       28.4590  -15.1410    5.4410 O.co2  60  ASP60      -0.2456
     82  N         31.6450  -14.5690   10.2590 N.3    62  VAL62      -0.1245
     83  CA        30.8900  -13.4880   10.8750 C.3    62  VAL62       0.1561
     84  C         29.9170  -14.0290   11.9240 C.2    62  VAL62       0.2260
     85  O         29.4230  -15.1500   11.8090 O.2    62  VAL62      -0.2867
     86  CB        30.0850  -12.7160    9.8030 C.3    62  VAL62       0.0252
     87  CG1       29.2510  -11.6180   10.4510 C.3    62  VAL62       0.0019
     88  CG2       31.0340  -12.1380    8.7560 C.3    62  VAL62       0.0019
     89  N         26.3200  -14.0040   13.9840 N.3    64  TYR64      -0.1241
     90  CA        24.9220  -13.7070   13.6870 C.3    64  TYR64       0.1605
     91  C         24.0110  -14.1370   14.8280 C.2    64  TYR64       0.2264
     92  O         24.4050  -14.9340   15.6720 O.2    64  TYR64      -0.2867
     93  CB        24.4910  -14.4580   12.4290 C.3    64  TYR64       0.0534
     94  CG        25.2690  -14.1080   11.1900 C.ar   64  TYR64      -0.0201
     95  CD1       24.9590  -12.9720   10.4570 C.ar   64  TYR64      -0.0009
     96  CD2       26.3020  -14.9300   10.7320 C.ar   64  TYR64      -0.0009
     97  CE1       25.6560  -12.6540    9.3040 C.ar   64  TYR64       0.0417
     98  CE2       27.0120  -14.6150    9.5820 C.ar   64  TYR64       0.0417
     99  CZ        26.6740  -13.4760    8.8710 C.ar   64  TYR64       0.1957
    100  OH        27.3600  -13.1390    7.7360 O.3    64  TYR64      -0.2866
    101  N         20.4350  -19.9750   12.7290 N.3    81  PHE81      -0.1241
    102  CA        20.4970  -18.5410   12.4930 C.3    81  PHE81       0.1605
    103  C         19.1150  -18.0120   12.1500 C.2    81  PHE81       0.2264
    104  O         18.6580  -18.0940   11.0150 O.2    81  PHE81      -0.2867
    105  CB        21.4920  -18.2460   11.3740 C.3    81  PHE81       0.0534
    106  CG        22.8930  -18.6110   11.7280 C.ar   81  PHE81      -0.0203
    107  CD1       23.5640  -17.9250   12.7420 C.ar   81  PHE81      -0.0042
    108  CD2       23.5250  -19.6770   11.1020 C.ar   81  PHE81      -0.0042
    109  CE1       24.8440  -18.3010   13.1270 C.ar   81  PHE81      -0.0003
    110  CE2       24.8050  -20.0640   11.4800 C.ar   81  PHE81      -0.0003
    111  CZ        25.4650  -19.3730   12.4990 C.ar   81  PHE81      -0.0000
    112  N         18.2910  -16.0200    9.0670 N.3    84  PHE84      -0.1241
    113  CA        18.6160  -16.6900    7.8210 C.3    84  PHE84       0.1605
    114  C         17.8400  -17.9920    7.6750 C.2    84  PHE84       0.2264
    115  O         17.1120  -18.1670    6.7050 O.2    84  PHE84      -0.2867
    116  CB        20.1170  -16.9230    7.7340 C.3    84  PHE84       0.0534
    117  CG        20.9020  -15.6530    7.6750 C.ar   84  PHE84      -0.0203
    118  CD1       21.2480  -14.9760    8.8430 C.ar   84  PHE84      -0.0042
    119  CD2       21.2200  -15.0790    6.4510 C.ar   84  PHE84      -0.0042
    120  CE1       21.8900  -13.7490    8.7920 C.ar   84  PHE84      -0.0003
    121  CE2       21.8650  -13.8470    6.3890 C.ar   84  PHE84      -0.0003
    122  CZ        22.1990  -13.1830    7.5680 C.ar   84  PHE84      -0.0000
    123  N         19.3780  -21.2400    8.2160 N.3    86  ASN86      -0.1240
    124  CA        20.2440  -22.3960    8.0850 C.3    86  ASN86       0.1653
    125  C         20.8750  -22.6660    9.4380 C.2    86  ASN86       0.2266
    126  O         20.8930  -21.7930   10.2950 O.2    86  ASN86      -0.2867
    127  CB        21.3200  -22.1440    7.0210 C.3    86  ASN86       0.1155
    128  CG        22.2800  -21.0250    7.3950 C.2    86  ASN86       0.2627
    129  OD1       21.9080  -19.8600    7.4370 O.2    86  ASN86      -0.2716
    130  ND2       23.5280  -21.3840    7.6660 N.am   86  ASN86      -0.0877
@<TRIPOS>BOND
     1     6     5    1
     2     2     5    1
     3     2     1    1
     4     2     3    1
     5     5     7    1
     6     3     4    2
     7     8     9    1
     8    18    17    2
     9     9    10    1
    10     9    12    1
    11    11    10    2
    12    30    28    1
    13    29    28    1
    14    13    12    1
    15    17    16    1
    16    28    25    1
    17    47    45   ar
    18    12    14    1
    19    15    16    1
    20    23    21   am
    21    19    16    1
    22    19    20    1
    23    45    46   ar
    24    45    44    1
    25    25    24    1
    26    25    26    1
    27    21    20    1
    28    21    22    2
    29    44    43    1
    30    26    27    2
    31    81    79   ar
    32    80    79   ar
    33    43    40    1
    34    79    78    1
    35    38    36    1
    36    72    73   ar
    37    72    70   ar
    38   121   119   ar
    39   121   122   ar
    40   119   117   ar
    41    73    71   ar
    42   115   114    2
    43    75    74    1
    44    75    78    1
    45    75    76    1
    46   127   128    1
    47   127   124    1
    48    40    39    1
    49    40    41    1
    50    77    76    2
    51   128   129    2
    52   128   130   am
    53    39    33   am
    54    70    68   ar
    55    36    35    1
    56    36    37    1
    57   122   120   ar
    58    71    69   ar
    59    35    32    1
    60   117   116    1
    61   117   118   ar
    62   114   113    1
    63   116   113    1
    64   100    99    1
    65   113   112    1
    66   124   123    1
    67   124   125    1
    68    41    42    2
    69    33    32    1
    70    33    34    2
    71    31    32    1
    72    68    69   ar
    73    68    67    1
    74    88    86    1
    75    54    52    1
    76   120   118   ar
    77    99    97   ar
    78    99    98   ar
    79    61    60    1
    80    53    52    1
    81    52    49    1
    82    97    95   ar
    83   125   126    2
    84    98    96   ar
    85    86    87    1
    86    86    83    1
    87    66    65    2
    88    67    64    1
    89    82    83    1
    90    65    64    1
    91    60    62    1
    92    60    59    1
    93    95    94   ar
    94    49    50    1
    95    49    48    1
    96    96    94   ar
    97    50    51    2
    98    83    84    1
    99    64    63    1
   100   104   103    2
   101   108   110   ar
   102   108   106   ar
   103    94    93    1
   104    59    56    1
   105   105   106    1
   106   105   102    1
   107   110   111   ar
   108   106   107   ar
   109    85    84    2
   110   103   102    1
   111    93    90    1
   112   102   101    1
   113   111   109   ar
   114   107   109   ar
   115    56    55    1
   116    56    57    1
   117    57    58    2
   118    90    89    1
   119    90    91    1
   120    91    92    2
