@<TRIPOS>MOLECULE
tmp/3ntiA00.pdb
 193 184 0 0 0
SMALL
GASTEIGER

@<TRIPOS>ATOM
      1  N          9.9430  -10.0770    0.8010 N.3     6  VAL6       -0.1231
      2  CA         9.2000   -8.9040    1.1960 C.3     6  VAL6        0.1692
      3  C          7.9040   -8.9650    0.4040 C.2     6  VAL6        0.2592
      4  O          7.9170   -8.8830   -0.8190 O.2     6  VAL6       -0.2718
      5  CB        10.0040   -7.6050    0.8300 C.3     6  VAL6        0.0266
      6  CG1        9.1380   -6.3700    0.9660 C.3     6  VAL6        0.0020
      7  CG2       11.2180   -7.4740    1.7370 C.3     6  VAL6        0.0020
      8  N          6.7830   -9.1430    1.0860 N.am    7  VAL7       -0.1966
      9  CA         5.4980   -9.1880    0.3890 C.3     7  VAL7        0.1727
     10  C          5.2470   -7.7420   -0.0340 C.2     7  VAL7        0.2616
     11  O          4.9600   -6.9010    0.8150 O.2     7  VAL7       -0.2715
     12  CB         4.3720   -9.6510    1.3460 C.3     7  VAL7        0.0290
     13  CG1        3.1400  -10.0330    0.5740 C.3     7  VAL7        0.0023
     14  CG2        4.8640  -10.8050    2.1890 C.3     7  VAL7        0.0023
     15  N          5.3720   -7.4220   -1.3190 N.am    8  VAL8       -0.1963
     16  CA         5.1540   -6.0320   -1.6950 C.3     8  VAL8        0.1727
     17  C          3.7320   -5.7520   -2.1420 C.2     8  VAL8        0.2616
     18  O          3.2390   -4.6460   -1.9690 O.2     8  VAL8       -0.2715
     19  CB         6.1580   -5.5200   -2.7880 C.3     8  VAL8        0.0290
     20  CG1        7.4300   -6.3170   -2.7520 C.3     8  VAL8        0.0023
     21  CG2        5.5290   -5.5470   -4.1390 C.3     8  VAL8        0.0023
     22  N          3.0740   -6.7400   -2.7240 N.am    9  GLN9       -0.1963
     23  CA         1.6990   -6.5620   -3.1680 C.3     9  GLN9        0.1733
     24  C          0.9100   -7.7440   -2.6450 C.2     9  GLN9        0.2616
     25  O          1.4550   -8.8390   -2.4860 O.2     9  GLN9       -0.2715
     26  CB         1.6210   -6.5240   -4.6880 C.3     9  GLN9        0.0408
     27  CG         0.2160   -6.4010   -5.2050 C.3     9  GLN9        0.0908
     28  CD        -0.4380   -5.1070   -4.7780 C.2     9  GLN9        0.2608
     29  OE1       -1.6610   -4.9990   -4.7770 O.2     9  GLN9       -0.2717
     30  NE2        0.3720   -4.1110   -4.4190 N.am    9  GLN9       -0.0878
     31  N         -0.3690   -7.5390   -2.3650 N.am   10  PHE10      -0.1974
     32  CA        -1.1660   -8.6340   -1.8410 C.3    10  PHE10       0.1639
     33  C         -2.6580   -8.4160   -2.0550 C.2    10  PHE10       0.2290
     34  O         -3.2910   -7.6600   -1.3180 O.2    10  PHE10      -0.2864
     35  CB        -0.8330   -8.8090   -0.3620 C.3    10  PHE10       0.0560
     36  CG        -1.3690  -10.0610    0.2420 C.ar   10  PHE10      -0.0200
     37  CD1       -2.6940  -10.1390    0.6510 C.ar   10  PHE10      -0.0042
     38  CD2       -0.5460  -11.1720    0.4050 C.ar   10  PHE10      -0.0042
     39  CE1       -3.1970  -11.3060    1.2160 C.ar   10  PHE10      -0.0003
     40  CE2       -1.0380  -12.3500    0.9700 C.ar   10  PHE10      -0.0003
     41  CZ        -2.3690  -12.4160    1.3780 C.ar   10  PHE10      -0.0000
     42  N          9.3400  -10.2720   -3.2600 N.3    19  GLN19      -0.1245
     43  CA        10.6900  -10.0560   -3.7440 C.3    19  GLN19       0.1566
     44  C         11.6130  -10.9060   -2.8950 C.2    19  GLN19       0.2260
     45  O         11.6400  -10.7720   -1.6700 O.2    19  GLN19      -0.2867
     46  CB        11.0880   -8.5830   -3.6020 C.3    19  GLN19       0.0367
     47  CG        10.4220   -7.6610   -4.6080 C.3    19  GLN19       0.0905
     48  CD        10.6930   -6.1870   -4.3340 C.2    19  GLN19       0.2608
     49  OE1       10.3780   -5.3310   -5.1550 O.2    19  GLN19      -0.2717
     50  NE2       11.2680   -5.8880   -3.1760 N.am   19  GLN19      -0.0878
     51  N         17.5130   -9.0420   -4.7180 N.3    24  VAL24      -0.1245
     52  CA        17.6950   -7.6690   -4.2720 C.3    24  VAL24       0.1561
     53  C         18.9290   -7.0110   -4.8810 C.2    24  VAL24       0.2260
     54  O         18.8550   -5.8930   -5.3720 O.2    24  VAL24      -0.2867
     55  CB        17.7500   -7.6000   -2.7220 C.3    24  VAL24       0.0252
     56  CG1       18.2480   -6.2330   -2.2540 C.3    24  VAL24       0.0019
     57  CG2       16.3650   -7.8480   -2.1690 C.3    24  VAL24       0.0019
     58  N         18.2170   -6.1680   -8.5520 N.3    27  LEU27      -0.1231
     59  CA        17.1590   -5.1740   -8.6090 C.3    27  LEU27       0.1693
     60  C         17.7320   -3.8080   -8.2730 C.2    27  LEU27       0.2591
     61  O         17.3530   -2.7960   -8.8740 O.2    27  LEU27      -0.2718
     62  CB        16.0600   -5.5310   -7.6150 C.3    27  LEU27       0.0284
     63  CG        14.9740   -4.4890   -7.3540 C.3    27  LEU27       0.0019
     64  CD1       14.1980   -4.1500   -8.6200 C.3    27  LEU27       0.0001
     65  CD2       14.0540   -5.0530   -6.3090 C.3    27  LEU27       0.0001
     66  N         18.6430   -3.7920   -7.3020 N.am   28  GLU28      -0.1979
     67  CA        19.3000   -2.5640   -6.8660 C.3    28  GLU28       0.1602
     68  C         20.0980   -1.9930   -8.0310 C.2    28  GLU28       0.2287
     69  O         20.1750   -0.7820   -8.2020 O.2    28  GLU28      -0.2864
     70  CB        20.2380   -2.8450   -5.6890 C.3    28  GLU28       0.0415
     71  CG        19.5410   -3.2520   -4.3930 C.3    28  GLU28       0.1163
     72  CD        19.2090   -2.0680   -3.4910 C.2    28  GLU28       0.3649
     73  OE1       20.1390   -1.3050   -3.1400 O.co2  28  GLU28      -0.2457
     74  OE2       18.0250   -1.9030   -3.1170 O.co2  28  GLU28      -0.2457
     75  N         17.8010   -0.5590  -10.7340 N.3    31  THR31      -0.1218
     76  CA        17.3910    0.7660  -10.3020 C.3    31  THR31       0.1862
     77  C         18.4590    1.8260  -10.5990 C.2    31  THR31       0.2287
     78  O         18.1290    2.9020  -11.1000 O.2    31  THR31      -0.2866
     79  CB        17.0360    0.7500   -8.8090 C.3    31  THR31       0.1770
     80  OG1       16.2170   -0.3970   -8.5460 O.3    31  THR31      -0.2211
     81  CG2       16.2560    1.9950   -8.4290 C.3    31  THR31       0.0375
     82  N         18.0000    4.8170  -13.3250 N.3    35  LEU35      -0.1245
     83  CA        18.0000    6.1680  -12.7860 C.3    35  LEU35       0.1561
     84  C         19.0860    6.9650  -13.4880 C.2    35  LEU35       0.2260
     85  O         18.9020    8.1380  -13.8020 O.2    35  LEU35      -0.2867
     86  CB        18.2430    6.1220  -11.2790 C.3    35  LEU35       0.0270
     87  CG        17.5930    7.2260  -10.4440 C.3    35  LEU35       0.0019
     88  CD1       16.2930    7.6920  -11.0910 C.3    35  LEU35       0.0001
     89  CD2       17.3300    6.6940   -9.0390 C.3    35  LEU35       0.0001
     90  N          6.1050    5.7340  -11.6980 N.3    57  PHE57      -0.1241
     91  CA         5.3300    5.3790  -10.5220 C.3    57  PHE57       0.1605
     92  C          4.9310    6.6570   -9.8230 C.2    57  PHE57       0.2264
     93  O          5.7700    7.3100   -9.1860 O.2    57  PHE57      -0.2867
     94  CB         6.1710    4.5260   -9.5780 C.3    57  PHE57       0.0534
     95  CG         5.4380    4.0740   -8.3430 C.ar   57  PHE57      -0.0203
     96  CD1        4.0850    3.7790   -8.3910 C.ar   57  PHE57      -0.0042
     97  CD2        6.1250    3.8570   -7.1540 C.ar   57  PHE57      -0.0042
     98  CE1        3.4240    3.2680   -7.2730 C.ar   57  PHE57      -0.0003
     99  CE2        5.4760    3.3440   -6.0270 C.ar   57  PHE57      -0.0003
    100  CZ         4.1230    3.0480   -6.0890 C.ar   57  PHE57      -0.0000
    101  N          3.7750    7.6660   -7.0440 N.3    59  GLU59      -0.1231
    102  CA         4.2820    7.9480   -5.7050 C.3    59  GLU59       0.1699
    103  C          5.7260    8.4310   -5.6760 C.2    59  GLU59       0.2592
    104  O          6.0960    9.2690   -4.8520 O.2    59  GLU59      -0.2718
    105  CB         4.2000    6.7060   -4.8260 C.3    59  GLU59       0.0402
    106  CG         2.8600    6.4790   -4.1770 C.3    59  GLU59       0.1161
    107  CD         2.9950    5.9090   -2.7750 C.2    59  GLU59       0.3649
    108  OE1        3.7030    4.8880   -2.6110 O.co2  59  GLU59      -0.2457
    109  OE2        2.3930    6.4830   -1.8410 O.co2  59  GLU59      -0.2457
    110  N          6.5410    7.8770   -6.5660 N.am   60  ASP60      -0.1974
    111  CA         7.9550    8.2090   -6.6420 C.3    60  ASP60       0.1709
    112  C          8.2640    9.2750   -7.6680 C.2    60  ASP60       0.2293
    113  O          9.1180   10.1240   -7.4420 O.2    60  ASP60      -0.2864
    114  CB         8.7550    6.9660   -7.0220 C.3    60  ASP60       0.1436
    115  CG         8.8040    5.9550   -5.9230 C.2    60  ASP60       0.3671
    116  OD1        8.0440    6.1170   -4.9470 O.co2  60  ASP60      -0.2456
    117  OD2        9.5970    4.9970   -6.0310 O.co2  60  ASP60      -0.2456
    118  N          9.2790    8.2120  -10.2030 N.3    62  VAL62      -0.1245
    119  CA        10.4160    7.4300  -10.6980 C.3    62  VAL62       0.1561
    120  C          9.9650    6.3880  -11.7260 C.2    62  VAL62       0.2260
    121  O          8.8770    5.8340  -11.6170 O.2    62  VAL62      -0.2867
    122  CB        11.1280    6.6760   -9.5520 C.3    62  VAL62       0.0252
    123  CG1       12.2880    5.8600  -10.1130 C.3    62  VAL62       0.0019
    124  CG2       11.6110    7.6590   -8.4980 C.3    62  VAL62       0.0019
    125  N         10.1750    2.7630  -13.6940 N.3    64  TYR64      -0.1241
    126  CA        10.4990    1.3620  -13.4390 C.3    64  TYR64       0.1605
    127  C         10.1190    0.4810  -14.6290 C.2    64  TYR64       0.2264
    128  O          9.2130    0.8330  -15.4030 O.2    64  TYR64      -0.2867
    129  CB         9.7150    0.8790  -12.2350 C.3    64  TYR64       0.0534
    130  CG        10.0440    1.5900  -10.9620 C.ar   64  TYR64      -0.0201
    131  CD1       11.1140    1.1830  -10.1780 C.ar   64  TYR64      -0.0009
    132  CD2        9.2810    2.6850  -10.5310 C.ar   64  TYR64      -0.0009
    133  CE1       11.4200    1.8420   -8.9950 C.ar   64  TYR64       0.0417
    134  CE2        9.5800    3.3500   -9.3540 C.ar   64  TYR64       0.0417
    135  CZ        10.6500    2.9200   -8.5950 C.ar   64  TYR64       0.1957
    136  OH        10.9580    3.5640   -7.4330 O.3    64  TYR64      -0.2866
    137  N          4.2010   -3.0450  -12.5370 N.3    81  PHE81      -0.1241
    138  CA         5.6260   -2.9310  -12.2900 C.3    81  PHE81       0.1605
    139  C          6.2020   -4.3070  -11.9950 C.2    81  PHE81       0.2264
    140  O          6.2090   -4.7770  -10.8530 O.2    81  PHE81      -0.2867
    141  CB         5.8530   -1.9330  -11.1560 C.3    81  PHE81       0.0534
    142  CG         5.5450   -0.5280  -11.5550 C.ar   81  PHE81      -0.0203
    143  CD1        6.2870    0.0910  -12.5650 C.ar   81  PHE81      -0.0042
    144  CD2        4.4700    0.1460  -11.0060 C.ar   81  PHE81      -0.0042
    145  CE1        5.9570    1.3590  -13.0280 C.ar   81  PHE81      -0.0003
    146  CE2        4.1290    1.4160  -11.4580 C.ar   81  PHE81      -0.0003
    147  CZ         4.8760    2.0220  -12.4740 C.ar   81  PHE81      -0.0000
    148  N          8.3100   -5.1870   -9.0370 N.3    84  PHE84      -0.1241
    149  CA         7.7060   -4.9310   -7.7400 C.3    84  PHE84       0.1605
    150  C          6.4530   -5.7600   -7.5190 C.2    84  PHE84       0.2264
    151  O          6.3920   -6.5590   -6.5920 O.2    84  PHE84      -0.2867
    152  CB         7.4300   -3.4460   -7.5770 C.3    84  PHE84       0.0534
    153  CG         8.6740   -2.6440   -7.4170 C.ar   84  PHE84      -0.0203
    154  CD1        9.3950   -2.2160   -8.5370 C.ar   84  PHE84      -0.0042
    155  CD2        9.1890   -2.3950   -6.1460 C.ar   84  PHE84      -0.0042
    156  CE1       10.6090   -1.5560   -8.3950 C.ar   84  PHE84      -0.0003
    157  CE2       10.4060   -1.7360   -5.9880 C.ar   84  PHE84      -0.0003
    158  CZ        11.1200   -1.3140   -7.1190 C.ar   84  PHE84      -0.0000
    159  N          3.1540   -4.2530   -7.8780 N.3    86  ASN86      -0.1240
    160  CA         1.9820   -3.4010   -7.7920 C.3    86  ASN86       0.1653
    161  C          1.6600   -2.8360   -9.1600 C.2    86  ASN86       0.2266
    162  O          2.4740   -2.9260  -10.0670 O.2    86  ASN86      -0.2867
    163  CB         2.2060   -2.2650   -6.7770 C.3    86  ASN86       0.1155
    164  CG         3.2430   -1.2470   -7.2400 C.2    86  ASN86       0.2627
    165  OD1        4.4200   -1.5690   -7.4010 O.2    86  ASN86      -0.2716
    166  ND2        2.8020   -0.0070   -7.4490 N.am   86  ASN86      -0.0877
    167  N         -0.9150   -8.6120    6.6370 N.3   126  ILE126     -0.1231
    168  CA         0.2330   -8.5440    5.7320 C.3   126  ILE126      0.1692
    169  C          0.6180   -7.0840    5.4790 C.2   126  ILE126      0.2592
    170  O          1.7900   -6.7220    5.5840 O.2   126  ILE126     -0.2718
    171  CB        -0.0690   -9.2150    4.3430 C.3   126  ILE126      0.0266
    172  CG1       -0.4060  -10.7020    4.5250 C.3   126  ILE126      0.0019
    173  CG2        1.1400   -9.0330    3.3940 C.3   126  ILE126      0.0020
    174  CD1        0.7460  -11.7200    4.5400 C.3   126  ILE126      0.0001
    175  N         -0.3660   -6.2500    5.1440 N.am  127  ASP127     -0.1974
    176  CA        -0.0880   -4.8400    4.8710 C.3   127  ASP127      0.1709
    177  C          0.5220   -4.1360    6.0820 C.2   127  ASP127      0.2293
    178  O          1.3450   -3.2310    5.9410 O.2   127  ASP127     -0.2864
    179  CB        -1.3580   -4.1140    4.4110 C.3   127  ASP127      0.1436
    180  CG        -1.8940   -4.6550    3.0780 C.2   127  ASP127      0.3671
    181  OD1       -1.0790   -5.0670    2.2150 O.co2 127  ASP127     -0.2456
    182  OD2       -3.1330   -4.6560    2.8860 O.co2 127  ASP127     -0.2456
    183  N          4.3180   -4.5420    5.7040 N.3   130  PHE130     -0.1241
    184  CA         4.8840   -4.2780    4.3850 C.3   130  PHE130      0.1605
    185  C          6.4040   -4.1100    4.4300 C.2   130  PHE130      0.2264
    186  O          7.1200   -4.4310    3.4720 O.2   130  PHE130     -0.2867
    187  CB         4.2400   -3.0150    3.7940 C.3   130  PHE130      0.0534
    188  CG         4.4840   -1.7630    4.6020 C.ar  130  PHE130     -0.0203
    189  CD1        5.7340   -1.1430    4.6050 C.ar  130  PHE130     -0.0042
    190  CD2        3.4720   -1.2210    5.3900 C.ar  130  PHE130     -0.0042
    191  CE1        5.9740   -0.0090    5.3850 C.ar  130  PHE130     -0.0003
    192  CE2        3.7020   -0.0840    6.1750 C.ar  130  PHE130     -0.0003
    193  CZ         4.9580    0.5210    6.1720 C.ar  130  PHE130     -0.0000
@<TRIPOS>BOND
     1   128   127    2
     2   127   126    1
     3    85    84    2
     4   125   126    1
     5    84    83    1
     6   126   129    1
     7    82    83    1
     8   145   143   ar
     9   145   147   ar
    10    83    86    1
    11   143   142   ar
    12   137   138    1
    13   147   146   ar
    14   138   139    1
    15   138   141    1
    16   129   130    1
    17   139   140    2
    18   120   121    2
    19   120   119    1
    20    90    91    1
    21   142   141    1
    22   142   144   ar
    23   146   144   ar
    24    86    87    1
    25    78    77    2
    26    88    87    1
    27   130   132   ar
    28   130   131   ar
    29    75    76    1
    30   119   118    1
    31   119   122    1
    32    77    76    1
    33   132   134   ar
    34    91    92    1
    35    91    94    1
    36    87    89    1
    37    76    79    1
    38   131   133   ar
    39   123   122    1
    40   162   161    2
    41    92    93    2
    42    94    95    1
    43   122   124    1
    44   134   135   ar
    45   161   160    1
    46   148   149    1
    47   133   135   ar
    48    61    60    2
    49    79    80    1
    50    79    81    1
    51    64    63    1
    52    59    58    1
    53    59    60    1
    54    59    62    1
    55   135   136    1
    56   154   156   ar
    57   154   153   ar
    58   156   158   ar
    59    96    95   ar
    60    96    98   ar
    61    95    97   ar
    62    60    66   am
    63    69    68    2
    64    68    67    1
    65   159   160    1
    66   160   163    1
    67   149   152    1
    68   149   150    1
    69   112   113    2
    70   112   111    1
    71    62    63    1
    72   152   153    1
    73   150   151    2
    74   166   164   am
    75   153   155   ar
    76   165   164    2
    77    63    65    1
    78    66    67    1
    79    98   100   ar
    80   164   163    1
    81    97    99   ar
    82   158   157   ar
    83   101   102    1
    84   114   111    1
    85   114   115    1
    86    67    70    1
    87   111   110    1
    88   110   103   am
    89   155   157   ar
    90   100    99   ar
    91   117   115   ar
    92   115   116   ar
    93   102   103    1
    94   102   105    1
    95    70    71    1
    96   103   104    2
    97    54    53    2
    98    27    28    1
    99    27    26    1
   100    49    48    2
   101    53    52    1
   102   105   106    1
   103    28    29    2
   104    28    30   am
   105    51    52    1
   106    26    23    1
   107    47    48    1
   108    47    46    1
   109    71    72    1
   110    48    50   am
   111    52    55    1
   112   106   107    1
   113    21    19    1
   114    43    46    1
   115    43    42    1
   116    43    44    1
   117    72    73   ar
   118    72    74   ar
   119    23    22    1
   120    23    24    1
   121    44    45    2
   122    19    20    1
   123    19    16    1
   124   107   108   ar
   125   107   109   ar
   126    22    17   am
   127    55    56    1
   128    55    57    1
   129    24    25    2
   130    24    31   am
   131    31    32    1
   132    17    18    2
   133    17    16    1
   134    33    32    1
   135    33    34    2
   136    32    35    1
   137    16    15    1
   138    15    10   am
   139     4     3    2
   140    35    36    1
   141    10     9    1
   142    10    11    2
   143    36    38   ar
   144    36    37   ar
   145     9     8    1
   146     9    12    1
   147     3     8   am
   148     3     2    1
   149    38    40   ar
   150    13    12    1
   151    37    39   ar
   152     1     2    1
   153     5     6    1
   154     5     2    1
   155     5     7    1
   156    40    41   ar
   157    39    41   ar
   158    12    14    1
   159   181   180   ar
   160   182   180   ar
   161   180   179    1
   162   173   171    1
   163   186   185    2
   164   187   184    1
   165   187   188    1
   166   171   172    1
   167   171   168    1
   168   184   185    1
   169   184   183    1
   170   179   176    1
   171   172   174    1
   172   188   189   ar
   173   188   190   ar
   174   189   191   ar
   175   176   175    1
   176   176   177    1
   177   175   169   am
   178   191   193   ar
   179   190   192   ar
   180   169   170    2
   181   169   168    1
   182   168   167    1
   183   178   177    2
   184   193   192   ar
