@<TRIPOS>MOLECULE
tmp/3ntlA00.pdb
 209 196 0 0 0
SMALL
GASTEIGER

@<TRIPOS>ATOM
      1  N        -23.2470   13.1940    3.1680 N.3    15  ARG15      -0.1231
      2  CA       -23.0370   14.6270    3.3970 C.3    15  ARG15       0.1694
      3  C        -23.0580   14.8380    4.8770 C.2    15  ARG15       0.2591
      4  O        -23.6390   14.0070    5.5790 O.2    15  ARG15      -0.2718
      5  CB       -24.2080   15.4050    2.6850 C.3    15  ARG15       0.0321
      6  CG       -24.0000   16.8850    2.7760 C.3    15  ARG15       0.0489
      7  CD       -25.1670   17.6350    2.1360 C.3    15  ARG15       0.2205
      8  NE       -24.9180   19.0460    2.3650 N.pl3  15  ARG15      -0.0865
      9  CZ       -25.8460   19.9740    2.2680 C.cat  15  ARG15       0.5346
     10  NH1      -25.5190   21.2240    2.5280 N.pl3  15  ARG15       0.1354
     11  NH2      -27.0770   19.6350    1.8650 N.pl3  15  ARG15       0.1354
     12  N        -22.3630   15.8650    5.4090 N.am   16  ALA16      -0.1980
     13  CA       -22.6160   16.3010    6.7740 C.3    16  ALA16       0.1597
     14  C        -24.1410   16.5730    7.0190 C.2    16  ALA16       0.2287
     15  O        -24.8840   16.8470    6.0900 O.2    16  ALA16      -0.2864
     16  CB       -21.8100   17.5430    7.0870 C.3    16  ALA16       0.0319
     17  N        -25.8900   22.0210    9.6930 N.3    19  ARG19      -0.1245
     18  CA       -24.8090   22.9730   10.0690 C.3    19  ARG19       0.1563
     19  C        -25.3490   24.4130    9.9880 C.2    19  ARG19       0.2260
     20  O        -26.3550   24.6690    9.3540 O.2    19  ARG19      -0.2867
     21  CB       -23.5940   22.8390    9.1290 C.3    19  ARG19       0.0307
     22  CG       -24.0520   22.9550    7.5610 C.3    19  ARG19       0.0489
     23  CD       -22.9700   23.0800    6.4200 C.3    19  ARG19       0.2205
     24  NE       -23.2830   24.3720    6.0520 N.pl3  19  ARG19      -0.0865
     25  CZ       -23.8200   24.9200    4.9900 C.cat  19  ARG19       0.5346
     26  NH1      -23.9200   24.4630    3.7220 N.pl3  19  ARG19       0.1354
     27  NH2      -24.1160   26.1460    5.2880 N.pl3  19  ARG19       0.1354
     28  N        -22.5800   28.8660    6.0840 N.3    22  LEU22      -0.1231
     29  CA       -21.1300   29.0430    5.9500 C.3    22  LEU22       0.1693
     30  C        -20.6550   30.4450    6.3120 C.2    22  LEU22       0.2592
     31  O        -21.2540   31.4670    5.8970 O.2    22  LEU22      -0.2718
     32  CB       -20.6100   28.5760    4.5950 C.3    22  LEU22       0.0284
     33  CG       -21.0230   27.1850    4.1250 C.3    22  LEU22       0.0019
     34  CD1      -20.4050   26.9050    2.7800 C.3    22  LEU22       0.0001
     35  CD2      -20.5580   26.2030    5.1730 C.3    22  LEU22       0.0001
     36  N        -19.6070   30.4950    7.1300 N.am   23  ALA23      -0.1966
     37  CA       -19.0940   31.7760    7.6330 C.3    23  ALA23       0.1728
     38  C        -18.6290   32.6150    6.4340 C.2    23  ALA23       0.2616
     39  O        -18.7850   33.8470    6.4390 O.2    23  ALA23      -0.2715
     40  CB       -17.9180   31.5800    8.6960 C.3    23  ALA23       0.0334
     41  N        -18.1200   31.9550    5.3940 N.am   24  ASN24      -0.1958
     42  CA       -17.6070   32.6440    4.1880 C.3    24  ASN24       0.1819
     43  C        -18.6590   33.4080    3.3650 C.2    24  ASN24       0.2621
     44  O        -18.3120   34.3080    2.5370 O.2    24  ASN24      -0.2715
     45  CB       -16.7930   31.6660    3.3070 C.3    24  ASN24       0.1195
     46  CG       -15.4510   31.2630    3.9790 C.2    24  ASN24       0.2630
     47  OD1      -15.0700   31.8510    4.9950 O.2    24  ASN24      -0.2716
     48  ND2      -14.7610   30.2010    3.4390 N.am   24  ASN24      -0.0877
     49  N        -19.9400   33.0710    3.5860 N.am   25  ASN25      -0.1972
     50  CA       -21.0470   33.8610    2.9650 C.3    25  ASN25       0.1688
     51  C        -21.5890   35.0030    3.8010 C.2    25  ASN25       0.2292
     52  O        -22.4800   35.7450    3.3490 O.2    25  ASN25      -0.2864
     53  CB       -22.2210   32.9590    2.5610 C.3    25  ASN25       0.1181
     54  CG       -21.7620   31.7800    1.7730 C.2    25  ASN25       0.2629
     55  OD1      -20.7350   31.8350    1.0530 O.2    25  ASN25      -0.2716
     56  ND2      -22.4730   30.6800    1.9170 N.am   25  ASN25      -0.0877
     57  N        -20.7130   27.1580    9.5130 N.3    45  GLY45      -0.1225
     58  CA       -20.0720   25.9990    8.9510 C.3    45  GLY45       0.1811
     59  C        -19.9350   24.8620    9.9590 C.2    45  GLY45       0.2280
     60  O        -19.4030   23.8120    9.6210 O.2    45  GLY45      -0.2866
     61  N        -12.9140   18.5280    8.6770 N.3    90  LEU90      -0.1245
     62  CA       -13.5820   19.7180    9.1570 C.3    90  LEU90       0.1561
     63  C        -14.4820   19.3570   10.3350 C.2    90  LEU90       0.2260
     64  O        -14.9240   18.1690   10.5030 O.2    90  LEU90      -0.2867
     65  CB       -14.4400   20.2640    8.0090 C.3    90  LEU90       0.0270
     66  CG       -13.7800   20.7530    6.7130 C.3    90  LEU90       0.0019
     67  CD1      -14.8170   21.5080    5.9540 C.3    90  LEU90       0.0001
     68  CD2      -12.6820   21.7310    6.9790 C.3    90  LEU90       0.0001
     69  N        -17.5030   19.8730   10.8590 N.3    92  ARG92      -0.1245
     70  CA       -18.9080   19.3700   10.6480 C.3    92  ARG92       0.1563
     71  C        -18.9360   17.9240   10.1710 C.2    92  ARG92       0.2260
     72  O        -19.8730   17.1680   10.4810 O.2    92  ARG92      -0.2867
     73  CB       -19.6850   20.3050    9.7330 C.3    92  ARG92       0.0307
     74  CG       -19.2320   20.3740    8.2380 C.3    92  ARG92       0.0489
     75  CD       -20.2260   21.3060    7.5760 C.3    92  ARG92       0.2205
     76  NE       -19.7940   21.6390    6.2170 N.pl3  92  ARG92      -0.0865
     77  CZ       -18.9730   22.6360    5.8960 C.cat  92  ARG92       0.5346
     78  NH1      -18.4110   23.4470    6.8060 N.pl3  92  ARG92       0.1354
     79  NH2      -18.6640   22.7890    4.6230 N.pl3  92  ARG92       0.1354
     80  N         -8.8710   21.1400    4.2440 N.3   121  MET121     -0.1245
     81  CA        -9.5050   20.1540    3.3850 C.3   121  MET121      0.1570
     82  C         -8.5770   18.9510    3.1490 C.2   121  MET121      0.2261
     83  O         -7.3790   19.1060    2.9200 O.2   121  MET121     -0.2867
     84  CB        -9.9210   20.7500    2.0400 C.3   121  MET121      0.0387
     85  CG       -10.9530   21.9100    2.2150 C.3   121  MET121      0.0595
     86  SD       -12.5730   21.2910    2.7520 S.3   121  MET121     -0.1393
     87  CE       -13.0070   20.4770    1.2830 C.3   121  MET121      0.0692
     88  N        -13.1630   19.1310   -3.5070 N.3   127  PRO127     -0.2116
     89  CA       -13.7210   19.0950   -4.8490 C.3   127  PRO127      0.1372
     90  C        -12.9990   20.1510   -5.7470 C.2   127  PRO127      0.2244
     91  O        -13.6450   20.9920   -6.3820 O.2   127  PRO127     -0.2868
     92  CB       -15.2170   19.3990   -4.6020 C.3   127  PRO127      0.0268
     93  CG       -15.2480   20.3230   -3.4600 C.3   127  PRO127      0.0207
     94  CD       -13.9950   19.9310   -2.5760 C.3   127  PRO127      0.0892
     95  N        -12.0570   25.1050   -6.0500 N.3   194  GLU194     -0.1245
     96  CA       -13.3190   24.5060   -6.4640 C.3   194  GLU194      0.1567
     97  C        -13.7610   25.2580   -7.7340 C.2   194  GLU194      0.2260
     98  O        -13.4690   26.4770   -7.8210 O.2   194  GLU194     -0.2867
     99  CB       -14.3120   24.7470   -5.3200 C.3   194  GLU194      0.0388
    100  CG       -13.9920   23.9250   -4.0720 C.3   194  GLU194      0.1160
    101  CD       -15.0700   23.9740   -3.0420 C.2   194  GLU194      0.3649
    102  OE1      -14.8010   23.4980   -1.9100 O.co2 194  GLU194     -0.2457
    103  OE2      -16.2060   24.4500   -3.3520 O.co2 194  GLU194     -0.2457
    104  N        -24.3110   33.0860   -7.0460 N.3   202  LYS202     -0.1245
    105  CA       -23.7220   32.8130   -5.7290 C.3   202  LYS202      0.1561
    106  C        -24.5160   33.5260   -4.6150 C.2   202  LYS202      0.2260
    107  O        -24.7210   32.9430   -3.5470 O.2   202  LYS202     -0.2867
    108  CB       -22.2520   33.2030   -5.6350 C.3   202  LYS202      0.0271
    109  CG       -21.6530   32.7740   -4.2770 C.3   202  LYS202      0.0035
    110  CD       -20.5840   31.7420   -4.5030 C.3   202  LYS202      0.0206
    111  CE       -19.4610   31.8050   -3.4860 C.3   202  LYS202      0.1093
    112  NZ       -18.8420   33.1610   -3.4900 N.3   202  LYS202     -0.1314
    113  N        -27.6060   31.3620   -4.0330 N.3   205  ASN205     -0.1240
    114  CA       -27.3000   30.1120   -3.3690 C.3   205  ASN205      0.1653
    115  C        -27.0770   30.3990   -1.8980 C.2   205  ASN205      0.2266
    116  O        -27.5730   29.6870   -1.0200 O.2   205  ASN205     -0.2867
    117  CB       -26.0340   29.4620   -3.9720 C.3   205  ASN205      0.1155
    118  CG       -25.6200   28.1800   -3.2460 C.2   205  ASN205      0.2627
    119  OD1      -26.2820   27.1870   -3.3540 O.2   205  ASN205     -0.2716
    120  ND2      -24.5380   28.2380   -2.4610 N.am  205  ASN205     -0.0877
    121  N        -29.5920   28.7600    0.6610 N.3   209  ASP209     -0.1239
    122  CA       -28.9780   27.7850    1.6350 C.3   209  ASP209      0.1674
    123  C        -29.2960   28.1860    3.0600 C.2   209  ASP209      0.2266
    124  O        -29.7170   27.3490    3.9120 O.2   209  ASP209     -0.2867
    125  CB       -27.4660   27.8040    1.4980 C.3   209  ASP209      0.1410
    126  CG       -26.7860   26.5280    2.0330 C.2   209  ASP209      0.3668
    127  OD1      -25.5370   26.5930    2.2480 O.co2 209  ASP209     -0.2456
    128  OD2      -27.4500   25.4790    2.1470 O.co2 209  ASP209     -0.2456
    129  N        -30.3320   27.4360   -5.4520 N.3   242  LYS242     -0.1245
    130  CA       -29.3560   26.6190   -4.6990 C.3   242  LYS242      0.1561
    131  C        -29.0670   25.3450   -5.4810 C.2   242  LYS242      0.2260
    132  O        -27.9080   24.9660   -5.6710 O.2   242  LYS242     -0.2867
    133  CB       -29.9240   26.3890   -3.2570 C.3   242  LYS242      0.0271
    134  CG       -29.0920   25.4800   -2.3350 C.3   242  LYS242      0.0035
    135  CD       -29.8490   25.2620   -1.0460 C.3   242  LYS242      0.0206
    136  CE       -29.1970   24.1580   -0.1880 C.3   242  LYS242      0.1093
    137  NZ       -28.9660   22.8540   -0.9100 N.3   242  LYS242     -0.1314
    138  N        -27.0860   26.4710   -8.6230 N.3   245  TYR245     -0.1227
    139  CA       -25.6900   26.7720   -8.3010 C.3   245  TYR245      0.1736
    140  C        -24.8910   25.4170   -8.2690 C.2   245  TYR245      0.2595
    141  O        -23.9220   25.1930   -9.0110 O.2   245  TYR245     -0.2718
    142  CB       -25.6520   27.4370   -6.9650 C.3   245  TYR245      0.0548
    143  CG       -24.2660   27.7190   -6.3170 C.ar  245  TYR245     -0.0200
    144  CD1      -23.6660   28.9560   -6.4700 C.ar  245  TYR245     -0.0009
    145  CD2      -23.6100   26.7630   -5.5200 C.ar  245  TYR245     -0.0009
    146  CE1      -22.4140   29.2780   -5.8560 C.ar  245  TYR245      0.0417
    147  CE2      -22.3420   27.0920   -4.8780 C.ar  245  TYR245      0.0417
    148  CZ       -21.7720   28.3370   -5.0960 C.ar  245  TYR245      0.1957
    149  OH       -20.5760   28.7100   -4.5470 O.3   245  TYR245     -0.2866
    150  N        -25.3360   24.5010   -7.4090 N.am  246  GLN246     -0.1979
    151  CA       -24.6180   23.2630   -7.3380 C.3   246  GLN246      0.1601
    152  C        -24.5270   22.5400   -8.6650 C.2   246  GLN246      0.2287
    153  O        -23.4500   22.0420   -9.0310 O.2   246  GLN246     -0.2864
    154  CB       -25.2780   22.3250   -6.3100 C.3   246  GLN246      0.0394
    155  CG       -24.4720   21.0050   -6.0640 C.3   246  GLN246      0.0908
    156  CD       -25.0660   20.3070   -4.8660 C.2   246  GLN246      0.2608
    157  OE1      -25.9760   19.5180   -5.0210 O.2   246  GLN246     -0.2717
    158  NE2      -24.6820   20.7330   -3.6810 N.am  246  GLN246     -0.0878
    159  N        -22.0320   24.1310  -11.0730 N.3   249  LEU249     -0.1231
    160  CA       -20.6020   24.0270  -10.6870 C.3   249  LEU249      0.1693
    161  C        -20.0490   22.6110  -10.6970 C.2   249  LEU249      0.2592
    162  O        -18.8740   22.3650  -11.1160 O.2   249  LEU249     -0.2718
    163  CB       -20.3410   24.6510   -9.3230 C.3   249  LEU249      0.0284
    164  CG       -20.5460   26.1260   -9.1390 C.3   249  LEU249      0.0019
    165  CD1      -20.1830   26.5540   -7.7340 C.3   249  LEU249      0.0001
    166  CD2      -19.7610   26.9160  -10.2160 C.3   249  LEU249      0.0001
    167  N        -20.8870   21.6580  -10.3200 N.am  250  PHE250     -0.1976
    168  CA       -20.3620   20.3250   -9.9800 C.3   250  PHE250      0.1639
    169  C        -20.9010   19.1920  -10.7790 C.2   250  PHE250      0.2290
    170  O        -20.4830   18.0600  -10.5830 O.2   250  PHE250     -0.2864
    171  CB       -20.5570   20.0670   -8.4560 C.3   250  PHE250      0.0560
    172  CG       -19.6830   20.9030   -7.6200 C.ar  250  PHE250     -0.0200
    173  CD1      -18.3000   20.6750   -7.5650 C.ar  250  PHE250     -0.0042
    174  CD2      -20.2210   21.9210   -6.8690 C.ar  250  PHE250     -0.0042
    175  CE1      -17.4940   21.5130   -6.7730 C.ar  250  PHE250     -0.0003
    176  CE2      -19.4530   22.7480   -6.1020 C.ar  250  PHE250     -0.0003
    177  CZ       -18.0890   22.5710   -6.0500 C.ar  250  PHE250     -0.0000
    178  N        -19.2030   16.1970    1.5250 N.3   287  HIS287     -0.1226
    179  CA       -19.8740   17.4400    1.1860 C.3   287  HIS287      0.1752
    180  C        -20.8180   17.2600    0.0570 C.2   287  HIS287      0.2596
    181  O        -20.6230   16.3520   -0.7570 O.2   287  HIS287     -0.2718
    182  CB       -18.7970   18.4380    0.7730 C.3   287  HIS287      0.0759
    183  CG       -17.9090   18.7650    1.9100 C.ar  287  HIS287      0.0818
    184  ND1      -18.3540   19.4700    3.0120 N.ar  287  HIS287     -0.2268
    185  CD2      -16.6390   18.3730    2.1910 C.ar  287  HIS287      0.1154
    186  CE1      -17.3690   19.5690    3.8890 C.ar  287  HIS287      0.1986
    187  NE2      -16.3280   18.8770    3.4290 N.ar  287  HIS287     -0.2212
    188  N        -21.8860   18.0910    0.0390 N.am  288  ASP288     -0.1960
    189  CA       -22.7710   18.0890   -1.0840 C.3   288  ASP288      0.1840
    190  C        -22.0720   18.0500   -2.4430 C.2   288  ASP288      0.2622
    191  O        -22.5480   17.3640   -3.3590 O.2   288  ASP288     -0.2715
    192  CB       -23.7860   19.2420   -1.0510 C.3   288  ASP288      0.1450
    193  CG       -23.1510   20.6630   -0.8040 C.2   288  ASP288      0.3671
    194  OD1      -23.9190   21.5780   -0.4390 O.co2 288  ASP288     -0.2456
    195  OD2      -21.9260   20.8440   -0.8050 O.co2 288  ASP288     -0.2456
    196  N        -21.0230   18.8850   -2.6220 N.am  289  SER289     -0.1950
    197  CA       -20.3070   18.9390   -3.8950 C.3   289  SER289      0.1924
    198  C        -19.6280   17.6010   -4.2010 C.2   289  SER289      0.2314
    199  O        -19.4570   17.2360   -5.3800 O.2   289  SER289     -0.2863
    200  CB       -19.2510   20.0580   -3.8560 C.3   289  SER289      0.2116
    201  OG       -19.8740   21.3260   -3.6490 O.3   289  SER289     -0.2180
    202  N        -29.1690   17.4850    3.2240 N.3   314  ILE314     -0.1245
    203  CA       -28.4460   17.5050    4.5050 C.3   314  ILE314      0.1561
    204  C        -28.5920   16.0930    5.0870 C.2   314  ILE314      0.2260
    205  O        -29.6950   15.5310    5.0520 O.2   314  ILE314     -0.2867
    206  CB       -29.1160   18.5180    5.4240 C.3   314  ILE314      0.0252
    207  CG1      -28.6290   19.9510    5.1110 C.3   314  ILE314      0.0019
    208  CG2      -28.9110   18.2130    6.8860 C.3   314  ILE314      0.0019
    209  CD1      -27.1140   20.2230    5.4220 C.3   314  ILE314      0.0001
@<TRIPOS>BOND
     1   162   161    2
     2   159   160    1
     3   169   170    2
     4   169   168    1
     5   161   160    1
     6   161   167   am
     7   160   163    1
     8   167   168    1
     9   166   164    1
    10   168   171    1
    11   163   164    1
    12   164   165    1
    13   153   152    2
    14   141   140    2
    15   152   151    1
    16   138   139    1
    17   171   172    1
    18   139   140    1
    19   139   142    1
    20   140   150   am
    21    98    97    2
    22    97    96    1
    23   172   173   ar
    24   172   174   ar
    25   173   175   ar
    26   150   151    1
    27   151   154    1
    28   104   105    1
    29   142   143    1
    30   174   176   ar
    31   175   177   ar
    32   144   143   ar
    33   144   146   ar
    34    96    95    1
    35    96    99    1
    36    91    90    2
    37   143   145   ar
    38   154   155    1
    39   176   177   ar
    40   155   156    1
    41   146   148   ar
    42    90    89    1
    43   105   108    1
    44   105   106    1
    45   132   131    2
    46   108   109    1
    47   145   147   ar
    48   131   130    1
    49   129   130    1
    50   199   198    2
    51    99   100    1
    52   148   147   ar
    53   148   149    1
    54   157   156    2
    55   156   158   am
    56    89    92    1
    57    89    88    1
    58   130   133    1
    59   106   107    2
    60    92    93    1
    61   110   109    1
    62   110   111    1
    63   198   197    1
    64   100   101    1
    65   113   114    1
    66   117   114    1
    67   117   118    1
    68   197   200    1
    69   197   196    1
    70   200   201    1
    71    88    94    1
    72   112   111    1
    73    93    94    1
    74   114   115    1
    75   191   190    2
    76   119   118    2
    77   103   101   ar
    78   133   134    1
    79   118   120   am
    80   101   102   ar
    81   196   190   am
    82   190   189    1
    83   134   135    1
    84   115   116    2
    85   189   192    1
    86   189   188    1
    87   192   193    1
    88   135   136    1
    89   137   136    1
    90   195   193   ar
    91   193   194   ar
    92   181   180    2
    93   188   180   am
    94   180   179    1
    95   121   122    1
    96   182   179    1
    97   182   183    1
    98    55    54    2
    99   179   178    1
   100    87    86    1
   101   125   122    1
   102   125   126    1
   103   122   123    1
   104    54    56   am
   105    54    53    1
   106    11     9    1
   107   183   185   ar
   108   183   184   ar
   109   126   128   ar
   110   126   127   ar
   111    84    85    1
   112    84    81    1
   113     7     8    1
   114     7     6    1
   115   185   187   ar
   116    85    86    1
   117     9     8    2
   118     9    10    1
   119    44    43    2
   120    53    50    1
   121     5     6    1
   122     5     2    1
   123    34    33    1
   124    83    82    2
   125    50    49    1
   126    50    51    1
   127   184   186   ar
   128   123   124    2
   129    82    81    1
   130     1     2    1
   131   202   203    1
   132    45    46    1
   133    45    42    1
   134    52    51    2
   135    43    49   am
   136    43    42    1
   137    81    80    1
   138     2     3    1
   139   187   186   ar
   140    48    46   am
   141    26    25    1
   142    46    47    2
   143    33    32    1
   144    33    35    1
   145    42    41    1
   146   203   204    1
   147   203   206    1
   148    32    29    1
   149    79    77    1
   150     3    12   am
   151     3     4    2
   152    25    27    1
   153    25    24    2
   154   205   204    2
   155   207   209    1
   156   207   206    1
   157    41    38   am
   158    12    13    1
   159   206   208    1
   160    77    76    2
   161    77    78    1
   162    31    30    2
   163    29    28    1
   164    29    30    1
   165    67    66    1
   166    24    23    1
   167    15    14    2
   168    76    75    1
   169    30    36   am
   170    23    22    1
   171    38    39    2
   172    38    37    1
   173    66    68    1
   174    66    65    1
   175    13    14    1
   176    13    16    1
   177    36    37    1
   178    22    21    1
   179    75    74    1
   180    37    40    1
   181    65    62    1
   182    74    73    1
   183    61    62    1
   184    58    57    1
   185    58    59    1
   186    21    18    1
   187    62    63    1
   188    20    19    2
   189    60    59    2
   190    17    18    1
   191    73    70    1
   192    19    18    1
   193    71    72    2
   194    71    70    1
   195    63    64    2
   196    70    69    1
