@<TRIPOS>MOLECULE
tmp/3ntoA00.pdb
 142 137 0 0 0
SMALL
GASTEIGER

@<TRIPOS>ATOM
      1  N        -26.0680  -23.1520  -15.1740 N.3   126  MET126     -0.1245
      2  CA       -26.3060  -23.1460  -13.7230 C.3   126  MET126      0.1570
      3  C        -26.9180  -21.8450  -13.1930 C.2   126  MET126      0.2261
      4  O        -27.5120  -21.8320  -12.1120 O.2   126  MET126     -0.2867
      5  CB       -25.0120  -23.4490  -12.9590 C.3   126  MET126      0.0387
      6  CG       -24.0230  -22.2880  -12.9600 C.3   126  MET126      0.0595
      7  SD       -23.1970  -22.0850  -14.5540 S.3   126  MET126     -0.1393
      8  CE       -22.2650  -20.5780  -14.2990 C.3   126  MET126      0.0692
      9  N        -20.6300   -8.7310  -17.6950 N.3   155  HIS155     -0.1241
     10  CA       -19.8870   -9.9140  -17.2920 C.3   155  HIS155      0.1621
     11  C        -18.4340   -9.4730  -17.3190 C.2   155  HIS155      0.2264
     12  O        -17.8710   -9.2440  -18.3920 O.2   155  HIS155     -0.2867
     13  CB       -20.1320  -11.0490  -18.2950 C.3   155  HIS155      0.0745
     14  CG       -19.7040  -12.4040  -17.8100 C.ar  155  HIS155      0.0817
     15  ND1      -20.2830  -13.5720  -18.2670 N.ar  155  HIS155     -0.2268
     16  CD2      -18.7530  -12.7830  -16.9200 C.ar  155  HIS155      0.1154
     17  CE1      -19.7130  -14.6070  -17.6760 C.ar  155  HIS155      0.1986
     18  NE2      -18.7810  -14.1580  -16.8510 N.ar  155  HIS155     -0.2212
     19  N        -14.3320   -9.8350  -15.7960 N.3   157  ASN157     -0.1240
     20  CA       -13.3690  -10.8080  -15.2880 C.3   157  ASN157      0.1653
     21  C        -12.0420  -10.0650  -15.0890 C.2   157  ASN157      0.2266
     22  O        -11.7460   -9.1380  -15.8430 O.2   157  ASN157     -0.2867
     23  CB       -13.2510  -11.9630  -16.3010 C.3   157  ASN157      0.1155
     24  CG       -12.2880  -13.0370  -15.8650 C.2   157  ASN157      0.2627
     25  OD1      -12.6240  -13.9030  -15.0470 O.2   157  ASN157     -0.2716
     26  ND2      -11.0800  -13.0020  -16.4210 N.am  157  ASN157     -0.0877
     27  N         -8.7050  -10.8130  -15.3610 N.3   159  THR159     -0.1203
     28  CA        -7.7260  -10.9380  -16.4370 C.3   159  THR159      0.1994
     29  C         -7.8920  -12.2920  -17.1250 C.2   159  THR159      0.2618
     30  O         -8.4540  -13.2150  -16.5450 O.2   159  THR159     -0.2717
     31  CB        -6.2850  -10.8310  -15.8870 C.3   159  THR159      0.1784
     32  OG1       -5.3510  -10.7550  -16.9750 O.3   159  THR159     -0.2211
     33  CG2       -5.9600  -12.0410  -15.0000 C.3   159  THR159      0.0376
     34  N         -7.4120  -12.4080  -18.3610 N.am  160  VAL160     -0.1965
     35  CA        -7.4480  -13.6880  -19.0630 C.3   160  VAL160      0.1727
     36  C         -6.0670  -14.0710  -19.5910 C.2   160  VAL160      0.2616
     37  O         -5.1760  -13.2250  -19.7000 O.2   160  VAL160     -0.2715
     38  CB        -8.4530  -13.6880  -20.2350 C.3   160  VAL160      0.0290
     39  CG1       -9.8790  -13.6200  -19.7160 C.3   160  VAL160      0.0023
     40  CG2       -8.1470  -12.5460  -21.2200 C.3   160  VAL160      0.0023
     41  N         -5.9090  -15.3450  -19.9340 N.am  161  GLY161     -0.1955
     42  CA        -4.6430  -15.8590  -20.4180 C.3   161  GLY161      0.1869
     43  C         -4.3630  -15.4890  -21.8570 C.2   161  GLY161      0.2309
     44  O         -5.2170  -14.9370  -22.5550 O.2   161  GLY161     -0.2863
     45  N         -4.1800  -17.2890  -24.3780 N.3   163  ASN163     -0.1225
     46  CA        -4.9420  -18.0630  -25.3550 C.3   163  ASN163      0.1785
     47  C         -6.3820  -17.5850  -25.5450 C.2   163  ASN163      0.2597
     48  O         -7.0740  -18.0490  -26.4450 O.2   163  ASN163     -0.2718
     49  CB        -4.9430  -19.5470  -24.9800 C.3   163  ASN163      0.1169
     50  CG        -5.6680  -19.8150  -23.6750 C.2   163  ASN163      0.2627
     51  OD1       -5.5500  -19.0480  -22.7110 O.2   163  ASN163     -0.2716
     52  ND2       -6.4310  -20.9050  -23.6370 N.am  163  ASN163     -0.0877
     53  N         -6.8320  -16.6640  -24.6990 N.am  164  TYR164     -0.1976
     54  CA        -8.2110  -16.1890  -24.7590 C.3   164  TYR164      0.1639
     55  C         -8.3980  -15.2480  -25.9410 C.2   164  TYR164      0.2290
     56  O         -7.7150  -14.2270  -26.0490 O.2   164  TYR164     -0.2864
     57  CB        -8.5810  -15.4860  -23.4450 C.3   164  TYR164      0.0560
     58  CG       -10.0620  -15.2080  -23.2830 C.ar  164  TYR164     -0.0198
     59  CD1      -10.8660  -16.0400  -22.5050 C.ar  164  TYR164     -0.0009
     60  CD2      -10.6560  -14.1100  -23.9080 C.ar  164  TYR164     -0.0009
     61  CE1      -12.2230  -15.7890  -22.3470 C.ar  164  TYR164      0.0417
     62  CE2      -12.0180  -13.8550  -23.7600 C.ar  164  TYR164      0.0417
     63  CZ       -12.7930  -14.6940  -22.9710 C.ar  164  TYR164      0.1957
     64  OH       -14.1410  -14.4400  -22.8130 O.3   164  TYR164     -0.2866
     65  N        -14.1860  -15.9280  -27.9760 N.3   168  MET168     -0.1245
     66  CA       -14.4780  -16.5830  -26.7090 C.3   168  MET168      0.1570
     67  C        -15.2780  -15.6910  -25.7440 C.2   168  MET168      0.2261
     68  O        -15.9820  -16.2010  -24.8750 O.2   168  MET168     -0.2867
     69  CB       -13.1900  -17.0950  -26.0580 C.3   168  MET168      0.0387
     70  CG       -12.5280  -18.2460  -26.8440 C.3   168  MET168      0.0595
     71  SD       -10.8160  -18.5370  -26.3560 S.3   168  MET168     -0.1393
     72  CE       -11.0300  -19.4920  -24.8550 C.3   168  MET168      0.0692
     73  N        -17.6680  -18.5710  -24.8220 N.3   172  ASP172     -0.1225
     74  CA       -17.4130  -19.1530  -23.5070 C.3   172  ASP172      0.1805
     75  C        -18.0200  -18.3510  -22.3600 C.2   172  ASP172      0.2598
     76  O        -18.4310  -18.9150  -21.3460 O.2   172  ASP172     -0.2718
     77  CB       -15.9060  -19.2830  -23.2570 C.3   172  ASP172      0.1424
     78  CG       -15.2410  -20.2970  -24.1770 C.2   172  ASP172      0.3668
     79  OD1      -15.9640  -21.0820  -24.8250 O.co2 172  ASP172     -0.2456
     80  OD2      -13.9940  -20.3120  -24.2370 O.co2 172  ASP172     -0.2456
     81  N        -18.0680  -17.0350  -22.5300 N.am  173  THR173     -0.1953
     82  CA       -18.3770  -16.1120  -21.4420 C.3   173  THR173      0.1897
     83  C        -19.8230  -15.6030  -21.4940 C.2   173  THR173      0.2313
     84  O        -20.6230  -15.9090  -20.6070 O.2   173  THR173     -0.2863
     85  CB       -17.3720  -14.9520  -21.4480 C.3   173  THR173      0.1794
     86  OG1      -16.0590  -15.4780  -21.2010 O.3   173  THR173     -0.2208
     87  CG2      -17.7140  -13.9070  -20.3870 C.3   173  THR173      0.0378
     88  N        -23.5790  -17.5920  -21.0010 N.3   176  HIS176     -0.1241
     89  CA       -24.4020  -17.7120  -19.7990 C.3   176  HIS176      0.1621
     90  C        -25.4800  -16.6380  -19.7150 C.2   176  HIS176      0.2264
     91  O        -26.6350  -16.9350  -19.3810 O.2   176  HIS176     -0.2867
     92  CB       -23.5240  -17.7930  -18.5490 C.3   176  HIS176      0.0745
     93  CG       -22.7170  -19.0550  -18.4920 C.ar  176  HIS176      0.0817
     94  ND1      -23.2430  -20.2550  -18.0660 N.ar  176  HIS176     -0.2268
     95  CD2      -21.4370  -19.3100  -18.8520 C.ar  176  HIS176      0.1154
     96  CE1      -22.3140  -21.1920  -18.1430 C.ar  176  HIS176      0.1986
     97  NE2      -21.2100  -20.6440  -18.6170 N.ar  176  HIS176     -0.2212
     98  N        -13.1970   -8.6290  -19.9660 N.3   229  VAL229     -0.1245
     99  CA       -12.5540   -9.7810  -19.3580 C.3   229  VAL229      0.1561
    100  C        -11.1790   -9.4740  -18.7610 C.2   229  VAL229      0.2260
    101  O        -10.5320  -10.3650  -18.2020 O.2   229  VAL229     -0.2867
    102  CB       -12.4720  -10.9840  -20.3380 C.3   229  VAL229      0.0252
    103  CG1      -13.8750  -11.5040  -20.6620 C.3   229  VAL229      0.0019
    104  CG2      -11.7220  -10.6030  -21.6140 C.3   229  VAL229      0.0019
    105  N        -14.0490  -10.3050  -10.3880 N.3   235  TYR235     -0.1241
    106  CA       -15.0230  -11.0080  -11.2110 C.3   235  TYR235      0.1605
    107  C        -16.3990  -10.5200  -10.7840 C.2   235  TYR235      0.2264
    108  O        -16.7250  -10.5260   -9.5850 O.2   235  TYR235     -0.2867
    109  CB       -14.9180  -12.5230  -11.0260 C.3   235  TYR235      0.0534
    110  CG       -15.8560  -13.2960  -11.9290 C.ar  235  TYR235     -0.0201
    111  CD1      -15.5480  -13.4970  -13.2760 C.ar  235  TYR235     -0.0009
    112  CD2      -17.0580  -13.8010  -11.4470 C.ar  235  TYR235     -0.0009
    113  CE1      -16.4040  -14.1870  -14.1120 C.ar  235  TYR235      0.0417
    114  CE2      -17.9310  -14.5060  -12.2880 C.ar  235  TYR235      0.0417
    115  CZ       -17.5940  -14.6920  -13.6150 C.ar  235  TYR235      0.1957
    116  OH       -18.4490  -15.3830  -14.4450 O.3   235  TYR235     -0.2866
    117  N        -13.7110  -16.4560  -10.3110 N.3   272  TRP272     -0.1241
    118  CA       -14.9930  -16.8060  -10.9280 C.3   272  TRP272      0.1605
    119  C        -15.5460  -18.1120  -10.3770 C.2   272  TRP272      0.2264
    120  O        -16.7590  -18.3130  -10.3420 O.2   272  TRP272     -0.2867
    121  CB       -14.8840  -16.8720  -12.4600 C.3   272  TRP272      0.0550
    122  CG       -14.0740  -18.0300  -12.9850 C.ar  272  TRP272      0.0003
    123  CD1      -12.7500  -18.0170  -13.3230 C.ar  272  TRP272      0.0946
    124  CD2      -14.5330  -19.3680  -13.2210 C.ar  272  TRP272      0.0152
    125  NE1      -12.3590  -19.2650  -13.7570 N.ar  272  TRP272     -0.2442
    126  CE2      -13.4370  -20.1100  -13.7050 C.ar  272  TRP272      0.0810
    127  CE3      -15.7700  -20.0070  -13.0770 C.ar  272  TRP272      0.0012
    128  CZ2      -13.5370  -21.4610  -14.0440 C.ar  272  TRP272      0.0191
    129  CZ3      -15.8660  -21.3520  -13.4110 C.ar  272  TRP272      0.0001
    130  CH2      -14.7560  -22.0620  -13.8870 C.ar  272  TRP272      0.0015
    131  N        -24.2920  -24.6410   -8.9170 N.3   280  TYR280     -0.1241
    132  CA       -23.8660  -25.9520   -9.4210 C.3   280  TYR280      0.1605
    133  C        -24.4100  -27.0890   -8.5500 C.2   280  TYR280      0.2264
    134  O        -24.8190  -28.1380   -9.0590 O.2   280  TYR280     -0.2867
    135  CB       -22.3380  -26.0700   -9.4680 C.3   280  TYR280      0.0534
    136  CG       -21.6530  -25.2030  -10.4910 C.ar  280  TYR280     -0.0201
    137  CD1      -21.8040  -25.4400  -11.8560 C.ar  280  TYR280     -0.0009
    138  CD2      -20.8360  -24.1610  -10.0940 C.ar  280  TYR280     -0.0009
    139  CE1      -21.1580  -24.6460  -12.7960 C.ar  280  TYR280      0.0417
    140  CE2      -20.1920  -23.3590  -11.0240 C.ar  280  TYR280      0.0417
    141  CZ       -20.3530  -23.6090  -12.3710 C.ar  280  TYR280      0.1957
    142  OH       -19.7060  -22.8020  -13.2860 O.3   280  TYR280     -0.2866
@<TRIPOS>BOND
     1    65    66    1
     2    70    71    1
     3    70    69    1
     4    66    69    1
     5    66    67    1
     6    48    47    2
     7    71    72    1
     8    56    55    2
     9    55    54    1
    10    67    68    2
    11    47    46    1
    12    47    53   am
    13    46    49    1
    14    46    45    1
    15    49    50    1
    16    79    78   ar
    17    73    74    1
    18    54    53    1
    19    54    57    1
    20    80    78   ar
    21    78    77    1
    22    60    62   ar
    23    60    58   ar
    24    62    63   ar
    25    50    52   am
    26    50    51    2
    27    74    77    1
    28    74    75    1
    29    57    58    1
    30    58    59   ar
    31    63    64    1
    32    63    61   ar
    33    44    43    2
    34    81    75   am
    35    81    82    1
    36    59    61   ar
    37    75    76    2
    38    43    42    1
    39   104   102    1
    40    83    82    1
    41    83    84    2
    42    85    82    1
    43    85    86    1
    44    85    87    1
    45    40    38    1
    46    88    89    1
    47   103   102    1
    48    42    41    1
    49   102    99    1
    50    38    39    1
    51    38    35    1
    52    98    99    1
    53    41    36   am
    54    89    90    1
    55    89    92    1
    56    90    91    2
    57    37    36    2
    58    36    35    1
    59    99   100    1
    60    35    34    1
    61    95    97   ar
    62    95    93   ar
    63   100   101    2
    64    97    96   ar
    65    92    93    1
    66    93    94   ar
    67    12    11    2
    68    34    29   am
    69    13    14    1
    70    13    10    1
    71    15    14   ar
    72    15    17   ar
    73    96    94   ar
    74    14    16   ar
    75     9    10    1
    76    17    18   ar
    77    11    10    1
    78    29    30    2
    79    29    28    1
    80    32    31    1
    81    16    18   ar
    82    28    31    1
    83    28    27    1
    84    26    24   am
    85    23    24    1
    86    23    20    1
    87    31    33    1
    88    24    25    2
    89    22    21    2
    90    19    20    1
    91    20    21    1
    92     1     2    1
    93     7     8    1
    94     7     6    1
    95   116   115    1
    96   113   115   ar
    97   113   111   ar
    98   128   130   ar
    99   128   126   ar
   100   130   129   ar
   101   125   126   ar
   102   125   123   ar
   103     2     3    1
   104     2     5    1
   105   126   124   ar
   106   115   114   ar
   107   129   127   ar
   108   123   122   ar
   109   142   141    1
   110   111   110   ar
   111   124   127   ar
   112   124   122   ar
   113     3     4    2
   114   122   121    1
   115     6     5    1
   116   139   141   ar
   117   139   137   ar
   118   121   118    1
   119   141   140   ar
   120   114   112   ar
   121   110   112   ar
   122   110   109    1
   123   137   136   ar
   124   106   109    1
   125   106   107    1
   126   106   105    1
   127   140   138   ar
   128   118   119    1
   129   118   117    1
   130   107   108    2
   131   136   138   ar
   132   136   135    1
   133   119   120    2
   134   135   132    1
   135   132   131    1
   136   132   133    1
   137   134   133    2
