@<TRIPOS>MOLECULE
tmp/3ntpA00.pdb
 144 137 0 0 0
SMALL
GASTEIGER

@<TRIPOS>ATOM
      1  N          1.7430   37.6270   84.9990 N.3    43  HIS43      -0.1241
      2  CA         2.1890   38.1880   83.7430 C.3    43  HIS43       0.1621
      3  C          2.9270   39.5010   83.9310 C.2    43  HIS43       0.2264
      4  O          2.8620   40.1360   84.9890 O.2    43  HIS43      -0.2867
      5  CB         1.0220   38.3110   82.7420 C.3    43  HIS43       0.0745
      6  CG         0.1800   39.5410   82.9130 C.ar   43  HIS43       0.0817
      7  ND1       -0.3670   39.9200   84.1210 N.ar   43  HIS43      -0.2268
      8  CD2       -0.2430   40.4570   82.0080 C.ar   43  HIS43       0.1154
      9  CE1       -1.0680   41.0290   83.9580 C.ar   43  HIS43       0.1986
     10  NE2       -1.0110   41.3730   82.6860 N.ar   43  HIS43      -0.2212
     11  N          3.2100   42.9410   81.6450 N.3    45  LEU45      -0.1245
     12  CA         2.6280   43.5650   80.4700 C.3    45  LEU45       0.1561
     13  C          3.3760   44.8340   80.1110 C.2    45  LEU45       0.2260
     14  O          3.6490   45.6660   80.9660 O.2    45  LEU45      -0.2867
     15  CB         1.1490   43.8700   80.7230 C.3    45  LEU45       0.0270
     16  CG         0.4550   44.8630   79.7810 C.3    45  LEU45       0.0019
     17  CD1        0.3650   44.2820   78.3810 C.3    45  LEU45       0.0001
     18  CD2       -0.9200   45.2120   80.3180 C.3    45  LEU45       0.0001
     19  N          2.7860   47.9490   77.6550 N.3    47  LYS47      -0.1245
     20  CA         1.8170   48.5720   76.7580 C.3    47  LYS47       0.1561
     21  C          2.5050   49.4050   75.6810 C.2    47  LYS47       0.2260
     22  O          3.6950   49.7220   75.7920 O.2    47  LYS47      -0.2867
     23  CB         0.8250   49.4280   77.5560 C.3    47  LYS47       0.0271
     24  CG        -0.2000   48.6170   78.3470 C.3    47  LYS47       0.0035
     25  CD        -1.2680   49.5260   78.9590 C.3    47  LYS47       0.0206
     26  CE        -2.4020   48.7220   79.5740 C.3    47  LYS47       0.1093
     27  NZ        -3.4440   49.6000   80.1780 N.3    47  LYS47      -0.1314
     28  N         -5.3050   49.0610   73.6410 N.3    52  ARG52      -0.1231
     29  CA        -6.6920   49.4980   73.7550 C.3    52  ARG52       0.1694
     30  C         -6.8600   50.5510   74.8400 C.2    52  ARG52       0.2591
     31  O         -7.7780   51.3700   74.7780 O.2    52  ARG52      -0.2718
     32  CB        -7.6200   48.3120   74.0180 C.3    52  ARG52       0.0321
     33  CG        -7.5190   47.7280   75.4210 C.3    52  ARG52       0.0489
     34  CD        -8.4670   46.5410   75.5810 C.3    52  ARG52       0.2205
     35  NE        -8.4270   45.9870   76.9310 N.pl3  52  ARG52      -0.0865
     36  CZ        -9.1170   44.9190   77.3230 C.cat  52  ARG52       0.5346
     37  NH1       -9.9080   44.2870   76.4670 N.pl3  52  ARG52       0.1354
     38  NH2       -9.0150   44.4830   78.5750 N.pl3  52  ARG52       0.1354
     39  N         -5.9690   50.5290   75.8290 N.am   53  ARG53      -0.1980
     40  CA        -5.9530   51.5360   76.8890 C.3    53  ARG53       0.1597
     41  C         -4.5170   51.9790   77.1810 C.2    53  ARG53       0.2287
     42  O         -3.8520   51.4190   78.0600 O.2    53  ARG53      -0.2864
     43  CB        -6.6160   50.9910   78.1520 C.3    53  ARG53       0.0334
     44  CG        -6.6280   51.9700   79.3090 C.3    53  ARG53       0.0492
     45  CD        -7.0640   51.3060   80.6090 C.3    53  ARG53       0.2205
     46  NE        -6.6280   52.0830   81.7670 N.pl3  53  ARG53      -0.0865
     47  CZ        -5.7210   51.6750   82.6530 C.cat  53  ARG53       0.5346
     48  NH1       -5.1550   50.4790   82.5300 N.pl3  53  ARG53       0.1354
     49  NH2       -5.3880   52.4600   83.6740 N.pl3  53  ARG53       0.1354
     50  N          0.4670   46.9360   84.3560 N.3    97  CYS97      -0.1221
     51  CA        -0.7940   46.4250   84.8540 C.3    97  CYS97       0.1808
     52  C         -0.7980   46.5850   86.3690 C.2    97  CYS97       0.2602
     53  O          0.2650   46.6070   87.0000 O.2    97  CYS97      -0.2717
     54  CB        -0.9450   44.9560   84.4690 C.3    97  CYS97       0.0970
     55  SG        -2.5550   44.2270   84.8230 S.3    97  CYS97      -0.0800
     56  N         -1.9870   46.7120   86.9490 N.am   98  SER98      -0.1938
     57  CA        -2.1190   46.8670   88.3960 C.3    98  SER98       0.2055
     58  C         -1.6710   45.6110   89.1320 C.2    98  SER98       0.2643
     59  O         -1.3290   45.6630   90.3220 O.2    98  SER98      -0.2714
     60  CB        -3.5610   47.2160   88.7820 C.3    98  SER98       0.2130
     61  OG        -4.4830   46.2940   88.2160 O.3    98  SER98      -0.2179
     62  N         -1.6700   44.4870   88.4190 N.am   99  SER99      -0.1949
     63  CA        -1.2320   43.2190   88.9890 C.3    99  SER99       0.1924
     64  C          0.2600   43.2250   89.3040 C.2    99  SER99       0.2314
     65  O          0.7630   42.3060   89.9570 O.2    99  SER99      -0.2863
     66  CB        -1.5840   42.0480   88.0670 C.3    99  SER99       0.2116
     67  OG        -0.9510   42.1830   86.8050 O.3    99  SER99      -0.2180
     68  N         -2.2740   37.0940   88.6290 N.3   106  LEU106     -0.1245
     69  CA        -3.6500   37.3450   88.2140 C.3   106  LEU106      0.1561
     70  C         -4.6310   36.4440   88.9460 C.2   106  LEU106      0.2260
     71  O         -5.8420   36.6030   88.8130 O.2   106  LEU106     -0.2867
     72  CB        -3.8010   37.0980   86.7130 C.3   106  LEU106      0.0270
     73  CG        -3.0020   38.0270   85.8090 C.3   106  LEU106      0.0019
     74  CD1       -3.0790   37.5270   84.3740 C.3   106  LEU106      0.0001
     75  CD2       -3.5060   39.4590   85.9230 C.3   106  LEU106      0.0001
     76  N         -6.3330   32.5940   89.7800 N.3   108  ALA108     -0.1231
     77  CA        -6.7960   31.4980   88.9380 C.3   108  ALA108      0.1694
     78  C         -7.9320   31.9430   88.0280 C.2   108  ALA108      0.2592
     79  O         -8.7210   32.8160   88.3890 O.2   108  ALA108     -0.2718
     80  CB        -7.2280   30.3040   89.7930 C.3   108  ALA108      0.0304
     81  N         -7.9990   31.3500   86.8400 N.am  109  PHE109     -0.1976
     82  CA        -9.0610   31.6550   85.8860 C.3   109  PHE109      0.1639
     83  C         -9.3630   30.4580   84.9900 C.2   109  PHE109      0.2290
     84  O         -8.5750   29.5180   84.8920 O.2   109  PHE109     -0.2864
     85  CB        -8.7200   32.9010   85.0550 C.3   109  PHE109      0.0560
     86  CG        -7.4090   32.8050   84.3130 C.ar  109  PHE109     -0.0200
     87  CD1       -6.2220   33.1750   84.9270 C.ar  109  PHE109     -0.0042
     88  CD2       -7.3690   32.3580   83.0000 C.ar  109  PHE109     -0.0042
     89  CE1       -5.0160   33.0930   84.2490 C.ar  109  PHE109     -0.0003
     90  CE2       -6.1660   32.2720   82.3130 C.ar  109  PHE109     -0.0003
     91  CZ        -4.9880   32.6380   82.9390 C.ar  109  PHE109     -0.0000
     92  N        -12.5440   33.7430   80.1200 N.3   113  GLN113     -0.1231
     93  CA       -12.4300   34.9000   81.0080 C.3   113  GLN113      0.1698
     94  C        -11.4790   35.9700   80.4740 C.2   113  GLN113      0.2592
     95  O        -11.7720   37.1620   80.5450 O.2   113  GLN113     -0.2718
     96  CB       -11.9860   34.4670   82.4080 C.3   113  GLN113      0.0381
     97  CG       -12.8960   33.4500   83.0800 C.3   113  GLN113      0.0905
     98  CD       -12.5010   33.1940   84.5290 C.2   113  GLN113      0.2608
     99  OE1      -11.7950   33.9960   85.1410 O.2   113  GLN113     -0.2717
    100  NE2      -12.9520   32.0740   85.0790 N.am  113  GLN113     -0.0878
    101  N        -10.3370   35.5430   79.9420 N.am  114  MET114     -0.1965
    102  CA        -9.3250   36.4750   79.4580 C.3   114  MET114      0.1736
    103  C         -9.4350   36.6900   77.9530 C.2   114  MET114      0.2616
    104  O        -10.1360   35.9500   77.2650 O.2   114  MET114     -0.2715
    105  CB        -7.9240   35.9390   79.7690 C.3   114  MET114      0.0427
    106  CG        -7.6910   35.5990   81.2270 C.3   114  MET114      0.0599
    107  SD        -7.6950   37.0800   82.2380 S.3   114  MET114     -0.1393
    108  CE        -7.1610   36.4080   83.8120 C.3   114  MET114      0.0692
    109  N         -8.7360   37.7050   77.4530 N.am  115  GLN115     -0.1977
    110  CA        -8.5560   37.8790   76.0140 C.3   115  GLN115      0.1601
    111  C         -7.9890   36.5920   75.4440 C.2   115  GLN115      0.2287
    112  O         -7.1340   35.9490   76.0540 O.2   115  GLN115     -0.2864
    113  CB        -7.6110   39.0370   75.7100 C.3   115  GLN115      0.0394
    114  CG        -8.0960   40.3830   76.2260 C.3   115  GLN115      0.0908
    115  CD        -7.2250   41.5290   75.7620 C.2   115  GLN115      0.2608
    116  OE1       -6.9520   41.6760   74.5680 O.2   115  GLN115     -0.2717
    117  NE2       -6.7940   42.3590   76.7000 N.am  115  GLN115     -0.0878
    118  N         -4.1960   35.5160   75.2640 N.3   118  PHE118     -0.1241
    119  CA        -3.6860   35.3140   76.6270 C.3   118  PHE118      0.1605
    120  C         -4.1630   33.9790   77.1740 C.2   118  PHE118      0.2264
    121  O         -3.3760   33.1860   77.7040 O.2   118  PHE118     -0.2867
    122  CB        -4.1180   36.4600   77.5500 C.3   118  PHE118      0.0534
    123  CG        -3.3820   36.4860   78.8740 C.ar  118  PHE118     -0.0203
    124  CD1       -3.7660   35.6520   79.9110 C.ar  118  PHE118     -0.0042
    125  CD2       -2.3050   37.3370   79.0710 C.ar  118  PHE118     -0.0042
    126  CE1       -3.0900   35.6640   81.1260 C.ar  118  PHE118     -0.0003
    127  CE2       -1.6250   37.3600   80.2960 C.ar  118  PHE118     -0.0003
    128  CZ        -2.0160   36.5190   81.3110 C.ar  118  PHE118     -0.0000
    129  N         -4.4020   44.5340   74.7930 N.3   138  SER138     -0.1217
    130  CA        -3.8820   45.2910   75.9260 C.3   138  SER138      0.1889
    131  C         -2.4330   45.7130   75.7320 C.2   138  SER138      0.2288
    132  O         -2.0240   46.7720   76.2110 O.2   138  SER138     -0.2866
    133  CB        -4.0060   44.4900   77.2200 C.3   138  SER138      0.2089
    134  OG        -5.3670   44.3280   77.5730 O.3   138  SER138     -0.2183
    135  N          2.5990   40.6420   76.4180 N.3   141  HIS141     -0.1241
    136  CA         2.7280   39.9680   77.7130 C.3   141  HIS141      0.1621
    137  C          3.8730   38.9540   77.7450 C.2   141  HIS141      0.2264
    138  O          4.1930   38.3290   76.7360 O.2   141  HIS141     -0.2867
    139  CB         1.4610   39.1760   78.0440 C.3   141  HIS141      0.0745
    140  CG         0.2000   39.9840   78.0590 C.ar  141  HIS141      0.0817
    141  ND1       -0.4460   40.3890   76.9070 N.ar  141  HIS141     -0.2268
    142  CD2       -0.5760   40.4020   79.0880 C.ar  141  HIS141      0.1154
    143  CE1       -1.5450   41.0480   77.2280 C.ar  141  HIS141      0.1986
    144  NE2       -1.6490   41.0670   78.5450 N.ar  141  HIS141     -0.2212
@<TRIPOS>BOND
     1    28    29    1
     2    29    32    1
     3    29    30    1
     4    32    33    1
     5   116   115    2
     6    31    30    2
     7   129   130    1
     8    30    39   am
     9   118   119    1
    10    33    34    1
    11   111   110    1
    12   111   112    2
    13    34    35    1
    14    21    22    2
    15    21    20    1
    16   113   110    1
    17   113   114    1
    18   131   130    1
    19   131   132    2
    20   115   114    1
    21   115   117   am
    22    39    40    1
    23   130   133    1
    24   110   109    1
    25   135   136    1
    26    37    36    1
    27   119   120    1
    28   119   122    1
    29   138   137    2
    30    20    23    1
    31    20    19    1
    32    40    41    1
    33    40    43    1
    34   141   143   ar
    35   141   140   ar
    36    35    36    2
    37   120   121    2
    38    41    42    2
    39   133   134    1
    40   143   144   ar
    41   104   103    2
    42    36    38    1
    43   109   103   am
    44   122   123    1
    45    23    24    1
    46   136   137    1
    47   136   139    1
    48   103   102    1
    49   139   140    1
    50   140   142   ar
    51    43    44    1
    52    24    25    1
    53    17    16    1
    54   144   142   ar
    55   123   125   ar
    56   123   124   ar
    57    25    26    1
    58   125   127   ar
    59    44    45    1
    60   102   105    1
    61   102   101    1
    62    26    27    1
    63   105   106    1
    64    16    18    1
    65    16    15    1
    66   124   126   ar
    67   101    94   am
    68    13    12    1
    69    13    14    2
    70    92    93    1
    71   127   128   ar
    72    12    15    1
    73    12    11    1
    74    94    95    2
    75    94    93    1
    76    45    46    1
    77    93    96    1
    78   126   128   ar
    79   106   107    1
    80    46    47    2
    81     8    10   ar
    82     8     6   ar
    83   107   108    1
    84    90    91   ar
    85    90    88   ar
    86    96    97    1
    87    48    47    1
    88    47    49    1
    89    10     9   ar
    90     5     6    1
    91     5     2    1
    92     6     7   ar
    93    91    89   ar
    94    88    86   ar
    95    97    98    1
    96     2     3    1
    97     2     1    1
    98     3     4    2
    99     9     7   ar
   100    89    87   ar
   101    86    87   ar
   102    86    85    1
   103    50    51    1
   104    74    73    1
   105    54    55    1
   106    54    51    1
   107    98   100   am
   108    98    99    2
   109    51    52    1
   110    84    83    2
   111    83    82    1
   112    85    82    1
   113    73    75    1
   114    73    72    1
   115    82    81    1
   116    52    56   am
   117    52    53    2
   118    72    69    1
   119    67    66    1
   120    81    78   am
   121    56    57    1
   122    78    79    2
   123    78    77    1
   124    66    63    1
   125    69    68    1
   126    69    70    1
   127    61    60    1
   128    57    60    1
   129    57    58    1
   130    62    63    1
   131    62    58   am
   132    71    70    2
   133    77    76    1
   134    77    80    1
   135    63    64    1
   136    58    59    2
   137    64    65    2
