@<TRIPOS>MOLECULE
tmp/3ntrB01.pdb
 95 92 0 0 0
SMALL
GASTEIGER

@<TRIPOS>ATOM
      1  N         26.5980   17.7210  -40.6230 N.3   155  HIS155     -0.1241
      2  CA        27.7830   17.2850  -39.9420 C.3   155  HIS155      0.1621
      3  C         27.3750   17.2950  -38.4890 C.2   155  HIS155      0.2264
      4  O         27.1110   18.3610  -37.9330 O.2   155  HIS155     -0.2867
      5  CB        28.9320   18.2700  -40.2180 C.3   155  HIS155      0.0745
      6  CG        30.2760   17.8260  -39.6970 C.ar  155  HIS155      0.0817
      7  ND1       31.4280   17.9170  -40.4450 N.ar  155  HIS155     -0.2268
      8  CD2       30.6460   17.3080  -38.4970 C.ar  155  HIS155      0.1154
      9  CE1       32.4500   17.4640  -39.7360 C.ar  155  HIS155      0.1986
     10  NE2       32.0020   17.0910  -38.5520 N.ar  155  HIS155     -0.2212
     11  N         27.7590   15.7500  -34.3330 N.3   157  ASN157     -0.1240
     12  CA        28.7220   15.2440  -33.3680 C.3   157  ASN157      0.1653
     13  C         28.0040   15.0900  -32.0400 C.2   157  ASN157      0.2266
     14  O         27.1410   15.8990  -31.7120 O.2   157  ASN157     -0.2867
     15  CB        29.8970   16.2310  -33.2470 C.3   157  ASN157      0.1155
     16  CG        30.9030   15.8430  -32.1480 C.2   157  ASN157      0.2627
     17  OD1       31.8400   15.0800  -32.3850 O.2   157  ASN157     -0.2716
     18  ND2       30.7220   16.3920  -30.9560 N.am  157  ASN157     -0.0877
     19  N         30.4270   18.3800  -27.4260 N.3   160  VAL160     -0.1245
     20  CA        31.7390   19.0240  -27.5040 C.3   160  VAL160      0.1561
     21  C         32.1740   19.5770  -26.1510 C.2   160  VAL160      0.2260
     22  O         31.3840   19.6170  -25.2050 O.2   160  VAL160     -0.2867
     23  CB        31.7530   20.1550  -28.5150 C.3   160  VAL160      0.0252
     24  CG1       31.9230   19.6070  -29.9390 C.3   160  VAL160      0.0019
     25  CG2       30.4910   20.9630  -28.3600 C.3   160  VAL160      0.0019
     26  N         34.8820   24.6970  -27.1410 N.3   164  TYR164     -0.1241
     27  CA        34.2900   24.7260  -28.4760 C.3   164  TYR164      0.1605
     28  C         33.3310   25.9050  -28.6810 C.2   164  TYR164      0.2264
     29  O         32.2770   25.9990  -28.0320 O.2   164  TYR164     -0.2867
     30  CB        33.5990   23.3950  -28.8080 C.3   164  TYR164      0.0534
     31  CG        33.3040   23.2630  -30.2840 C.ar  164  TYR164     -0.0201
     32  CD1       34.1480   22.5650  -31.1180 C.ar  164  TYR164     -0.0009
     33  CD2       32.2010   23.8770  -30.8500 C.ar  164  TYR164     -0.0009
     34  CE1       33.8960   22.4610  -32.4770 C.ar  164  TYR164      0.0417
     35  CE2       31.9420   23.7810  -32.2090 C.ar  164  TYR164      0.0417
     36  CZ        32.7920   23.0690  -33.0160 C.ar  164  TYR164      0.1957
     37  OH        32.5320   22.9720  -34.3650 O.3   164  TYR164     -0.2866
     38  N         36.6290   24.8380  -37.9120 N.3   172  ASP172     -0.1225
     39  CA        37.1170   23.4770  -37.7080 C.3   172  ASP172      0.1805
     40  C         36.2210   22.4040  -38.3540 C.2   172  ASP172      0.2598
     41  O         36.7120   21.3670  -38.7990 O.2   172  ASP172     -0.2718
     42  CB        37.2470   23.1960  -36.2080 C.3   172  ASP172      0.1424
     43  CG        38.2870   24.0680  -35.5390 C.2   172  ASP172      0.3668
     44  OD1       39.2160   24.5230  -36.2370 O.co2 172  ASP172     -0.2456
     45  OD2       38.1760   24.2900  -34.3140 O.co2 172  ASP172     -0.2456
     46  N         34.9130   22.6680  -38.4110 N.am  173  THR173     -0.1953
     47  CA        33.9130   21.6440  -38.7110 C.3   173  THR173      0.1897
     48  C         33.3520   21.7050  -40.1080 C.2   173  THR173      0.2313
     49  O         33.5970   20.8100  -40.9100 O.2   173  THR173     -0.2863
     50  CB        32.7480   21.7250  -37.7470 C.3   173  THR173      0.1794
     51  OG1       33.2070   21.4680  -36.4180 O.3   173  THR173     -0.2208
     52  CG2       31.7120   20.7020  -38.1040 C.3   173  THR173      0.0378
     53  N         35.3870   20.9410  -43.9510 N.3   176  HIS176     -0.1241
     54  CA        35.5450   19.7810  -44.8350 C.3   176  HIS176      0.1621
     55  C         34.4720   19.7070  -45.9310 C.2   176  HIS176      0.2264
     56  O         34.7850   19.4390  -47.1020 O.2   176  HIS176     -0.2867
     57  CB        35.5660   18.5010  -44.0260 C.3   176  HIS176      0.0745
     58  CG        36.6180   18.4790  -42.9670 C.ar  176  HIS176      0.0817
     59  ND1       36.5410   18.6000  -41.6170 N.ar  176  HIS176     -0.2268
     60  CD2       37.9560   18.2900  -43.2520 C.ar  176  HIS176      0.1154
     61  CE1       37.8120   18.4820  -41.1210 C.ar  176  HIS176      0.1986
     62  NE2       38.6490   18.2900  -42.1320 N.ar  176  HIS176     -0.2212
     63  N         26.6270   19.9490  -33.3430 N.3   229  VAL229     -0.1245
     64  CA        27.6960   19.2150  -32.6690 C.3   229  VAL229      0.1561
     65  C         27.3650   18.7940  -31.2270 C.2   229  VAL229      0.2260
     66  O         28.2240   18.3020  -30.5070 O.2   229  VAL229     -0.2867
     67  CB        29.0080   20.0080  -32.7030 C.3   229  VAL229      0.0252
     68  CG1       29.1980   20.6110  -34.0850 C.3   229  VAL229      0.0019
     69  CG2       28.9760   21.1010  -31.6600 C.3   229  VAL229      0.0019
     70  N         28.2340   10.4660  -34.1770 N.3   235  TYR235     -0.1241
     71  CA        28.9230   11.2880  -35.1520 C.3   235  TYR235      0.1605
     72  C         28.4030   10.8230  -36.5140 C.2   235  TYR235      0.2264
     73  O         28.4550    9.6360  -36.8280 O.2   235  TYR235     -0.2867
     74  CB        30.4630   11.1470  -35.0310 C.3   235  TYR235      0.0534
     75  CG        31.2330   11.9760  -36.0560 C.ar  235  TYR235     -0.0201
     76  CD1       31.6080   13.2840  -35.7800 C.ar  235  TYR235     -0.0009
     77  CD2       31.5530   11.4570  -37.3080 C.ar  235  TYR235     -0.0009
     78  CE1       32.2840   14.0500  -36.7230 C.ar  235  TYR235      0.0417
     79  CE2       32.2210   12.2090  -38.2480 C.ar  235  TYR235      0.0417
     80  CZ        32.5890   13.5070  -37.9550 C.ar  235  TYR235      0.1957
     81  OH        33.2590   14.2660  -38.8920 O.3   235  TYR235     -0.2866
     82  N         34.4230   10.8470  -33.9480 N.3   272  TRP272     -0.1241
     83  CA        34.7780   11.5140  -35.1840 C.3   272  TRP272      0.1605
     84  C         36.0550   10.9260  -35.8150 C.2   272  TRP272      0.2264
     85  O         36.1850   10.9120  -37.0410 O.2   272  TRP272     -0.2867
     86  CB        34.9070   13.0320  -34.9450 C.3   272  TRP272      0.0550
     87  CG        36.1680   13.4330  -34.2490 C.ar  272  TRP272      0.0003
     88  CD1       36.3470   13.6500  -32.9090 C.ar  272  TRP272      0.0946
     89  CD2       37.4390   13.6490  -34.8680 C.ar  272  TRP272      0.0152
     90  NE1       37.6580   13.9890  -32.6590 N.ar  272  TRP272     -0.2442
     91  CE2       38.3470   13.9930  -33.8420 C.ar  272  TRP272      0.0810
     92  CE3       37.8970   13.5820  -36.1940 C.ar  272  TRP272      0.0012
     93  CZ2       39.6820   14.2680  -34.1010 C.ar  272  TRP272      0.0191
     94  CZ3       39.2210   13.8520  -36.4490 C.ar  272  TRP272      0.0001
     95  CH2       40.1010   14.1930  -35.4070 C.ar  272  TRP272      0.0015
@<TRIPOS>BOND
     1    56    55    2
     2    55    54    1
     3    54    57    1
     4    54    53    1
     5    57    58    1
     6    60    58   ar
     7    60    62   ar
     8    58    59   ar
     9    62    61   ar
    10    59    61   ar
    11    49    48    2
    12     1     2    1
    13     7     9   ar
    14     7     6   ar
    15     5     2    1
    16     5     6    1
    17    48    47    1
    18     2     3    1
    19     9    10   ar
    20     6     8   ar
    21    81    80    1
    22    41    40    2
    23    47    46    1
    24    47    50    1
    25    10     8   ar
    26     3     4    2
    27    46    40   am
    28    40    39    1
    29    79    80   ar
    30    79    77   ar
    31    52    50    1
    32    80    78   ar
    33    38    39    1
    34    50    51    1
    35    39    42    1
    36    77    75   ar
    37    85    84    2
    38    73    72    2
    39    78    76   ar
    40    72    71    1
    41    94    92   ar
    42    94    95   ar
    43    44    43   ar
    44    42    43    1
    45    92    89   ar
    46    75    76   ar
    47    75    74    1
    48    84    83    1
    49    43    45   ar
    50    95    93   ar
    51    83    86    1
    52    83    82    1
    53    71    74    1
    54    71    70    1
    55    86    87    1
    56    89    87   ar
    57    89    91   ar
    58    37    36    1
    59    11    12    1
    60    87    88   ar
    61    93    91   ar
    62    68    67    1
    63    91    90   ar
    64    12    15    1
    65    12    13    1
    66    63    64    1
    67    15    16    1
    68    36    34   ar
    69    36    35   ar
    70    88    90   ar
    71    67    64    1
    72    67    69    1
    73    64    65    1
    74    34    32   ar
    75    17    16    2
    76    35    33   ar
    77    16    18   am
    78    13    14    2
    79    65    66    2
    80    32    31   ar
    81    33    31   ar
    82    31    30    1
    83    24    23    1
    84    30    27    1
    85    28    27    1
    86    28    29    2
    87    23    25    1
    88    23    20    1
    89    27    26    1
    90    20    19    1
    91    20    21    1
    92    21    22    2
