@<TRIPOS>MOLECULE
tmp/3ntrB00.pdb
 219 214 0 0 0
SMALL
GASTEIGER

@<TRIPOS>ATOM
      1  N         56.4230   18.2590  -38.0140 N.3     8  ILE8       -0.1231
      2  CA        56.3460   19.4360  -37.1640 C.3     8  ILE8        0.1692
      3  C         55.0090   19.4470  -36.4300 C.2     8  ILE8        0.2593
      4  O         53.9640   19.7420  -37.0310 O.2     8  ILE8       -0.2718
      5  CB        56.3930   20.7120  -38.0010 C.3     8  ILE8        0.0266
      6  CG1       57.6490   20.7390  -38.8680 C.3     8  ILE8        0.0019
      7  CG2       56.3180   21.9280  -37.1130 C.3     8  ILE8        0.0020
      8  CD1       57.5090   21.6810  -40.0390 C.3     8  ILE8        0.0001
      9  N         55.0400   19.1400  -35.1340 N.am    9  GLY9       -0.1942
     10  CA        53.8250   19.1280  -34.3390 C.3     9  GLY9        0.2014
     11  C         53.3610   17.7380  -33.9530 C.2     9  GLY9        0.2640
     12  O         52.5010   17.1460  -34.6130 O.2     9  GLY9       -0.2714
     13  N         53.9260   17.2270  -32.8640 N.am   10  THR10      -0.1936
     14  CA        53.6540   15.8720  -32.4240 C.3    10  THR10       0.2028
     15  C         52.4480   15.8110  -31.4910 C.2    10  THR10       0.2643
     16  O         52.5270   15.2560  -30.3780 O.2    10  THR10      -0.2714
     17  CB        54.8990   15.2460  -31.7600 C.3    10  THR10       0.1808
     18  OG1       55.0790   15.7630  -30.4300 O.3    10  THR10      -0.2208
     19  CG2       56.1320   15.5580  -32.6000 C.3    10  THR10       0.0379
     20  N         51.3330   16.3750  -31.9630 N.am   11  GLY11      -0.1939
     21  CA        50.0900   16.4140  -31.2060 C.3    11  GLY11       0.2014
     22  C         49.3390   15.1010  -31.2350 C.2    11  GLY11       0.2639
     23  O         49.9450   14.0380  -31.3230 O.2    11  GLY11      -0.2714
     24  N         48.0170   15.1490  -31.1630 N.am   12  ALA12      -0.1963
     25  CA        47.2570   13.9040  -31.2190 C.3    12  ALA12       0.1728
     26  C         47.0420   13.4030  -32.6650 C.2    12  ALA12       0.2616
     27  O         47.0880   12.1950  -32.9080 O.2    12  ALA12      -0.2715
     28  CB        45.9380   14.0220  -30.4430 C.3    12  ALA12       0.0334
     29  N         46.8230   14.3100  -33.6180 N.am   13  ILE13      -0.1977
     30  CA        46.6510   13.8940  -35.0090 C.3    13  ILE13       0.1596
     31  C         48.0040   13.8680  -35.7040 C.2    13  ILE13       0.2287
     32  O         48.1700   13.2660  -36.7690 O.2    13  ILE13      -0.2864
     33  CB        45.6950   14.8060  -35.7890 C.3    13  ILE13       0.0276
     34  CG1       44.8950   13.9920  -36.8060 C.3    13  ILE13       0.0022
     35  CG2       46.4690   15.8900  -36.5130 C.3    13  ILE13       0.0022
     36  CD1       44.1070   12.8330  -36.1920 C.3    13  ILE13       0.0001
     37  N         59.7720   17.8780  -34.4280 N.3    34  THR34      -0.1203
     38  CA        59.8950   18.9760  -33.4900 C.3    34  THR34       0.1994
     39  C         58.5380   19.2930  -32.9050 C.2    34  THR34       0.2618
     40  O         57.5100   19.2290  -33.5950 O.2    34  THR34      -0.2717
     41  CB        60.4010   20.2580  -34.1400 C.3    34  THR34       0.1784
     42  OG1       60.2130   21.3380  -33.2120 O.3    34  THR34      -0.2211
     43  CG2       59.6170   20.5490  -35.4270 C.3    34  THR34       0.0376
     44  N         58.5400   19.6430  -31.6260 N.am   35  ASP35      -0.1959
     45  CA        57.3400   20.1480  -30.9870 C.3    35  ASP35       0.1840
     46  C         57.7280   21.3440  -30.1400 C.2    35  ASP35       0.2622
     47  O         58.9110   21.5580  -29.8510 O.2    35  ASP35      -0.2715
     48  CB        56.6810   19.0670  -30.1250 C.3    35  ASP35       0.1450
     49  CG        55.2770   19.4460  -29.6770 C.2    35  ASP35       0.3671
     50  OD1       54.3590   19.3910  -30.5160 O.co2  35  ASP35      -0.2456
     51  OD2       55.0900   19.7890  -28.4870 O.co2  35  ASP35      -0.2456
     52  N         56.7240   22.1180  -29.7470 N.am   36  VAL36      -0.1963
     53  CA        56.9390   23.2980  -28.9260 C.3    36  VAL36       0.1727
     54  C         57.0230   22.9080  -27.4350 C.2    36  VAL36       0.2616
     55  O         57.5850   23.6360  -26.6100 O.2    36  VAL36      -0.2715
     56  CB        55.8490   24.3530  -29.2180 C.3    36  VAL36       0.0290
     57  CG1       54.7120   24.2790  -28.1860 C.3    36  VAL36       0.0023
     58  CG2       56.4680   25.7490  -29.3160 C.3    36  VAL36       0.0023
     59  N         56.4620   21.7450  -27.1100 N.am   37  ASN37      -0.1972
     60  CA        56.7240   21.0700  -25.8450 C.3    37  ASN37       0.1688
     61  C         57.7680   19.9970  -26.1250 C.2    37  ASN37       0.2292
     62  O         57.4300   18.8310  -26.3290 O.2    37  ASN37      -0.2864
     63  CB        55.4310   20.4500  -25.2910 C.3    37  ASN37       0.1181
     64  CG        55.6760   19.4520  -24.1450 C.2    37  ASN37       0.2629
     65  OD1       56.8140   19.1960  -23.7370 O.2    37  ASN37      -0.2716
     66  ND2       54.5900   18.8800  -23.6300 N.am   37  ASN37      -0.0877
     67  N         62.9760   23.5200  -32.9510 N.3    57  ASN57      -0.1225
     68  CA        62.1120   24.3530  -33.8030 C.3    57  ASN57       0.1785
     69  C         62.0730   23.9290  -35.2820 C.2    57  ASN57       0.2597
     70  O         62.9700   23.2270  -35.7670 O.2    57  ASN57      -0.2718
     71  CB        62.4920   25.8410  -33.6900 C.3    57  ASN57       0.1169
     72  CG        63.9680   26.1080  -34.0200 C.2    57  ASN57       0.2627
     73  OD1       64.4190   25.9040  -35.1570 O.2    57  ASN57      -0.2716
     74  ND2       64.7210   26.5770  -33.0220 N.am   57  ASN57      -0.0877
     75  N         61.0310   24.3660  -35.9880 N.am   58  ASP58      -0.1974
     76  CA        60.8900   24.0690  -37.4140 C.3    58  ASP58       0.1709
     77  C         62.1500   24.3700  -38.2410 C.2    58  ASP58       0.2293
     78  O         62.5630   23.5470  -39.0670 O.2    58  ASP58      -0.2864
     79  CB        59.6510   24.7480  -38.0390 C.3    58  ASP58       0.1436
     80  CG        59.2000   25.9970  -37.2890 C.2    58  ASP58       0.3671
     81  OD1       59.5190   26.1490  -36.0840 O.co2  58  ASP58      -0.2456
     82  OD2       58.4940   26.8220  -37.9160 O.co2  58  ASP58      -0.2456
     83  N         51.5630   19.5120  -38.6940 N.3    73  THR73      -0.1203
     84  CA        50.4400   19.0290  -37.9040 C.3    73  THR73       0.1994
     85  C         50.5090   19.5090  -36.4510 C.2    73  THR73       0.2619
     86  O         50.3240   18.7300  -35.5100 O.2    73  THR73      -0.2717
     87  CB        50.3500   17.4800  -37.9190 C.3    73  THR73       0.1784
     88  OG1       51.4420   16.9060  -37.1870 O.3    73  THR73      -0.2211
     89  CG2       50.3770   16.9550  -39.3340 C.3    73  THR73       0.0376
     90  N         50.7880   20.7980  -36.2810 N.am   74  SER74      -0.1937
     91  CA        50.7010   21.4630  -34.9800 C.3    74  SER74       0.2055
     92  C         49.4930   22.4050  -34.9860 C.2    74  SER74       0.2643
     93  O         48.6660   22.3330  -35.8990 O.2    74  SER74      -0.2714
     94  CB        51.9930   22.2300  -34.6750 C.3    74  SER74       0.2130
     95  OG        52.4170   23.0460  -35.7610 O.3    74  SER74      -0.2179
     96  N         49.3990   23.2840  -33.9840 N.am   75  TRP75      -0.1959
     97  CA        48.2880   24.2460  -33.8590 C.3    75  TRP75       0.1771
     98  C         47.6470   24.7520  -35.1590 C.2    75  TRP75       0.2620
     99  O         48.2140   24.6120  -36.2380 O.2    75  TRP75      -0.2715
    100  CB        48.7110   25.4450  -33.0120 C.3    75  TRP75       0.0590
    101  CG        48.2900   25.3090  -31.6160 C.ar   75  TRP75       0.0006
    102  CD1       48.8720   25.8760  -30.5220 C.ar   75  TRP75       0.0946
    103  CD2       47.1910   24.5300  -31.1350 C.ar   75  TRP75       0.0152
    104  NE1       48.1980   25.5020  -29.3830 N.ar   75  TRP75      -0.2442
    105  CE2       47.1600   24.6750  -29.7330 C.ar   75  TRP75       0.0810
    106  CE3       46.2220   23.7240  -31.7550 C.ar   75  TRP75       0.0012
    107  CZ2       46.1970   24.0440  -28.9370 C.ar   75  TRP75       0.0191
    108  CZ3       45.2700   23.0960  -30.9650 C.ar   75  TRP75       0.0001
    109  CH2       45.2640   23.2610  -29.5700 C.ar   75  TRP75       0.0015
    110  N         46.4650   25.3510  -35.0450 N.am   76  GLY76      -0.1954
    111  CA        45.7930   25.9380  -36.1960 C.3    76  GLY76       0.1869
    112  C         46.4250   27.1720  -36.8520 C.2    76  GLY76       0.2309
    113  O         46.2800   27.3710  -38.0640 O.2    76  GLY76      -0.2863
    114  N         49.8740   28.2230  -36.1780 N.3    78  ALA78      -0.1231
    115  CA        51.2990   27.9380  -36.3350 C.3    78  ALA78       0.1694
    116  C         51.5640   27.0840  -37.5740 C.2    78  ALA78       0.2592
    117  O         52.5540   26.3450  -37.6450 O.2    78  ALA78      -0.2718
    118  CB        51.8360   27.2440  -35.0830 C.3    78  ALA78       0.0304
    119  N         50.6630   27.1850  -38.5450 N.am   79  HIS79      -0.1976
    120  CA        50.7910   26.4380  -39.7830 C.3    79  HIS79       0.1656
    121  C         51.4040   27.3270  -40.8440 C.2    79  HIS79       0.2291
    122  O         52.4940   27.0380  -41.3630 O.2    79  HIS79      -0.2864
    123  CB        49.4280   25.9120  -40.2540 C.3    79  HIS79       0.0771
    124  CG        49.0070   24.6340  -39.5900 C.ar   79  HIS79       0.0820
    125  ND1       47.7900   24.0320  -39.8350 N.ar   79  HIS79      -0.2267
    126  CD2       49.6390   23.8450  -38.6850 C.ar   79  HIS79       0.1154
    127  CE1       47.6890   22.9350  -39.1060 C.ar   79  HIS79       0.1986
    128  NE2       48.7970   22.7980  -38.3980 N.ar   79  HIS79      -0.2212
    129  N         53.1380   29.8160  -40.7870 N.3    81  SER81      -0.1202
    130  CA        54.5630   29.9700  -40.5240 C.3    81  SER81       0.2020
    131  C         55.3780   28.8170  -41.1270 C.2    81  SER81       0.2619
    132  O         56.2140   29.0270  -42.0030 O.2    81  SER81      -0.2717
    133  CB        54.8170   30.0780  -39.0100 C.3    81  SER81       0.2103
    134  OG        56.0420   29.4610  -38.6340 O.3    81  SER81      -0.2182
    135  N         55.1110   27.6020  -40.6580 N.am   82  SER82      -0.1951
    136  CA        55.9190   26.4350  -40.9840 C.3    82  SER82       0.1924
    137  C         55.8530   26.0850  -42.4650 C.2    82  SER82       0.2314
    138  O         56.8480   25.6850  -43.0670 O.2    82  SER82      -0.2863
    139  CB        55.4710   25.2320  -40.1460 C.3    82  SER82       0.2116
    140  OG        55.4980   25.5150  -38.7560 O.3    82  SER82      -0.2180
    141  N         47.9650   19.6370  -42.6830 N.3    96  GLU96      -0.1231
    142  CA        46.6500   19.4200  -42.0660 C.3    96  GLU96       0.1699
    143  C         45.8360   20.7100  -41.9920 C.2    96  GLU96       0.2592
    144  O         46.4090   21.7880  -41.8430 O.2    96  GLU96      -0.2718
    145  CB        46.8040   18.8470  -40.6570 C.3    96  GLU96       0.0402
    146  CG        46.8850   17.3290  -40.6070 C.3    96  GLU96       0.1161
    147  CD        45.5890   16.6290  -41.0450 C.2    96  GLU96       0.3649
    148  OE1       44.8420   17.1630  -41.9040 O.co2  96  GLU96      -0.2457
    149  OE2       45.3230   15.5220  -40.5270 O.co2  96  GLU96      -0.2457
    150  N         44.5070   20.6090  -42.0830 N.am   97  VAL97      -0.1966
    151  CA        43.6600   21.8140  -42.0480 C.3    97  VAL97       0.1712
    152  C         43.7160   22.5180  -40.6800 C.2    97  VAL97       0.2458
    153  O         43.7440   21.8480  -39.6340 O.2    97  VAL97      -0.2730
    154  CB        42.2050   21.5140  -42.4260 C.3    97  VAL97       0.0289
    155  CG1       42.1580   20.7370  -43.7370 C.3    97  VAL97       0.0023
    156  CG2       41.5400   20.7430  -41.3010 C.3    97  VAL97       0.0023
    157  N         43.7290   23.8740  -40.6870 N.am   98  PRO98      -0.2727
    158  CA        43.5710   24.7050  -41.8870 C.3    98  PRO98       0.1402
    159  C         44.9090   24.8920  -42.5830 C.2    98  PRO98       0.2269
    160  O         45.9580   24.6420  -41.9660 O.2    98  PRO98      -0.2865
    161  CB        43.1160   26.0590  -41.3160 C.3    98  PRO98       0.0296
    162  CG        43.2840   25.9610  -39.7790 C.3    98  PRO98       0.0237
    163  CD        44.0540   24.7030  -39.5110 C.3    98  PRO98       0.0939
    164  N         45.4500   18.5790  -46.2440 N.3   124  GLY124     -0.1225
    165  CA        44.8780   17.3740  -45.6530 C.3   124  GLY124      0.1811
    166  C         43.3550   17.2770  -45.5510 C.2   124  GLY124      0.2280
    167  O         42.8140   16.8890  -44.4930 O.2   124  GLY124     -0.2866
    168  N         40.8790   15.1580  -46.2440 N.3   126  MET126     -0.1245
    169  CA        40.8270   13.7050  -46.4780 C.3   126  MET126      0.1570
    170  C         39.5540   13.2000  -47.1370 C.2   126  MET126      0.2261
    171  O         39.5680   12.1780  -47.8210 O.2   126  MET126     -0.2867
    172  CB        41.1050   12.9080  -45.1880 C.3   126  MET126      0.0387
    173  CG        40.0320   12.9970  -44.1370 C.3   126  MET126      0.0595
    174  SD        39.5750   14.6860  -43.7040 S.3   126  MET126     -0.1393
    175  CE        38.9110   14.4200  -42.0660 C.3   126  MET126      0.0692
    176  N         36.6290   24.8380  -37.9120 N.3   172  ASP172     -0.1239
    177  CA        37.1170   23.4770  -37.7080 C.3   172  ASP172      0.1674
    178  C         36.2210   22.4040  -38.3540 C.2   172  ASP172      0.2266
    179  O         36.7120   21.3670  -38.7990 O.2   172  ASP172     -0.2867
    180  CB        37.2470   23.1960  -36.2080 C.3   172  ASP172      0.1410
    181  CG        38.2870   24.0680  -35.5390 C.2   172  ASP172      0.3668
    182  OD1       39.2160   24.5230  -36.2370 O.co2 172  ASP172     -0.2456
    183  OD2       38.1760   24.2900  -34.3140 O.co2 172  ASP172     -0.2456
    184  N         35.3870   20.9410  -43.9510 N.3   176  HIS176     -0.1241
    185  CA        35.5450   19.7810  -44.8350 C.3   176  HIS176      0.1621
    186  C         34.4720   19.7070  -45.9310 C.2   176  HIS176      0.2264
    187  O         34.7850   19.4390  -47.1020 O.2   176  HIS176     -0.2867
    188  CB        35.5660   18.5010  -44.0260 C.3   176  HIS176      0.0745
    189  CG        36.6180   18.4790  -42.9670 C.ar  176  HIS176      0.0817
    190  ND1       36.5410   18.6000  -41.6170 N.ar  176  HIS176     -0.2268
    191  CD2       37.9560   18.2900  -43.2520 C.ar  176  HIS176      0.1154
    192  CE1       37.8120   18.4820  -41.1210 C.ar  176  HIS176      0.1986
    193  NE2       38.6490   18.2900  -42.1320 N.ar  176  HIS176     -0.2212
    194  N         34.4230   10.8470  -33.9480 N.3   272  TRP272     -0.1241
    195  CA        34.7780   11.5140  -35.1840 C.3   272  TRP272      0.1605
    196  C         36.0550   10.9260  -35.8150 C.2   272  TRP272      0.2264
    197  O         36.1850   10.9120  -37.0410 O.2   272  TRP272     -0.2867
    198  CB        34.9070   13.0320  -34.9450 C.3   272  TRP272      0.0550
    199  CG        36.1680   13.4330  -34.2490 C.ar  272  TRP272      0.0003
    200  CD1       36.3470   13.6500  -32.9090 C.ar  272  TRP272      0.0946
    201  CD2       37.4390   13.6490  -34.8680 C.ar  272  TRP272      0.0152
    202  NE1       37.6580   13.9890  -32.6590 N.ar  272  TRP272     -0.2442
    203  CE2       38.3470   13.9930  -33.8420 C.ar  272  TRP272      0.0810
    204  CE3       37.8970   13.5820  -36.1940 C.ar  272  TRP272      0.0012
    205  CZ2       39.6820   14.2680  -34.1010 C.ar  272  TRP272      0.0191
    206  CZ3       39.2210   13.8520  -36.4490 C.ar  272  TRP272      0.0001
    207  CH2       40.1010   14.1930  -35.4070 C.ar  272  TRP272      0.0015
    208  N         42.3710    8.8440  -44.3340 N.3   280  TYR280     -0.1241
    209  CA        43.6860    9.2780  -43.8660 C.3   280  TYR280      0.1605
    210  C         44.7750    8.4080  -44.4950 C.2   280  TYR280      0.2264
    211  O         45.6380    8.9140  -45.2080 O.2   280  TYR280     -0.2867
    212  CB        43.7760    9.2720  -42.3280 C.3   280  TYR280      0.0534
    213  CG        42.8240   10.2750  -41.6600 C.ar  280  TYR280     -0.0201
    214  CD1       42.6160   11.5550  -42.1990 C.ar  280  TYR280     -0.0009
    215  CD2       42.1320    9.9390  -40.4950 C.ar  280  TYR280     -0.0009
    216  CE1       41.7470   12.4570  -41.5940 C.ar  280  TYR280      0.0417
    217  CE2       41.2690   10.8360  -39.8840 C.ar  280  TYR280      0.0417
    218  CZ        41.0760   12.0920  -40.4330 C.ar  280  TYR280      0.1957
    219  OH        40.2100   12.9690  -39.8040 O.3   280  TYR280     -0.2866
@<TRIPOS>BOND
     1   171   170    2
     2   170   169    1
     3   187   186    2
     4   169   168    1
     5   169   172    1
     6   164   165    1
     7   186   185    1
     8   165   166    1
     9   166   167    2
    10   211   210    2
    11   172   173    1
    12   185   188    1
    13   185   184    1
    14   210   209    1
    15   208   209    1
    16   173   174    1
    17   188   189    1
    18   209   212    1
    19   155   154    1
    20   174   175    1
    21   191   189   ar
    22   191   193   ar
    23   138   137    2
    24   189   190   ar
    25   141   142    1
    26   159   160    2
    27   159   158    1
    28   137   136    1
    29   154   151    1
    30   154   156    1
    31   212   213    1
    32   214   213   ar
    33   214   216   ar
    34   193   192   ar
    35   150   151    1
    36   150   143   am
    37   142   143    1
    38   142   145    1
    39   151   152    1
    40   132   131    2
    41   143   144    2
    42   148   147   ar
    43   158   161    1
    44   158   157    1
    45   213   215   ar
    46   190   192   ar
    47   216   218   ar
    48   122   121    2
    49   161   162    1
    50   131   135   am
    51   131   130    1
    52   147   146    1
    53   147   149   ar
    54   136   135    1
    55   136   139    1
    56   121   120    1
    57   129   130    1
    58   157   152   am
    59   157   163    1
    60   152   153    2
    61   145   146    1
    62   130   133    1
    63   215   217   ar
    64   218   217   ar
    65   218   219    1
    66   123   120    1
    67   123   124    1
    68   139   140    1
    69     8     6    1
    70   125   124   ar
    71   125   127   ar
    72   120   119    1
    73   162   163    1
    74   124   126   ar
    75    89    87    1
    76   127   128   ar
    77    78    77    2
    78   133   134    1
    79     6     5    1
    80   179   178    2
    81    83    84    1
    82   126   128   ar
    83   119   116   am
    84   178   177    1
    85    77    76    1
    86   113   112    2
    87    79    76    1
    88    79    80    1
    89     1     2    1
    90     5     2    1
    91     5     7    1
    92    87    84    1
    93    87    88    1
    94    82    80   ar
    95   176   177    1
    96    84    85    1
    97   177   180    1
    98   117   116    2
    99   116   115    1
   100    76    75    1
   101    80    81   ar
   102     2     3    1
   103   197   196    2
   104     4     3    2
   105   112   111    1
   106    34    36    1
   107    34    33    1
   108    32    31    2
   109    35    33    1
   110    85    90   am
   111    85    86    2
   112   206   204   ar
   113   206   207   ar
   114     3     9   am
   115   115   114    1
   116   115   118    1
   117    90    91    1
   118    99    98    2
   119   182   181   ar
   120   180   181    1
   121   111   110    1
   122   204   201   ar
   123    75    69   am
   124    93    92    2
   125   196   195    1
   126    33    30    1
   127    70    69    2
   128    95    94    1
   129    31    30    1
   130   181   183   ar
   131    43    41    1
   132   207   205   ar
   133    69    68    1
   134   195   198    1
   135   195   194    1
   136    98   110   am
   137    98    97    1
   138    73    72    2
   139     9    10    1
   140    30    29    1
   141    92    91    1
   142    92    96   am
   143    91    94    1
   144   198   199    1
   145   201   199   ar
   146   201   203   ar
   147    12    11    2
   148    37    38    1
   149    10    11    1
   150   199   200   ar
   151    41    38    1
   152    41    42    1
   153   205   203   ar
   154    72    71    1
   155    72    74   am
   156    96    97    1
   157    11    13   am
   158    97   100    1
   159   203   202   ar
   160    68    71    1
   161    68    67    1
   162    29    26   am
   163    40    39    2
   164    38    39    1
   165   100   101    1
   166   200   202   ar
   167    27    26    2
   168    39    44   am
   169    13    14    1
   170    26    25    1
   171    19    17    1
   172    14    17    1
   173    14    15    1
   174    20    15   am
   175    20    21    1
   176    17    18    1
   177   106   103   ar
   178   106   108   ar
   179    44    45    1
   180   101   103   ar
   181   101   102   ar
   182    15    16    2
   183    23    22    2
   184    22    21    1
   185    22    24   am
   186    25    24    1
   187    25    28    1
   188   103   105   ar
   189    45    46    1
   190    45    48    1
   191   108   109   ar
   192   102   104   ar
   193    50    49   ar
   194    46    47    2
   195    46    52   am
   196    48    49    1
   197    52    53    1
   198   105   104   ar
   199   105   107   ar
   200    49    51   ar
   201   109   107   ar
   202    58    56    1
   203    56    53    1
   204    56    57    1
   205    53    54    1
   206    54    59   am
   207    54    55    2
   208    59    60    1
   209    62    61    2
   210    61    60    1
   211    60    63    1
   212    63    64    1
   213    64    65    2
   214    64    66   am
