@<TRIPOS>MOLECULE
tmp/3ntwA00.pdb
 153 146 0 0 0
SMALL
GASTEIGER

@<TRIPOS>ATOM
      1  N        -37.5990  -34.0980   -6.9600 N.3     4  ARG4       -0.1231
      2  CA       -36.6280  -33.1820   -6.3920 C.3     4  ARG4        0.1694
      3  C        -36.8130  -33.0150   -4.8420 C.2     4  ARG4        0.2591
      4  O        -35.8670  -32.7230   -4.1120 O.2     4  ARG4       -0.2718
      5  CB       -36.6700  -31.8480   -7.1700 C.3     4  ARG4        0.0321
      6  CG       -36.7210  -31.9720   -8.7520 C.3     4  ARG4        0.0489
      7  CD       -38.1800  -31.8590   -9.4280 C.3     4  ARG4        0.2205
      8  NE       -39.0910  -33.0130   -9.1760 N.pl3   4  ARG4       -0.0865
      9  CZ       -39.9230  -33.5410  -10.0710 C.cat   4  ARG4        0.5346
     10  NH1      -39.9760  -33.0710  -11.2960 N.pl3   4  ARG4        0.1354
     11  NH2      -40.6840  -34.5480   -9.7440 N.pl3   4  ARG4        0.1354
     12  N        -38.0210  -33.2420   -4.3430 N.am    5  GLN5       -0.1979
     13  CA       -38.3040  -33.1360   -2.9050 C.3     5  GLN5        0.1601
     14  C        -37.6340  -34.2950   -2.1760 C.2     5  GLN5        0.2287
     15  O        -37.0130  -34.0790   -1.1190 O.2     5  GLN5       -0.2864
     16  CB       -39.8380  -33.0790   -2.6240 C.3     5  GLN5        0.0394
     17  CG       -40.2810  -33.0400   -1.1300 C.3     5  GLN5        0.0908
     18  CD       -39.9080  -31.6990   -0.4530 C.2     5  GLN5        0.2608
     19  OE1      -39.7580  -30.6900   -1.1460 O.2     5  GLN5       -0.2717
     20  NE2      -39.7410  -31.6920    0.8930 N.am    5  GLN5       -0.0878
     21  N        -34.0060  -33.6350   -2.2720 N.3     8  GLY8       -0.1210
     22  CA       -33.7670  -32.6220   -1.2620 C.3     8  GLY8        0.1956
     23  C        -33.8150  -33.1750    0.1480 C.2     8  GLY8        0.2611
     24  O        -32.9610  -32.8180    0.9750 O.2     8  GLY8       -0.2717
     25  N        -34.7960  -34.0450    0.4380 N.am    9  GLU9       -0.1979
     26  CA       -34.8730  -34.7100    1.7770 C.3     9  GLU9        0.1602
     27  C        -33.6190  -35.5290    2.0890 C.2     9  GLU9        0.2287
     28  O        -33.1430  -35.5280    3.2440 O.2     9  GLU9       -0.2864
     29  CB       -36.1230  -35.6000    1.9830 C.3     9  GLU9        0.0415
     30  CG       -37.5290  -34.9350    1.9630 C.3     9  GLU9        0.1163
     31  CD       -37.8000  -33.9670    3.1340 C.2     9  GLU9        0.3649
     32  OE1      -36.8530  -33.6380    3.9000 O.co2   9  GLU9       -0.2457
     33  OE2      -38.9750  -33.5240    3.2960 O.co2   9  GLU9       -0.2457
     34  N        -30.6460  -32.8020    2.4660 N.3    12  TYR12      -0.1241
     35  CA       -30.7670  -31.7470    3.4820 C.3    12  TYR12       0.1605
     36  C        -30.0070  -32.0320    4.7620 C.2    12  TYR12       0.2264
     37  O        -29.2210  -31.1960    5.2260 O.2    12  TYR12      -0.2867
     38  CB       -32.2250  -31.4970    3.8420 C.3    12  TYR12       0.0534
     39  CG       -32.4670  -30.4870    4.9770 C.ar   12  TYR12      -0.0201
     40  CD1      -32.4840  -29.1240    4.7180 C.ar   12  TYR12      -0.0009
     41  CD2      -32.7330  -30.9150    6.3020 C.ar   12  TYR12      -0.0009
     42  CE1      -32.7280  -28.2080    5.7290 C.ar   12  TYR12       0.0417
     43  CE2      -32.9760  -29.9950    7.3310 C.ar   12  TYR12       0.0417
     44  CZ       -32.9710  -28.6480    7.0170 C.ar   12  TYR12       0.1957
     45  OH       -33.2020  -27.7080    7.9600 O.3    12  TYR12      -0.2866
     46  N        -31.3860  -24.8850    4.3590 N.3    24  SER24      -0.1202
     47  CA       -32.5110  -24.7390    3.4430 C.3    24  SER24       0.2020
     48  C        -32.1140  -23.9790    2.1680 C.2    24  SER24       0.2618
     49  O        -32.5710  -24.3100    1.0830 O.2    24  SER24      -0.2717
     50  CB       -33.6510  -23.9890    4.1320 C.3    24  SER24       0.2103
     51  OG       -34.7160  -23.6830    3.2190 O.3    24  SER24      -0.2182
     52  N        -31.2840  -22.9560    2.2910 N.am   25  LYS25      -0.1979
     53  CA       -31.0040  -22.1290    1.1450 C.3    25  LYS25       0.1596
     54  C        -30.1130  -22.9300    0.2730 C.2    25  LYS25       0.2287
     55  O        -30.3900  -23.0910   -0.9240 O.2    25  LYS25      -0.2864
     56  CB       -30.3370  -20.8110    1.5300 C.3    25  LYS25       0.0298
     57  CG       -30.1380  -19.8650    0.3540 C.3    25  LYS25       0.0038
     58  CD       -31.4570  -19.5850   -0.3810 C.3    25  LYS25       0.0206
     59  CE       -31.2120  -18.9090   -1.6960 C.3    25  LYS25       0.1093
     60  NZ       -32.3920  -18.9860   -2.6000 N.3    25  LYS25      -0.1314
     61  N        -29.5370  -26.1980    0.1240 N.3    27  THR27      -0.1203
     62  CA       -30.0800  -27.3780   -0.5320 C.3    27  THR27       0.1994
     63  C        -30.8310  -26.9700   -1.7900 C.2    27  THR27       0.2618
     64  O        -30.6820  -27.5940   -2.8130 O.2    27  THR27      -0.2717
     65  CB       -30.9920  -28.1750    0.3740 C.3    27  THR27       0.1784
     66  OG1      -30.2690  -28.5810    1.5420 O.3    27  THR27      -0.2211
     67  CG2      -31.4390  -29.3700   -0.3060 C.3    27  THR27       0.0376
     68  N        -31.6210  -25.8970   -1.7230 N.am   28  GLY28      -0.1942
     69  CA       -32.4410  -25.4830   -2.8470 C.3    28  GLY28       0.2014
     70  C        -31.5880  -25.0670   -4.0010 C.2    28  GLY28       0.2639
     71  O        -31.9350  -25.3160   -5.1310 O.2    28  GLY28      -0.2714
     72  N        -30.4630  -24.4340   -3.7060 N.am   29  MET29      -0.1963
     73  CA       -29.5340  -24.0260   -4.7240 C.3    29  MET29       0.1736
     74  C        -28.9540  -25.2700   -5.3930 C.2    29  MET29       0.2616
     75  O        -28.9160  -25.3800   -6.6340 O.2    29  MET29      -0.2715
     76  CB       -28.4280  -23.2220   -4.0630 C.3    29  MET29       0.0427
     77  CG       -28.8770  -21.8380   -3.6070 C.3    29  MET29       0.0599
     78  SD       -27.5460  -20.9190   -2.8370 S.3    29  MET29      -0.1393
     79  CE       -26.5420  -20.5400   -4.2890 C.3    29  MET29       0.0692
     80  N        -28.5020  -26.2030   -4.5600 N.am   30  LEU30      -0.1963
     81  CA       -27.9400  -27.4530   -5.0470 C.3    30  LEU30       0.1728
     82  C        -28.8580  -28.1840   -5.9810 C.2    30  LEU30       0.2616
     83  O        -28.4110  -28.8400   -6.9120 O.2    30  LEU30      -0.2715
     84  CB       -27.6350  -28.4050   -3.8980 C.3    30  LEU30       0.0311
     85  CG       -26.4310  -27.9940   -3.0680 C.3    30  LEU30       0.0022
     86  CD1      -26.0600  -29.0820   -2.1170 C.3    30  LEU30       0.0001
     87  CD2      -25.2880  -27.6520   -3.9430 C.3    30  LEU30       0.0001
     88  N        -30.1470  -28.1000   -5.7300 N.am   31  LEU31      -0.1963
     89  CA       -31.0670  -28.8830   -6.5260 C.3    31  LEU31       0.1728
     90  C        -31.2400  -28.3090   -7.9060 C.2    31  LEU31       0.2616
     91  O        -32.0460  -28.8130   -8.6640 O.2    31  LEU31      -0.2715
     92  CB       -32.4110  -29.0340   -5.8410 C.3    31  LEU31       0.0311
     93  CG       -32.2990  -29.8140   -4.5410 C.3    31  LEU31       0.0022
     94  CD1      -33.5570  -29.5830   -3.8000 C.3    31  LEU31       0.0001
     95  CD2      -32.0970  -31.2990   -4.7800 C.3    31  LEU31       0.0001
     96  N        -30.4690  -27.2820   -8.2550 N.am   32  GLU32      -0.1963
     97  CA       -30.5700  -26.7200   -9.6110 C.3    32  GLU32       0.1733
     98  C        -29.5010  -27.2890  -10.5050 C.2    32  GLU32       0.2616
     99  O        -29.4920  -27.0130  -11.6960 O.2    32  GLU32      -0.2715
    100  CB       -30.4660  -25.2100   -9.5880 C.3    32  GLU32       0.0429
    101  CG       -31.4160  -24.5990   -8.6000 C.3    32  GLU32       0.1163
    102  CD       -32.1280  -23.3650   -9.1670 C.2    32  GLU32       0.3649
    103  OE1      -31.4470  -22.4510   -9.6980 O.co2  32  GLU32      -0.2457
    104  OE2      -33.3840  -23.3060   -9.0690 O.co2  32  GLU32      -0.2457
    105  N        -28.5940  -28.0880   -9.9340 N.am   33  LEU33      -0.1977
    106  CA       -27.5120  -28.7170  -10.7220 C.3    33  LEU33       0.1596
    107  C        -28.0030  -29.8270  -11.6690 C.2    33  LEU33       0.2287
    108  O        -29.0840  -30.3940  -11.4580 O.2    33  LEU33      -0.2864
    109  CB       -26.4750  -29.3350   -9.7870 C.3    33  LEU33       0.0297
    110  CG       -25.9380  -28.4350   -8.7100 C.3    33  LEU33       0.0022
    111  CD1      -25.0440  -29.2530   -7.8360 C.3    33  LEU33       0.0001
    112  CD2      -25.2460  -27.2000   -9.3140 C.3    33  LEU33       0.0001
    113  N        -19.4220  -28.1250   -3.1230 N.3    51  ARG51      -0.1245
    114  CA       -20.6140  -27.3990   -3.5990 C.3    51  ARG51       0.1563
    115  C        -21.1960  -26.5240   -2.5480 C.2    51  ARG51       0.2260
    116  O        -21.6150  -25.4000   -2.8210 O.2    51  ARG51      -0.2867
    117  CB       -21.7170  -28.3630   -3.9570 C.3    51  ARG51       0.0307
    118  CG       -21.3030  -29.2200   -5.0620 C.3    51  ARG51       0.0489
    119  CD       -21.0250  -28.3330   -6.2250 C.3    51  ARG51       0.2205
    120  NE       -20.7990  -29.1060   -7.4290 N.pl3  51  ARG51      -0.0865
    121  CZ       -20.6380  -28.5370   -8.6140 C.cat  51  ARG51       0.5346
    122  NH1      -20.6980  -27.2010   -8.6930 N.pl3  51  ARG51       0.1354
    123  NH2      -20.4140  -29.2880   -9.7050 N.pl3  51  ARG51       0.1354
    124  N        -18.9510  -23.6040   -2.1710 N.3    54  GLU54      -0.1231
    125  CA       -19.2690  -22.8170   -3.3550 C.3    54  GLU54       0.1699
    126  C        -20.5130  -21.9980   -3.1620 C.2    54  GLU54       0.2592
    127  O        -20.5330  -20.8000   -3.4500 O.2    54  GLU54      -0.2718
    128  CB       -19.5540  -23.7620   -4.4880 C.3    54  GLU54       0.0402
    129  CG       -19.6100  -23.0880   -5.8190 C.3    54  GLU54       0.1161
    130  CD       -19.6420  -24.0910   -6.9920 C.2    54  GLU54       0.3649
    131  OE1      -19.2090  -25.2830   -6.8260 O.co2  54  GLU54      -0.2457
    132  OE2      -20.0980  -23.6610   -8.0870 O.co2  54  GLU54      -0.2457
    133  N        -21.5590  -22.6770   -2.7010 N.am   55  ALA55      -0.1980
    134  CA       -22.8420  -22.0580   -2.4310 C.3    55  ALA55       0.1597
    135  C        -22.7280  -20.9680   -1.3510 C.2    55  ALA55       0.2287
    136  O        -23.2480  -19.8560   -1.5180 O.2    55  ALA55      -0.2864
    137  CB       -23.8290  -23.1080   -2.0080 C.3    55  ALA55       0.0319
    138  N        -21.1980  -17.6550   -2.7440 N.3    58  LEU58      -0.1231
    139  CA       -22.1680  -17.0210   -3.6420 C.3    58  LEU58       0.1693
    140  C        -23.1930  -16.2190   -2.8530 C.2    58  LEU58       0.2591
    141  O        -23.6300  -15.1430   -3.2820 O.2    58  LEU58      -0.2718
    142  CB       -22.9110  -18.0550   -4.4550 C.3    58  LEU58       0.0284
    143  CG       -22.5750  -18.1930   -5.9370 C.3    58  LEU58       0.0019
    144  CD1      -23.4980  -19.2740   -6.5070 C.3    58  LEU58       0.0001
    145  CD2      -22.7150  -16.8610   -6.7300 C.3    58  LEU58       0.0001
    146  N        -23.5700  -16.7550   -1.6970 N.am   59  ILE59      -0.1980
    147  CA       -24.4760  -16.0870   -0.7730 C.3    59  ILE59       0.1595
    148  C        -23.8140  -14.8490   -0.1360 C.2    59  ILE59       0.2287
    149  O        -24.3510  -13.7480   -0.2480 O.2    59  ILE59      -0.2864
    150  CB       -25.0130  -17.0990    0.3180 C.3    59  ILE59       0.0276
    151  CG1      -26.0020  -18.1030   -0.3030 C.3    59  ILE59       0.0022
    152  CG2      -25.6170  -16.3610    1.5140 C.3    59  ILE59       0.0022
    153  CD1      -26.3550  -19.2690    0.6370 C.3    59  ILE59       0.0001
@<TRIPOS>BOND
     1    99    98    2
     2   107   108    2
     3   107   106    1
     4    10     9    1
     5   106   105    1
     6   106   109    1
     7    98   105   am
     8    98    97    1
     9     9    11    1
    10     9     8    2
    11   109   110    1
    12   123   121    1
    13   103   102   ar
    14    97   100    1
    15    97    96    1
    16   100   101    1
    17     7     8    1
    18     7     6    1
    19   112   110    1
    20   102   104   ar
    21   102   101    1
    22     6     5    1
    23   110   111    1
    24   122   121    1
    25    91    90    2
    26   121   120    2
    27    96    90   am
    28   132   130   ar
    29    90    89    1
    30   120   119    1
    31     5     2    1
    32   130   131   ar
    33   130   129    1
    34     1     2    1
    35    83    82    2
    36   145   143    1
    37    75    74    2
    38    89    92    1
    39    89    88    1
    40   144   143    1
    41     2     3    1
    42   119   118    1
    43    82    88   am
    44    82    81    1
    45   143   142    1
    46    92    93    1
    47   129   128    1
    48    74    73    1
    49    74    80   am
    50    71    70    2
    51   118   117    1
    52    81    80    1
    53    81    84    1
    54     3    12   am
    55     3     4    2
    56    95    93    1
    57    73    76    1
    58    73    72    1
    59    93    94    1
    60   128   125    1
    61   142   139    1
    62    12    13    1
    63    79    78    1
    64    76    77    1
    65    70    72   am
    66    70    69    1
    67   117   114    1
    68    87    85    1
    69    84    85    1
    70   139   140    1
    71   139   138    1
    72    77    78    1
    73   114   113    1
    74   114   115    1
    75   127   126    2
    76   125   126    1
    77   125   124    1
    78   141   140    2
    79   126   133   am
    80    85    86    1
    81    13    16    1
    82    13    14    1
    83   140   146   am
    84    69    68    1
    85   116   115    2
    86    64    63    2
    87   133   134    1
    88    16    17    1
    89    60    59    1
    90   134   137    1
    91   134   135    1
    92    21    22    1
    93    14    15    2
    94    63    68   am
    95    63    62    1
    96   146   147    1
    97    59    58    1
    98   136   135    2
    99    22    23    1
   100    19    18    2
   101    17    18    1
   102    55    54    2
   103   147   148    1
   104   147   150    1
   105    62    61    1
   106    62    65    1
   107    18    20   am
   108    58    57    1
   109    67    65    1
   110   151   150    1
   111   151   153    1
   112   149   148    2
   113    23    25   am
   114    23    24    2
   115    54    53    1
   116   150   152    1
   117    57    56    1
   118    65    66    1
   119    25    26    1
   120    49    48    2
   121    53    56    1
   122    53    52    1
   123    26    29    1
   124    26    27    1
   125    30    29    1
   126    30    31    1
   127    27    28    2
   128    48    52   am
   129    48    47    1
   130    34    35    1
   131    31    33   ar
   132    31    32   ar
   133    51    50    1
   134    47    50    1
   135    47    46    1
   136    35    38    1
   137    35    36    1
   138    38    39    1
   139    40    39   ar
   140    40    42   ar
   141    36    37    2
   142    39    41   ar
   143    42    44   ar
   144    41    43   ar
   145    44    43   ar
   146    44    45    1
