@<TRIPOS>MOLECULE
tmp/3ntyA01.pdb
 172 169 0 0 0
SMALL
GASTEIGER

@<TRIPOS>ATOM
      1  N          4.1410   -0.8510   24.1910 N.3    19  TYR19      -0.1241
      2  CA         3.3040   -1.7790   23.4280 C.3    19  TYR19       0.1605
      3  C          2.5640   -2.6590   24.4050 C.2    19  TYR19       0.2264
      4  O          3.1570   -3.1930   25.3670 O.2    19  TYR19      -0.2867
      5  CB         4.1110   -2.6810   22.4760 C.3    19  TYR19       0.0534
      6  CG         3.2290   -3.6750   21.7180 C.ar   19  TYR19      -0.0201
      7  CD1        2.5430   -3.2900   20.5640 C.ar   19  TYR19      -0.0009
      8  CD2        3.0640   -4.9810   22.1600 C.ar   19  TYR19      -0.0009
      9  CE1        1.7290   -4.1690   19.8590 C.ar   19  TYR19       0.0417
     10  CE2        2.2640   -5.8550   21.4840 C.ar   19  TYR19       0.0417
     11  CZ         1.6110   -5.4630   20.3210 C.ar   19  TYR19       0.1957
     12  OH         0.7820   -6.3660   19.6770 O.3    19  TYR19      -0.2866
     13  N          2.4650    2.2500   15.2110 N.3    49  LEU49      -0.1231
     14  CA         1.9070    0.9010   15.2750 C.3    49  LEU49       0.1693
     15  C          1.0540    0.6110   16.5270 C.2    49  LEU49       0.2592
     16  O          0.0380   -0.0810   16.4470 O.2    49  LEU49      -0.2718
     17  CB         2.9850   -0.1650   15.1200 C.3    49  LEU49       0.0284
     18  CG         2.4390   -1.6430   15.2150 C.3    49  LEU49       0.0019
     19  CD1        1.5270   -2.0350   14.0360 C.3    49  LEU49       0.0001
     20  CD2        3.5730   -2.6610   15.2510 C.3    49  LEU49       0.0001
     21  N          1.4940    1.0920   17.6810 N.am   50  TYR50      -0.1976
     22  CA         0.9240    0.6730   18.9380 C.3    50  TYR50       0.1639
     23  C         -0.4590    1.2170   19.2320 C.2    50  TYR50       0.2290
     24  O         -1.0390    0.8680   20.2830 O.2    50  TYR50      -0.2864
     25  CB         1.8550    1.0320   20.1050 C.3    50  TYR50       0.0560
     26  CG         3.3030    0.5590   19.9540 C.ar   50  TYR50      -0.0198
     27  CD1        3.6660   -0.3570   18.9220 C.ar   50  TYR50      -0.0009
     28  CD2        4.2710    0.9560   20.8660 C.ar   50  TYR50      -0.0009
     29  CE1        4.9460   -0.7930   18.7820 C.ar   50  TYR50       0.0417
     30  CE2        5.6290    0.4950   20.7550 C.ar   50  TYR50       0.0417
     31  CZ         5.9350   -0.3580   19.6990 C.ar   50  TYR50       0.1957
     32  OH         7.2070   -0.8080   19.5420 O.3    50  TYR50      -0.2866
     33  N          8.0990    5.7480   16.0560 N.3    79  LYS79      -0.1245
     34  CA         8.5600    4.9280   14.9470 C.3    79  LYS79       0.1561
     35  C          7.6900    5.0260   13.7520 C.2    79  LYS79       0.2260
     36  O          6.4610    4.9930   13.8810 O.2    79  LYS79      -0.2867
     37  CB         8.7350    3.4190   15.3280 C.3    79  LYS79       0.0271
     38  CG         9.6060    3.2080   16.6250 C.3    79  LYS79       0.0035
     39  CD         9.8430    1.7220   16.8830 C.3    79  LYS79       0.0206
     40  CE        10.2230    1.4250   18.3640 C.3    79  LYS79       0.1093
     41  NZ         9.0720    1.4720   19.3550 N.3    79  LYS79      -0.1314
     42  N          5.9580    3.7570   10.5840 N.3    81  TRP81      -0.1241
     43  CA         5.4330    2.4010   10.3200 C.3    81  TRP81       0.1605
     44  C          5.6530    2.0080    8.8400 C.2    81  TRP81       0.2264
     45  O          5.8500    2.8700    8.0130 O.2    81  TRP81      -0.2867
     46  CB         3.9580    2.2290   10.7730 C.3    81  TRP81       0.0550
     47  CG         3.5370    0.8470   10.4540 C.ar   81  TRP81       0.0003
     48  CD1        2.5840    0.4540    9.5230 C.ar   81  TRP81       0.0946
     49  CD2        4.1170   -0.3530   10.9690 C.ar   81  TRP81       0.0152
     50  NE1        2.5120   -0.9300    9.4880 N.ar   81  TRP81      -0.2442
     51  CE2        3.4500   -1.4540   10.3410 C.ar   81  TRP81       0.0810
     52  CE3        5.1420   -0.6200   11.9030 C.ar   81  TRP81       0.0012
     53  CZ2        3.7710   -2.8000   10.6300 C.ar   81  TRP81       0.0191
     54  CZ3        5.4470   -1.9520   12.1790 C.ar   81  TRP81       0.0001
     55  CH2        4.7650   -3.0190   11.5600 C.ar   81  TRP81       0.0015
     56  N         10.7500    1.6310   11.6120 N.3   112  HIS112     -0.1226
     57  CA        10.3020    0.6060   12.5360 C.3   112  HIS112      0.1752
     58  C         10.6850   -0.8220   12.0950 C.2   112  HIS112      0.2596
     59  O         11.0670   -1.6550   12.9360 O.2   112  HIS112     -0.2718
     60  CB         8.7950    0.7530   12.7250 C.3   112  HIS112      0.0759
     61  CG         8.2450   -0.0080   13.8960 C.ar  112  HIS112      0.0818
     62  ND1        7.1260    0.4080   14.5840 N.ar  112  HIS112     -0.2268
     63  CD2        8.6620   -1.1570   14.4940 C.ar  112  HIS112      0.1154
     64  CE1        6.8600   -0.4710   15.5380 C.ar  112  HIS112      0.1986
     65  NE2        7.8030   -1.4080   15.5310 N.ar  112  HIS112     -0.2212
     66  N         10.6880   -1.0550   10.7840 N.am  113  PHE113     -0.1976
     67  CA        10.9420   -2.3950   10.2140 C.3   113  PHE113      0.1639
     68  C         11.2980   -2.2310    8.7370 C.2   113  PHE113      0.2290
     69  O         10.6970   -1.4150    8.0310 O.2   113  PHE113     -0.2864
     70  CB         9.7480   -3.3190   10.4200 C.3   113  PHE113      0.0560
     71  CG        10.0410   -4.7860   10.1630 C.ar  113  PHE113     -0.0200
     72  CD1       10.6790   -5.5590   11.1150 C.ar  113  PHE113     -0.0042
     73  CD2        9.6220   -5.4000    8.9500 C.ar  113  PHE113     -0.0042
     74  CE1       10.9320   -6.9010   10.9000 C.ar  113  PHE113     -0.0003
     75  CE2        9.8980   -6.7490    8.7060 C.ar  113  PHE113     -0.0003
     76  CZ        10.5400   -7.5220    9.6810 C.ar  113  PHE113     -0.0000
     77  N         -1.4570   -3.3570    8.4250 N.3   124  ILE124     -0.1245
     78  CA        -1.0470   -4.5660    7.7220 C.3   124  ILE124      0.1561
     79  C         -2.0580   -4.8400    6.6260 C.2   124  ILE124      0.2260
     80  O         -3.0250   -5.5720    6.8410 O.2   124  ILE124     -0.2867
     81  CB        -0.9760   -5.7770    8.6670 C.3   124  ILE124      0.0252
     82  CG1        0.0270   -5.5160    9.7930 C.3   124  ILE124      0.0019
     83  CG2       -0.6030   -7.0330    7.8960 C.3   124  ILE124      0.0019
     84  CD1        0.0460   -6.5940   10.8550 C.3   124  ILE124      0.0001
     85  N         15.2700   -3.2490   13.9480 N.3   162  ASN162     -0.1240
     86  CA        15.1360   -4.5190   13.2130 C.3   162  ASN162      0.1653
     87  C         15.9410   -4.5320   11.9130 C.2   162  ASN162      0.2266
     88  O         15.5890   -5.2500   10.9670 O.2   162  ASN162     -0.2867
     89  CB        13.6540   -4.8290   12.8610 C.3   162  ASN162      0.1155
     90  CG        12.7930   -5.0330   14.0940 C.2   162  ASN162      0.2627
     91  OD1       13.0870   -5.8530   14.9370 O.2   162  ASN162     -0.2716
     92  ND2       11.7190   -4.2570   14.1960 N.am  162  ASN162     -0.0877
     93  N         17.3120   -0.6260   17.2630 N.3   185  GLN185     -0.1245
     94  CA        16.5180   -1.2140   18.3200 C.3   185  GLN185      0.1566
     95  C         16.0750   -2.5890   17.8660 C.2   185  GLN185      0.2260
     96  O         15.3420   -2.7240   16.8780 O.2   185  GLN185     -0.2867
     97  CB        15.3050   -0.3620   18.6810 C.3   185  GLN185      0.0367
     98  CG        14.4730   -0.9930   19.9280 C.3   185  GLN185      0.0905
     99  CD        13.1400   -0.2930   20.1590 C.2   185  GLN185      0.2608
    100  OE1       12.0670   -0.9000   20.1400 O.2   185  GLN185     -0.2717
    101  NE2       13.2190    1.0060   20.4610 N.am  185  GLN185     -0.0878
    102  N         14.9510   -4.6480   22.7750 N.3   211  TYR211     -0.1241
    103  CA        13.5650   -4.8570   23.0230 C.3   211  TYR211      0.1605
    104  C         13.2500   -6.3160   23.4330 C.2   211  TYR211      0.2264
    105  O         14.0630   -7.1630   23.2830 O.2   211  TYR211     -0.2867
    106  CB        12.6590   -4.3340   21.9240 C.3   211  TYR211      0.0534
    107  CG        12.4880   -5.1140   20.6640 C.ar  211  TYR211     -0.0201
    108  CD1       11.9870   -6.3700   20.6690 C.ar  211  TYR211     -0.0009
    109  CD2       12.7730   -4.5390   19.4440 C.ar  211  TYR211     -0.0009
    110  CE1       11.8290   -7.0470   19.5070 C.ar  211  TYR211      0.0417
    111  CE2       12.5980   -5.1840   18.2940 C.ar  211  TYR211      0.0417
    112  CZ        12.1090   -6.4530   18.3090 C.ar  211  TYR211      0.1957
    113  OH        11.9120   -7.1070   17.1380 O.3   211  TYR211     -0.2866
    114  N          6.2160  -10.0110   25.3090 N.3   217  HIS217     -0.1241
    115  CA         4.8190  -10.0670   25.7490 C.3   217  HIS217      0.1621
    116  C          4.2540  -11.4990   25.5820 C.2   217  HIS217      0.2264
    117  O          3.2240  -11.8270   26.2060 O.2   217  HIS217     -0.2867
    118  CB         3.9630   -9.0120   25.0000 C.3   217  HIS217      0.0745
    119  CG         4.2660   -8.8930   23.5240 C.ar  217  HIS217      0.0817
    120  ND1        4.0530   -9.9120   22.6180 N.ar  217  HIS217     -0.2268
    121  CD2        4.8480   -7.8900   22.8250 C.ar  217  HIS217      0.1154
    122  CE1        4.4530   -9.5200   21.4200 C.ar  217  HIS217      0.1986
    123  NE2        4.9530   -8.2920   21.5280 N.ar  217  HIS217     -0.2212
    124  N          2.2790  -13.9160   17.4050 N.3   222  TRP222     -0.1241
    125  CA         3.5490  -13.2860   17.0650 C.3   222  TRP222      0.1605
    126  C          4.7240  -14.0580   17.6550 C.2   222  TRP222      0.2264
    127  O          5.8190  -14.0650   17.0940 O.2   222  TRP222     -0.2867
    128  CB         3.5750  -11.8360   17.5520 C.3   222  TRP222      0.0550
    129  CG         2.4800  -10.9900   16.9760 C.ar  222  TRP222      0.0003
    130  CD1        1.2400  -10.7820   17.5050 C.ar  222  TRP222      0.0946
    131  CD2        2.5270  -10.2380   15.7570 C.ar  222  TRP222      0.0152
    132  NE1        0.5120   -9.9480   16.6930 N.ar  222  TRP222     -0.2442
    133  CE2        1.2800   -9.5990   15.6130 C.ar  222  TRP222      0.0810
    134  CE3        3.5030  -10.0430   14.7750 C.ar  222  TRP222      0.0012
    135  CZ2        0.9820   -8.7790   14.5260 C.ar  222  TRP222      0.0191
    136  CZ3        3.2060   -9.2280   13.6970 C.ar  222  TRP222      0.0001
    137  CH2        1.9560   -8.6070   13.5810 C.ar  222  TRP222      0.0015
    138  N         10.2270  -12.8080   18.7030 N.3   301  LEU301     -0.1245
    139  CA         9.4700  -12.0820   17.6910 C.3   301  LEU301      0.1561
    140  C         10.0840  -12.2830   16.3120 C.2   301  LEU301      0.2260
    141  O         10.8470  -11.4380   15.8440 O.2   301  LEU301     -0.2867
    142  CB         9.4130  -10.5920   18.0300 C.3   301  LEU301      0.0270
    143  CG         8.1350   -9.8530   17.6300 C.3   301  LEU301      0.0019
    144  CD1        6.9330  -10.4210   18.3700 C.3   301  LEU301      0.0001
    145  CD2        8.2730   -8.3610   17.8890 C.3   301  LEU301      0.0001
    146  N          8.5880  -12.2250   13.4750 N.3   303  LEU303     -0.1245
    147  CA         7.9160  -11.4100   12.4470 C.3   303  LEU303      0.1561
    148  C          7.9620  -12.1310   11.0680 C.2   303  LEU303      0.2260
    149  O          8.0500  -11.4890   10.0070 O.2   303  LEU303     -0.2867
    150  CB         8.5870  -10.0270   12.3840 C.3   303  LEU303      0.0270
    151  CG         8.6110   -9.2990   13.7270 C.3   303  LEU303      0.0019
    152  CD1        9.4050   -8.0170   13.5970 C.3   303  LEU303      0.0001
    153  CD2        7.1340   -8.9620   14.1160 C.3   303  LEU303      0.0001
    154  N          5.6640  -13.4910    9.4600 N.3   305  ILE305     -0.1231
    155  CA         4.6260  -12.9890    8.5260 C.3   305  ILE305      0.1692
    156  C          5.1650  -12.0210    7.4340 C.2   305  ILE305      0.2592
    157  O          4.5230  -11.8720    6.3480 O.2   305  ILE305     -0.2718
    158  CB         3.3730  -12.3930    9.2120 C.3   305  ILE305      0.0266
    159  CG1        3.7430  -11.2450   10.1490 C.3   305  ILE305      0.0019
    160  CG2        2.5540  -13.5260    9.8790 C.3   305  ILE305      0.0020
    161  CD1        2.6520  -10.2090   10.2110 C.3   305  ILE305      0.0001
    162  N          6.3380  -11.4160    7.7110 N.am  306  PHE306     -0.1976
    163  CA         6.9630  -10.4300    6.7910 C.3   306  PHE306      0.1639
    164  C          8.1820  -11.0190    6.0250 C.2   306  PHE306      0.2290
    165  O          8.9990  -10.3020    5.4600 O.2   306  PHE306     -0.2864
    166  CB         7.3110   -9.1060    7.5230 C.3   306  PHE306      0.0560
    167  CG         6.1730   -8.0580    7.5980 C.ar  306  PHE306     -0.0200
    168  CD1        4.8390   -8.4110    7.7430 C.ar  306  PHE306     -0.0042
    169  CD2        6.4900   -6.6870    7.6020 C.ar  306  PHE306     -0.0042
    170  CE1        3.8250   -7.4500    7.8320 C.ar  306  PHE306     -0.0003
    171  CE2        5.5150   -5.7070    7.6830 C.ar  306  PHE306     -0.0003
    172  CZ         4.1740   -6.0630    7.8230 C.ar  306  PHE306     -0.0000
@<TRIPOS>BOND
     1   165   164    2
     2   164   163    1
     3   157   156    2
     4    79    80    2
     5    79    78    1
     6   163   166    1
     7   163   162    1
     8   156   162   am
     9   156   155    1
    10   166   167    1
    11   167   169   ar
    12   167   168   ar
    13   169   171   ar
    14   171   172   ar
    15    78    77    1
    16    78    81    1
    17   168   170   ar
    18   172   170   ar
    19    83    81    1
    20    45    44    2
    21    69    68    2
    22   155   158    1
    23   155   154    1
    24    81    82    1
    25    75    73   ar
    26    75    76   ar
    27    68    67    1
    28    44    43    1
    29    73    71   ar
    30   158   160    1
    31   158   159    1
    32    50    48   ar
    33    50    51   ar
    34    48    47   ar
    35    76    74   ar
    36    82    84    1
    37   149   148    2
    38   159   161    1
    39    71    70    1
    40    71    72   ar
    41    67    70    1
    42    67    66    1
    43    43    42    1
    44    43    46    1
    45    51    53   ar
    46    51    49   ar
    47    47    46    1
    48    47    49   ar
    49    53    55   ar
    50    66    58   am
    51    74    72   ar
    52    88    87    2
    53    49    52   ar
    54   148   147    1
    55    55    54   ar
    56    56    57    1
    57    52    54   ar
    58    87    86    1
    59    58    57    1
    60    58    59    2
    61   150   147    1
    62   150   151    1
    63   147   146    1
    64    57    60    1
    65    60    61    1
    66    89    86    1
    67    89    90    1
    68    86    85    1
    69   137   136   ar
    70   137   135   ar
    71   152   151    1
    72   136   134   ar
    73   151   153    1
    74    35    36    2
    75    35    34    1
    76    61    63   ar
    77    61    62   ar
    78    19    18    1
    79    90    92   am
    80    90    91    2
    81    63    65   ar
    82   135   133   ar
    83    62    64   ar
    84   134   131   ar
    85    34    37    1
    86    34    33    1
    87    17    18    1
    88    17    14    1
    89    13    14    1
    90    18    20    1
    91    14    15    1
    92    37    38    1
    93    65    64   ar
    94   133   131   ar
    95   133   132   ar
    96   131   129   ar
    97   141   140    2
    98   140   139    1
    99    16    15    2
   100    15    21   am
   101    38    39    1
   102   132   130   ar
   103    96    95    2
   104    39    40    1
   105   129   130   ar
   106   129   128    1
   107   125   124    1
   108   125   128    1
   109   125   126    1
   110   127   126    2
   111   113   112    1
   112    93    94    1
   113   143   145    1
   114   143   142    1
   115   143   144    1
   116    21    22    1
   117   139   142    1
   118   139   138    1
   119    95    94    1
   120   111   112   ar
   121   111   109   ar
   122   112   110   ar
   123    94    97    1
   124    40    41    1
   125    97    98    1
   126    29    27   ar
   127    29    31   ar
   128    27    26   ar
   129    22    23    1
   130    22    25    1
   131    23    24    2
   132   109   107   ar
   133   110   108   ar
   134    32    31    1
   135    12    11    1
   136    31    30   ar
   137     9    11   ar
   138     9     7   ar
   139    98    99    1
   140    26    25    1
   141    26    28   ar
   142   100    99    2
   143    99   101   am
   144    11    10   ar
   145     7     6   ar
   146   107   108   ar
   147   107   106    1
   148    30    28   ar
   149   122   123   ar
   150   122   120   ar
   151    10     8   ar
   152   123   121   ar
   153     6     8   ar
   154     6     5    1
   155   106   103    1
   156     5     2    1
   157   120   119   ar
   158   102   103    1
   159   121   119   ar
   160   103   104    1
   161   105   104    2
   162     2     1    1
   163     2     3    1
   164   119   118    1
   165     3     4    2
   166   118   115    1
   167   114   115    1
   168   116   115    1
   169   116   117    2
