@<TRIPOS>MOLECULE
tmp/3nu0A01.pdb
 189 183 0 0 0
SMALL
GASTEIGER

@<TRIPOS>ATOM
      1  N        -21.6790  -13.0420   -1.6670 N.3     7  ILE7       -0.1231
      2  CA       -20.5510  -12.9590   -2.6180 C.3     7  ILE7        0.1692
      3  C        -19.3600  -13.7350   -2.0640 C.2     7  ILE7        0.2592
      4  O        -19.1250  -13.6530   -0.8470 O.2     7  ILE7       -0.2718
      5  CB       -20.1910  -11.4720   -2.9530 C.3     7  ILE7        0.0266
      6  CG1      -19.1060  -11.3870   -3.9980 C.3     7  ILE7        0.0019
      7  CG2      -19.8430  -10.6770   -1.7080 C.3     7  ILE7        0.0020
      8  CD1      -19.0860  -10.0500   -4.7610 C.3     7  ILE7        0.0001
      9  N        -18.6650  -14.4370   -2.9590 N.am    8  VAL8       -0.1966
     10  CA       -17.5550  -15.3130   -2.5390 C.3     8  VAL8        0.1727
     11  C        -16.6520  -15.4890   -3.7430 C.2     8  VAL8        0.2616
     12  O        -17.1290  -15.4090   -4.9080 O.2     8  VAL8       -0.2715
     13  CB       -18.0760  -16.6580   -2.0140 C.3     8  VAL8        0.0290
     14  CG1      -18.6460  -17.5560   -3.1820 C.3     8  VAL8        0.0023
     15  CG2      -16.9740  -17.4240   -1.2740 C.3     8  VAL8        0.0023
     16  N        -15.4000  -15.8160   -3.4700 N.am    9  ALA9       -0.1977
     17  CA       -14.4590  -16.3660   -4.4920 C.3     9  ALA9        0.1597
     18  C        -14.0550  -17.7440   -3.9840 C.2     9  ALA9        0.2287
     19  O        -13.6970  -17.8870   -2.7840 O.2     9  ALA9       -0.2864
     20  CB       -13.2360  -15.4420   -4.7100 C.3     9  ALA9        0.0319
     21  N         -6.5280  -16.2740    5.8990 N.3    21  ASP21      -0.1225
     22  CA        -6.4850  -15.4590    4.6880 C.3    21  ASP21       0.1805
     23  C         -6.9980  -16.3250    3.5550 C.2    21  ASP21       0.2597
     24  O         -7.5990  -17.3840    3.7540 O.2    21  ASP21      -0.2718
     25  CB        -5.0460  -14.9230    4.5230 C.3    21  ASP21       0.1424
     26  CG        -4.9520  -13.6640    3.6420 C.2    21  ASP21       0.3668
     27  OD1       -5.8550  -13.3130    2.8420 O.co2  21  ASP21      -0.2456
     28  OD2       -3.8890  -12.9680    3.7430 O.co2  21  ASP21      -0.2456
     29  N         -6.8400  -15.8190    2.3440 N.am   22  LEU22      -0.1979
     30  CA        -7.3200  -16.5310    1.1590 C.3    22  LEU22       0.1596
     31  C         -6.3850  -17.6400    0.7920 C.2    22  LEU22       0.2287
     32  O         -5.1530  -17.5480    1.0600 O.2    22  LEU22      -0.2864
     33  CB        -7.4930  -15.5460   -0.0420 C.3    22  LEU22       0.0297
     34  CG        -8.4980  -14.3910    0.2630 C.3    22  LEU22       0.0022
     35  CD1       -8.7250  -13.4850   -0.9360 C.3    22  LEU22       0.0001
     36  CD2       -9.7890  -14.9350    0.6320 C.3    22  LEU22       0.0001
     37  N         -9.8890   -9.0350   -9.0090 N.3    30  GLU30      -0.1231
     38  CA       -10.9830   -9.7930   -8.3400 C.3    30  GLU30       0.1699
     39  C        -11.4040   -9.0590   -7.0720 C.2    30  GLU30       0.2592
     40  O        -12.5790   -8.8300   -6.8340 O.2    30  GLU30      -0.2718
     41  CB       -10.5070  -11.2230   -8.0920 C.3    30  GLU30       0.0402
     42  CG       -11.7010  -12.2200   -8.0790 C.3    30  GLU30       0.1161
     43  CD       -12.5540  -12.1600   -6.8810 C.2    30  GLU30       0.3649
     44  OE1      -13.8050  -12.2870   -7.0500 O.co2  30  GLU30      -0.2457
     45  OE2      -12.0500  -11.9920   -5.7210 O.co2  30  GLU30      -0.2457
     46  N        -10.3980   -8.5450   -6.3130 N.am   31  PHE31      -0.1962
     47  CA       -10.7670   -7.6920   -5.2040 C.3    31  PHE31       0.1771
     48  C        -11.5830   -6.4410   -5.5960 C.2    31  PHE31       0.2619
     49  O        -12.5030   -6.0060   -4.8850 O.2    31  PHE31      -0.2715
     50  CB        -9.5860   -7.1570   -4.3680 C.3    31  PHE31       0.0574
     51  CG        -8.8700   -8.1710   -3.4840 C.ar   31  PHE31      -0.0200
     52  CD1       -9.4920   -9.3240   -2.9270 C.ar   31  PHE31      -0.0042
     53  CD2       -7.5500   -7.9000   -3.1450 C.ar   31  PHE31      -0.0042
     54  CE1       -8.7900  -10.1520   -2.0780 C.ar   31  PHE31      -0.0003
     55  CE2       -6.8430   -8.7410   -2.2920 C.ar   31  PHE31      -0.0003
     56  CZ        -7.4590   -9.8740   -1.7540 C.ar   31  PHE31      -0.0000
     57  N        -11.1890   -5.8430   -6.7280 N.am   32  ARG32      -0.1963
     58  CA       -11.9500   -4.6790   -7.1710 C.3    32  ARG32       0.1729
     59  C        -13.3840   -4.9930   -7.6270 C.2    32  ARG32       0.2616
     60  O        -14.2730   -4.1930   -7.4620 O.2    32  ARG32      -0.2715
     61  CB       -11.2340   -4.0110   -8.3120 C.3    32  ARG32       0.0348
     62  CG       -10.0000   -3.2080   -7.8110 C.3    32  ARG32       0.0492
     63  CD        -9.1040   -2.6070   -8.9640 C.3    32  ARG32       0.2205
     64  NE        -7.8300   -2.1480   -8.3430 N.pl3  32  ARG32      -0.0865
     65  CZ        -6.6060   -2.5970   -8.6610 C.cat  32  ARG32       0.5346
     66  NH1       -5.5180   -2.1370   -7.9950 N.pl3  32  ARG32       0.1354
     67  NH2       -6.4650   -3.4680   -9.6710 N.pl3  32  ARG32       0.1354
     68  N        -13.5490   -6.2030   -8.1810 N.am   33  TYR33      -0.1960
     69  CA       -14.8750   -6.7410   -8.4960 C.3    33  TYR33       0.1771
     70  C        -15.7140   -6.8330   -7.1830 C.2    33  TYR33       0.2620
     71  O        -16.8460   -6.3700   -7.1230 O.2    33  TYR33      -0.2715
     72  CB       -14.7660   -8.0730   -9.1880 C.3    33  TYR33       0.0574
     73  CG       -16.1530   -8.7270   -9.4080 C.ar   33  TYR33      -0.0198
     74  CD1      -16.5950   -9.7950   -8.5910 C.ar   33  TYR33      -0.0009
     75  CD2      -16.9580   -8.3150  -10.4400 C.ar   33  TYR33      -0.0009
     76  CE1      -17.7790  -10.4180   -8.8480 C.ar   33  TYR33       0.0417
     77  CE2      -18.1770   -8.9350  -10.7370 C.ar   33  TYR33       0.0417
     78  CZ       -18.5780   -9.9650   -9.9100 C.ar   33  TYR33       0.1957
     79  OH       -19.7780  -10.6130  -10.1600 O.3    33  TYR33      -0.2866
     80  N        -15.1270   -7.4710   -6.1690 N.am   34  PHE34      -0.1960
     81  CA       -15.8150   -7.5380   -4.8920 C.3    34  PHE34       0.1771
     82  C        -16.2350   -6.1100   -4.3690 C.2    34  PHE34       0.2619
     83  O        -17.3680   -5.9030   -3.8980 O.2    34  PHE34      -0.2715
     84  CB       -14.9300   -8.2890   -3.8660 C.3    34  PHE34       0.0574
     85  CG       -15.3530   -8.0870   -2.4120 C.ar   34  PHE34      -0.0200
     86  CD1      -16.3370   -8.8460   -1.8470 C.ar   34  PHE34      -0.0042
     87  CD2      -14.7940   -7.0340   -1.6280 C.ar   34  PHE34      -0.0042
     88  CE1      -16.7310   -8.6810   -0.5330 C.ar   34  PHE34      -0.0003
     89  CE2      -15.2240   -6.8430   -0.3280 C.ar   34  PHE34      -0.0003
     90  CZ       -16.2210   -7.6760    0.2530 C.ar   34  PHE34      -0.0000
     91  N        -15.2880   -5.1790   -4.4540 N.am   35  GLN35      -0.1977
     92  CA       -15.6100   -3.8030   -3.9910 C.3    35  GLN35       0.1601
     93  C        -16.7430   -3.1880   -4.8030 C.2    35  GLN35       0.2287
     94  O        -17.6540   -2.6590   -4.2050 O.2    35  GLN35      -0.2864
     95  CB       -14.3330   -2.9760   -4.1540 C.3    35  GLN35       0.0394
     96  CG       -14.5700   -1.5080   -3.8190 C.3    35  GLN35       0.0908
     97  CD       -13.3770   -0.5690   -4.1000 C.2    35  GLN35       0.2608
     98  OE1      -13.3430    0.5470   -3.4770 O.2    35  GLN35      -0.2717
     99  NE2      -12.4920   -0.9100   -5.0130 N.am   35  GLN35      -0.0878
    100  N        -13.9430  -13.4800    9.5130 N.3    56  THR56      -0.1218
    101  CA       -13.8590  -12.7380    8.2230 C.3    56  THR56       0.1862
    102  C        -13.5260  -11.2540    8.4230 C.2    56  THR56       0.2287
    103  O        -12.6940  -10.6980    7.7350 O.2    56  THR56      -0.2866
    104  CB       -15.1910  -12.9480    7.4440 C.3    56  THR56       0.1770
    105  OG1      -15.1910  -14.3390    7.0450 O.3    56  THR56      -0.2211
    106  CG2      -15.1790  -12.1350    6.1320 C.3    56  THR56       0.0375
    107  N         -9.9540  -11.0000    9.0610 N.3    59  SER59      -0.1202
    108  CA        -9.1510  -11.3710    7.8640 C.3    59  SER59       0.2020
    109  C         -8.9320  -10.2340    6.8910 C.2    59  SER59       0.2619
    110  O         -8.1130  -10.3240    5.9510 O.2    59  SER59      -0.2717
    111  CB        -9.7910  -12.5570    7.1520 C.3    59  SER59       0.2103
    112  OG       -10.8870  -12.1270    6.3490 O.3    59  SER59      -0.2182
    113  N         -9.6800   -9.1330    7.0550 N.am   60  ILE60      -0.1966
    114  CA        -9.5060   -7.9580    6.1530 C.3    60  ILE60       0.1712
    115  C         -8.4020   -7.1880    6.8710 C.2    60  ILE60       0.2458
    116  O         -8.4560   -6.9300    8.0580 O.2    60  ILE60      -0.2730
    117  CB       -10.8090   -7.1530    6.0300 C.3    60  ILE60       0.0289
    118  CG1      -11.9200   -7.9750    5.4150 C.3    60  ILE60       0.0022
    119  CG2      -10.5010   -5.8640    5.1360 C.3    60  ILE60       0.0023
    120  CD1      -13.3440   -7.3700    5.7380 C.3    60  ILE60       0.0001
    121  N         -7.3840   -6.7950    6.1210 N.am   61  PRO61      -0.2727
    122  CA        -6.3170   -6.0110    6.7780 C.3    61  PRO61       0.1402
    123  C         -6.9190   -4.7500    7.4240 C.2    61  PRO61       0.2269
    124  O         -7.8290   -4.0860    6.8520 O.2    61  PRO61      -0.2865
    125  CB        -5.4340   -5.5780    5.6300 C.3    61  PRO61       0.0296
    126  CG        -5.6350   -6.7040    4.5500 C.3    61  PRO61       0.0237
    127  CD        -7.1530   -6.9680    4.7050 C.3    61  PRO61       0.0939
    128  N         -7.9460   -1.6030    5.6190 N.3    64  ASN64      -0.1240
    129  CA        -9.0610   -1.6090    4.7010 C.3    64  ASN64       0.1653
    130  C        -10.3330   -1.8400    5.4440 C.2    64  ASN64       0.2266
    131  O        -11.3640   -2.1200    4.8100 O.2    64  ASN64      -0.2867
    132  CB        -8.8250   -2.7180    3.6480 C.3    64  ASN64       0.1155
    133  CG        -7.5310   -2.5100    2.8460 C.2    64  ASN64       0.2627
    134  OD1       -7.3490   -1.4690    2.1550 O.2    64  ASN64      -0.2716
    135  ND2       -6.6420   -3.4540    2.9380 N.am   64  ASN64      -0.0877
    136  N        -14.9230   -1.7840    5.5510 N.3    67  LEU67      -0.1231
    137  CA       -15.0650   -1.6370    4.0600 C.3    67  LEU67       0.1693
    138  C        -15.7450   -0.2980    3.6830 C.2    67  LEU67       0.2591
    139  O        -16.9070   -0.1210    4.1140 O.2    67  LEU67      -0.2718
    140  CB       -15.7960   -2.8680    3.5030 C.3    67  LEU67       0.0284
    141  CG       -15.0390   -4.2490    3.6860 C.3    67  LEU67       0.0019
    142  CD1      -15.9610   -5.3960    3.3070 C.3    67  LEU67       0.0001
    143  CD2      -13.7350   -4.1990    2.9370 C.3    67  LEU67       0.0001
    144  N        -14.9800    0.5410    3.0070 N.am   68  LYS68      -0.1980
    145  CA       -15.5200    1.9170    2.9310 C.3    68  LYS68       0.1596
    146  C        -16.7330    2.0490    2.0790 C.2    68  LYS68       0.2287
    147  O        -16.9300    1.2740    1.0860 O.2    68  LYS68      -0.2864
    148  CB       -14.4950    2.8250    2.4420 C.3    68  LYS68       0.0298
    149  CG       -14.0220    2.5270    1.1560 C.3    68  LYS68       0.0038
    150  CD       -12.9470    3.5620    0.8190 C.3    68  LYS68       0.0206
    151  CE       -11.7550    2.8150    0.2900 C.3    68  LYS68       0.1093
    152  NZ       -10.6370    3.3230    1.1050 N.3    68  LYS68      -0.1314
    153  N        -19.6980    1.2630    2.7250 N.3    70  ARG70      -0.1301
    154  CA       -20.6810    0.2460    3.1060 C.3    70  ARG70       0.1248
    155  C        -20.9210    0.2460    4.5730 C.3    70  ARG70       0.2009
    156  O        -19.9150    0.5910    5.3260 O.3    70  ARG70      -0.2188
    157  CB       -20.1680   -1.1280    2.6440 C.3    70  ARG70       0.0254
    158  CG       -20.2500   -1.3480    1.1650 C.3    70  ARG70       0.0485
    159  CD       -19.0970   -2.2480    0.6450 C.3    70  ARG70       0.2205
    160  NE       -17.8210   -1.4880    0.6870 N.pl3  70  ARG70      -0.0865
    161  CZ       -16.6520   -1.8850    0.1710 C.cat  70  ARG70       0.5346
    162  NH1      -16.5280   -3.1200   -0.3210 N.pl3  70  ARG70       0.1354
    163  NH2      -15.5640   -1.1210    0.1930 N.pl3  70  ARG70       0.1354
    164  N        -20.8920  -11.6880    3.2420 N.3   115  VAL115     -0.1245
    165  CA       -19.5260  -11.8380    2.7670 C.3   115  VAL115      0.1561
    166  C        -18.7220  -12.9020    3.5340 C.2   115  VAL115      0.2260
    167  O        -17.4960  -12.8720    3.4270 O.2   115  VAL115     -0.2867
    168  CB       -18.7750  -10.5020    2.6230 C.3   115  VAL115      0.0252
    169  CG1      -19.6000   -9.4580    1.8170 C.3   115  VAL115      0.0019
    170  CG2      -18.5060   -9.8770    4.0040 C.3   115  VAL115      0.0019
    171  N        -22.6240  -18.1640    5.2100 N.3   121  TYR121     -0.1241
    172  CA       -23.0260  -18.5250    3.7910 C.3   121  TYR121      0.1605
    173  C        -24.0080  -19.6840    3.8300 C.2   121  TYR121      0.2264
    174  O        -25.0560  -19.5750    3.2090 O.2   121  TYR121     -0.2867
    175  CB       -21.7780  -18.9430    3.0480 C.3   121  TYR121      0.0534
    176  CG       -20.8240  -17.8790    2.5970 C.ar  121  TYR121     -0.0201
    177  CD1      -19.4380  -18.0850    2.6730 C.ar  121  TYR121     -0.0009
    178  CD2      -21.2730  -16.6750    1.9600 C.ar  121  TYR121     -0.0009
    179  CE1      -18.5480  -17.2220    2.1590 C.ar  121  TYR121      0.0417
    180  CE2      -20.3560  -15.7660    1.4980 C.ar  121  TYR121      0.0417
    181  CZ       -18.9960  -16.0590    1.5930 C.ar  121  TYR121      0.1957
    182  OH       -18.0850  -15.2160    1.1050 O.3   121  TYR121     -0.2866
    183  N        -17.2120  -16.1980   -7.6760 N.3   136  THR136     -0.1218
    184  CA       -16.0530  -16.2010   -8.5920 C.3   136  THR136      0.1862
    185  C        -15.4540  -17.5760   -8.5250 C.2   136  THR136      0.2287
    186  O        -15.0120  -18.0230   -7.4130 O.2   136  THR136     -0.2866
    187  CB       -15.0430  -15.1790   -8.1490 C.3   136  THR136      0.1770
    188  OG1      -15.6540  -13.8660   -8.1860 O.3   136  THR136     -0.2211
    189  CG2      -13.8210  -15.1770   -9.1150 C.3   136  THR136      0.0375
@<TRIPOS>BOND
     1    77    75   ar
     2    77    78   ar
     3    75    73   ar
     4    79    78    1
     5    78    76   ar
     6    67    65    1
     7    73    72    1
     8    73    74   ar
     9    72    69    1
    10   189   187    1
    11    37    38    1
    12    63    64    1
    13    63    62    1
    14    76    74   ar
    15    65    64    2
    16    65    66    1
    17   184   185    1
    18   184   187    1
    19   184   183    1
    20   185   186    2
    21    69    68    1
    22    69    70    1
    23    38    41    1
    24    38    39    1
    25    61    62    1
    26    61    58    1
    27   188   187    1
    28    68    59   am
    29    41    42    1
    30    42    43    1
    31    59    60    2
    32    59    58    1
    33    70    71    2
    34    70    80   am
    35    58    57    1
    36    39    40    2
    37    39    46   am
    38    44    43   ar
    39    43    45   ar
    40    57    48   am
    41    46    47    1
    42    80    81    1
    43    48    47    1
    44    48    49    2
    45    47    50    1
    46    99    97   am
    47    12    11    2
    48    81    82    1
    49    81    84    1
    50    93    94    2
    51    93    92    1
    52     8     6    1
    53    20    17    1
    54    17    18    1
    55    17    16    1
    56    91    82   am
    57    91    92    1
    58    82    83    2
    59    50    51    1
    60    95    92    1
    61    95    96    1
    62    97    96    1
    63    97    98    2
    64     6     5    1
    65    18    19    2
    66    84    85    1
    67    11    16   am
    68    11    10    1
    69    51    53   ar
    70    51    52   ar
    71    14    13    1
    72    53    55   ar
    73     9    10    1
    74     9     3   am
    75     5     2    1
    76     5     7    1
    77    52    54   ar
    78     2     3    1
    79     2     1    1
    80    10    13    1
    81    85    86   ar
    82    85    87   ar
    83    55    56   ar
    84    54    56   ar
    85     3     4    2
    86    13    15    1
    87    86    88   ar
    88    87    89   ar
    89    35    34    1
    90    88    90   ar
    91    89    90   ar
    92   162   161    1
    93    33    34    1
    94    33    30    1
    95   161   163    1
    96   161   160    2
    97    34    36    1
    98   151   150    1
    99   151   152    1
   100   159   160    1
   101   159   158    1
   102    31    32    2
   103    31    30    1
   104   150   149    1
   105   147   146    2
   106   182   181    1
   107   149   148    1
   108    30    29    1
   109   158   157    1
   110   180   181   ar
   111   180   178   ar
   112   181   179   ar
   113   169   168    1
   114   178   176   ar
   115   146   145    1
   116   134   133    2
   117   179   177   ar
   118    29    23   am
   119   148   145    1
   120   176   177   ar
   121   176   175    1
   122   168   165    1
   123   168   170    1
   124   157   154    1
   125   153   154    1
   126   165   164    1
   127   165   166    1
   128    27    26   ar
   129   133   135   am
   130   133   132    1
   131   145   144    1
   132   143   141    1
   133   144   138   am
   134   175   172    1
   135   154   155    1
   136   174   173    2
   137   142   141    1
   138   167   166    2
   139   140   141    1
   140   140   137    1
   141    23    24    2
   142    23    22    1
   143    26    28   ar
   144    26    25    1
   145   132   129    1
   146   138   137    1
   147   138   139    2
   148   172   173    1
   149   172   171    1
   150   137   136    1
   151    25    22    1
   152   126   127    1
   153   126   125    1
   154   155   156    1
   155    22    21    1
   156   129   130    1
   157   129   128    1
   158   127   121    1
   159   131   130    2
   160   119   117    1
   161   118   120    1
   162   118   117    1
   163   125   122    1
   164   110   109    2
   165   117   114    1
   166   121   122    1
   167   121   115   am
   168   106   104    1
   169   114   115    1
   170   114   113    1
   171   112   111    1
   172   122   123    1
   173   124   123    2
   174   115   116    2
   175   109   113   am
   176   109   108    1
   177   105   104    1
   178   111   108    1
   179   104   101    1
   180   103   102    2
   181   108   107    1
   182   101   102    1
   183   101   100    1
