@<TRIPOS>MOLECULE
tmp/3nu1B01.pdb
 166 157 0 0 0
SMALL
GASTEIGER

@<TRIPOS>ATOM
      1  N        -10.9780   20.6590  -21.5520 N.3    29  SER29      -0.1202
      2  CA       -10.9290   21.1820  -20.1860 C.3    29  SER29       0.2020
      3  C         -9.5170   21.5710  -19.7410 C.2    29  SER29       0.2619
      4  O         -9.3550   22.3820  -18.8330 O.2    29  SER29      -0.2717
      5  CB       -11.4950   20.1590  -19.1980 C.3    29  SER29       0.2103
      6  OG       -12.8370   19.8220  -19.5010 O.3    29  SER29      -0.2182
      7  N         -8.4940   20.9880  -20.3590 N.am   30  THR30      -0.1952
      8  CA        -7.1320   21.2790  -19.9300 C.3    30  THR30       0.1897
      9  C         -6.5480   22.4830  -20.6520 C.2    30  THR30       0.2313
     10  O         -5.3880   22.8340  -20.4360 O.2    30  THR30      -0.2863
     11  CB        -6.1820   20.0860  -20.1200 C.3    30  THR30       0.1794
     12  OG1       -5.7990   19.9940  -21.4950 O.3    30  THR30      -0.2208
     13  CG2       -6.8360   18.8000  -19.6700 C.3    30  THR30       0.0378
     14  N         -6.7540   26.1810  -20.6540 N.3    32  GLN32      -0.1245
     15  CA        -7.1850   27.4170  -20.0040 C.3    32  GLN32       0.1566
     16  C         -6.2720   28.5760  -20.4050 C.2    32  GLN32       0.2260
     17  O         -6.4280   29.6950  -19.9230 O.2    32  GLN32      -0.2867
     18  CB        -7.1840   27.2560  -18.4850 C.3    32  GLN32       0.0367
     19  CG        -8.0330   26.1130  -17.9690 C.3    32  GLN32       0.0905
     20  CD        -9.5130   26.2990  -18.2500 C.2    32  GLN32       0.2608
     21  OE1       -9.9920   27.4210  -18.4090 O.2    32  GLN32      -0.2717
     22  NE2      -10.2440   25.1920  -18.3150 N.am   32  GLN32      -0.0878
     23  N        -13.0740   16.7280  -21.2150 N.3    45  TYR45      -0.1227
     24  CA       -11.7210   16.4730  -20.7420 C.3    45  TYR45       0.1736
     25  C        -10.9220   15.6180  -21.7270 C.2    45  TYR45       0.2595
     26  O        -11.3820   14.5600  -22.1730 O.2    45  TYR45      -0.2718
     27  CB       -11.7600   15.7960  -19.3760 C.3    45  TYR45       0.0548
     28  CG       -10.3910   15.4200  -18.8590 C.ar   45  TYR45      -0.0200
     29  CD1       -9.3830   16.3670  -18.7690 C.ar   45  TYR45      -0.0009
     30  CD2      -10.1140   14.1260  -18.4400 C.ar   45  TYR45      -0.0009
     31  CE1       -8.1340   16.0360  -18.2890 C.ar   45  TYR45       0.0417
     32  CE2       -8.8630   13.7880  -17.9490 C.ar   45  TYR45       0.0417
     33  CZ        -7.8780   14.7510  -17.8770 C.ar   45  TYR45       0.1957
     34  OH        -6.6300   14.4300  -17.3980 O.3    45  TYR45      -0.2866
     35  N         -9.7190   16.0860  -22.0490 N.am   46  MET46      -0.1965
     36  CA        -8.8340   15.4350  -23.0220 C.3    46  MET46       0.1736
     37  C         -8.7060   13.9120  -22.9120 C.2    46  MET46       0.2616
     38  O         -8.4750   13.2340  -23.9140 O.2    46  MET46      -0.2715
     39  CB        -7.4310   16.0420  -22.9470 C.3    46  MET46       0.0427
     40  CG        -6.4170   15.3290  -23.8310 C.3    46  MET46       0.0599
     41  SD        -4.7430   15.9570  -23.6190 S.3    46  MET46      -0.1393
     42  CE        -4.3910   15.3940  -21.9560 C.3    46  MET46       0.0692
     43  N         -8.8240   13.3740  -21.7040 N.am   47  ARG47      -0.1963
     44  CA        -8.5880   11.9450  -21.5050 C.3    47  ARG47       0.1729
     45  C         -9.8680   11.1190  -21.4450 C.2    47  ARG47       0.2616
     46  O         -9.8190    9.8870  -21.3990 O.2    47  ARG47      -0.2715
     47  CB        -7.7210   11.7040  -20.2680 C.3    47  ARG47       0.0348
     48  CG        -6.3060   12.2310  -20.4270 C.3    47  ARG47       0.0492
     49  CD        -5.4500   11.9490  -19.2050 C.3    47  ARG47       0.2205
     50  NE        -4.0660   12.3630  -19.4140 N.pl3  47  ARG47      -0.0865
     51  CZ        -3.5980   13.5740  -19.1300 C.cat  47  ARG47       0.5346
     52  NH1       -4.4050   14.4980  -18.6270 N.pl3  47  ARG47       0.1354
     53  NH2       -2.3240   13.8640  -19.3550 N.pl3  47  ARG47       0.1354
     54  N        -11.0080   11.7990  -21.4530 N.am   48  THR48      -0.1951
     55  CA       -12.2950   11.1200  -21.5140 C.3    48  THR48       0.1897
     56  C        -13.2080   11.8240  -22.5060 C.2    48  THR48       0.2313
     57  O        -14.3170   12.2190  -22.1710 O.2    48  THR48      -0.2863
     58  CB       -12.9830   11.0760  -20.1440 C.3    48  THR48       0.1794
     59  OG1      -13.3190   12.4070  -19.7320 O.3    48  THR48      -0.2208
     60  CG2      -12.0650   10.4370  -19.1160 C.3    48  THR48       0.0378
     61  N         -7.8440   10.7810  -25.3250 N.3    69  GLN69      -0.1245
     62  CA        -8.5040    9.4780  -25.2700 C.3    69  GLN69       0.1566
     63  C        -10.0190    9.6250  -25.1170 C.2    69  GLN69       0.2260
     64  O        -10.4980   10.6450  -24.6170 O.2    69  GLN69      -0.2867
     65  CB        -7.9400    8.6460  -24.1210 C.3    69  GLN69       0.0367
     66  CG        -6.5520    8.1150  -24.3830 C.3    69  GLN69       0.0905
     67  CD        -6.1140    7.1270  -23.3370 C.2    69  GLN69       0.2608
     68  OE1       -5.8180    5.9720  -23.6470 O.2    69  GLN69      -0.2717
     69  NE2       -6.0700    7.5700  -22.0840 N.am   69  GLN69      -0.0878
     70  N          6.5210   13.4590  -22.6450 N.3    91  THR91      -0.1218
     71  CA         6.7890   14.3550  -21.5300 C.3    91  THR91       0.1862
     72  C          8.2890   14.5400  -21.3110 C.2    91  THR91       0.2287
     73  O          8.8570   14.0340  -20.3440 O.2    91  THR91      -0.2866
     74  CB         6.0980   13.8610  -20.2370 C.3    91  THR91       0.1770
     75  OG1        6.3760   12.4690  -20.0400 O.3    91  THR91      -0.2211
     76  CG2        4.5840   14.0390  -20.3450 C.3    91  THR91       0.0375
     77  N         -6.7250   17.8860   -5.2210 N.3   142  HIS142     -0.1241
     78  CA        -7.9110   18.5190   -5.7890 C.3   142  HIS142      0.1621
     79  C         -8.7510   19.0640   -4.6510 C.2   142  HIS142      0.2264
     80  O         -8.3670   18.9870   -3.4820 O.2   142  HIS142     -0.2867
     81  CB        -8.7860   17.5320   -6.5680 C.3   142  HIS142      0.0745
     82  CG        -8.0290   16.4930   -7.3360 C.ar  142  HIS142      0.0817
     83  ND1       -7.2400   15.5400   -6.7260 N.ar  142  HIS142     -0.2268
     84  CD2       -7.9850   16.2240   -8.6620 C.ar  142  HIS142      0.1154
     85  CE1       -6.7200   14.7480   -7.6460 C.ar  142  HIS142      0.1986
     86  NE2       -7.1590   15.1410   -8.8280 N.ar  142  HIS142     -0.2212
     87  N        -11.0470   15.3910   -4.0810 N.3   145  LEU145     -0.1245
     88  CA       -10.2230   14.1900   -4.0580 C.3   145  LEU145      0.1561
     89  C         -9.0350   14.3040   -3.1100 C.2   145  LEU145      0.2260
     90  O         -8.5770   15.4010   -2.7840 O.2   145  LEU145     -0.2867
     91  CB        -9.7520   13.8290   -5.4660 C.3   145  LEU145      0.0270
     92  CG       -10.8530   13.3170   -6.3930 C.3   145  LEU145      0.0019
     93  CD1      -10.2930   13.0650   -7.7740 C.3   145  LEU145      0.0001
     94  CD2      -11.4770   12.0520   -5.8290 C.3   145  LEU145      0.0001
     95  N         -2.5190   12.9640   -3.9950 N.3   148  MET148     -0.1245
     96  CA        -1.8810   11.9010   -4.7550 C.3   148  MET148      0.1570
     97  C         -0.4450   12.2630   -5.1160 C.2   148  MET148      0.2261
     98  O         -0.1400   13.4170   -5.4180 O.2   148  MET148     -0.2867
     99  CB        -2.6890   11.5870   -6.0070 C.3   148  MET148      0.0387
    100  CG        -4.1310   11.1960   -5.6980 C.3   148  MET148      0.0595
    101  SD        -4.9550   10.4510   -7.1030 S.3   148  MET148     -0.1393
    102  CE        -4.0070    8.9420   -7.2940 C.3   148  MET148      0.0692
    103  N          5.3040    9.8810  -15.2520 N.3   154  THR154     -0.1203
    104  CA         4.4050   11.0230  -15.2290 C.3   154  THR154      0.1994
    105  C          5.1250   12.2620  -15.7510 C.2   154  THR154      0.2618
    106  O          6.3550   12.2840  -15.8370 O.2   154  THR154     -0.2717
    107  CB         3.9100   11.2970  -13.8080 C.3   154  THR154      0.1784
    108  OG1        5.0370   11.3950  -12.9260 O.3   154  THR154     -0.2211
    109  CG2        3.0050   10.1720  -13.3360 C.3   154  THR154      0.0376
    110  N          4.3630   13.2900  -16.1120 N.am  155  ALA155     -0.1965
    111  CA         4.9590   14.5630  -16.4980 C.3   155  ALA155      0.1728
    112  C          5.7130   15.1350  -15.3050 C.2   155  ALA155      0.2616
    113  O          6.8110   15.6800  -15.4520 O.2   155  ALA155     -0.2715
    114  CB         3.8950   15.5400  -16.9800 C.3   155  ALA155      0.0334
    115  N          5.1220   15.0030  -14.1200 N.am  156  ALA156     -0.1977
    116  CA         5.7850   15.4490  -12.8960 C.3   156  ALA156      0.1597
    117  C          7.1590   14.8020  -12.7780 C.2   156  ALA156      0.2287
    118  O          8.1680   15.4940  -12.6970 O.2   156  ALA156     -0.2864
    119  CB         4.9400   15.1290  -11.6700 C.3   156  ALA156      0.0319
    120  N          2.3540    6.2670  -12.6910 N.3   174  ARG174     -0.1231
    121  CA         1.1380    7.0550  -12.5540 C.3   174  ARG174      0.1694
    122  C          1.0790    7.7250  -11.1890 C.2   174  ARG174      0.2592
    123  O          2.1000    8.1310  -10.6320 O.2   174  ARG174     -0.2718
    124  CB        -0.0990    6.1800  -12.7420 C.3   174  ARG174      0.0321
    125  CG        -0.0970    5.3720  -14.0180 C.3   174  ARG174      0.0489
    126  CD         0.0670    6.2610  -15.2300 C.3   174  ARG174      0.2205
    127  NE        -0.8750    5.8980  -16.2810 N.pl3 174  ARG174     -0.0865
    128  CZ        -0.7180    4.8640  -17.0980 C.cat 174  ARG174      0.5346
    129  NH1        0.3500    4.0830  -16.9850 N.pl3 174  ARG174      0.1354
    130  NH2       -1.6320    4.6100  -18.0270 N.pl3 174  ARG174      0.1354
    131  N         -0.1320    7.8240  -10.6550 N.am  175  TYR175     -0.1976
    132  CA        -0.3640    8.4520   -9.3660 C.3   175  TYR175      0.1639
    133  C         -0.9790    7.4530   -8.3950 C.2   175  TYR175      0.2290
    134  O         -1.7050    6.5480   -8.7990 O.2   175  TYR175     -0.2864
    135  CB        -1.2770    9.6790   -9.5310 C.3   175  TYR175      0.0560
    136  CG        -0.5640   10.8920  -10.0980 C.ar  175  TYR175     -0.0198
    137  CD1       -0.1330   10.9170  -11.4180 C.ar  175  TYR175     -0.0009
    138  CD2       -0.3140   12.0080   -9.3090 C.ar  175  TYR175     -0.0009
    139  CE1        0.5260   12.0120  -11.9370 C.ar  175  TYR175      0.0417
    140  CE2        0.3510   13.1100   -9.8190 C.ar  175  TYR175      0.0417
    141  CZ         0.7690   13.1040  -11.1350 C.ar  175  TYR175      0.1957
    142  OH         1.4300   14.1960  -11.6500 O.3   175  TYR175     -0.2866
    143  N         -0.3350   24.5390  -12.2750 N.3   229  ASP229     -0.1225
    144  CA        -0.6480   23.1600  -12.6500 C.3   229  ASP229      0.1805
    145  C         -0.1880   22.8140  -14.0600 C.2   229  ASP229      0.2597
    146  O          0.6950   21.9810  -14.2450 O.2   229  ASP229     -0.2718
    147  CB        -2.1570   22.9140  -12.5190 C.3   229  ASP229      0.1424
    148  CG        -2.7250   23.4830  -11.2270 C.2   229  ASP229      0.3668
    149  OD1       -3.1650   24.6560  -11.2330 O.co2 229  ASP229     -0.2456
    150  OD2       -2.7210   22.7620  -10.2040 O.co2 229  ASP229     -0.2456
    151  N         -0.7970   23.4540  -15.0530 N.am  230  MET230     -0.1979
    152  CA        -0.5200   23.1430  -16.4520 C.3   230  MET230      0.1605
    153  C          0.8660   23.5940  -16.9160 C.2   230  MET230      0.2287
    154  O          1.4770   22.9510  -17.7760 O.2   230  MET230     -0.2864
    155  CB        -1.6200   23.7110  -17.3520 C.3   230  MET230      0.0413
    156  CG        -2.9730   23.0060  -17.1720 C.3   230  MET230      0.0598
    157  SD        -2.8230   21.2600  -17.6050 S.3   230  MET230     -0.1393
    158  CE        -2.2060   21.4290  -19.2780 C.3   230  MET230      0.0692
    159  N          2.8670   20.6060  -15.6340 N.3   233  LEU233     -0.1245
    160  CA         2.5470   19.2780  -16.1420 C.3   233  LEU233      0.1561
    161  C          2.2160   19.2380  -17.6300 C.2   233  LEU233      0.2260
    162  O          2.0360   18.1670  -18.1950 O.2   233  LEU233     -0.2867
    163  CB         1.3730   18.6980  -15.3470 C.3   233  LEU233      0.0270
    164  CG         1.5350   18.6720  -13.8240 C.3   233  LEU233      0.0019
    165  CD1        0.1730   18.6160  -13.1520 C.3   233  LEU233      0.0001
    166  CD2        2.4200   17.5110  -13.3660 C.3   233  LEU233      0.0001
@<TRIPOS>BOND
     1    61    62    1
     2    62    63    1
     3    62    65    1
     4    63    64    2
     5    66    65    1
     6    66    67    1
     7    38    37    2
     8    40    41    1
     9    40    39    1
    10    68    67    2
    11    41    42    1
    12    67    69   am
    13    36    39    1
    14    36    37    1
    15    36    35    1
    16    37    43   am
    17    70    71    1
    18    56    57    2
    19    56    55    1
    20    26    25    2
    21    35    25   am
    22    25    24    1
    23    43    44    1
    24     1     2    1
    25    71    72    1
    26    71    74    1
    27    55    54    1
    28    55    58    1
    29    44    45    1
    30    44    47    1
    31    12    11    1
    32    54    45   am
    33    45    46    2
    34    72    73    2
    35    23    24    1
    36    24    27    1
    37    14    15    1
    38     9    10    2
    39     9     8    1
    40    48    47    1
    41    48    49    1
    42    16    15    1
    43    16    17    2
    44     7     8    1
    45     7     3   am
    46    76    74    1
    47    74    75    1
    48     2     3    1
    49     2     5    1
    50    58    59    1
    51    58    60    1
    52    11     8    1
    53    11    13    1
    54    15    18    1
    55     3     4    2
    56     6     5    1
    57    50    49    1
    58    50    51    2
    59    27    28    1
    60    53    51    1
    61   158   157    1
    62    51    52    1
    63    28    29   ar
    64    28    30   ar
    65    29    31   ar
    66    18    19    1
    67    30    32   ar
    68    21    20    2
    69    22    20   am
    70    31    33   ar
    71    20    19    1
    72   162   161    2
    73   130   128    1
    74    32    33   ar
    75    33    34    1
    76   154   153    2
    77   161   160    1
    78   157   156    1
    79   155   156    1
    80   155   152    1
    81   128   129    1
    82   128   127    2
    83   114   111    1
    84   153   152    1
    85   111   110    1
    86   111   112    1
    87   152   151    1
    88   127   126    1
    89   160   159    1
    90   160   163    1
    91   110   105   am
    92   106   105    2
    93   105   104    1
    94   113   112    2
    95   163   164    1
    96   112   115   am
    97   103   104    1
    98   126   125    1
    99   104   107    1
   100   151   145   am
   101   146   145    2
   102   115   116    1
   103   145   144    1
   104   125   124    1
   105   164   166    1
   106   164   165    1
   107   107   109    1
   108   107   108    1
   109   116   117    1
   110   116   119    1
   111   117   118    2
   112   124   121    1
   113   120   121    1
   114   144   147    1
   115   144   143    1
   116   121   122    1
   117   147   148    1
   118   139   137   ar
   119   139   141   ar
   120   142   141    1
   121   137   136   ar
   122   149   148   ar
   123   148   150   ar
   124   122   131   am
   125   122   123    2
   126   141   140   ar
   127   131   132    1
   128   136   135    1
   129   136   138   ar
   130   140   138   ar
   131   135   132    1
   132   132   133    1
   133    86    84   ar
   134    86    85   ar
   135   134   133    2
   136    84    82   ar
   137    93    92    1
   138    85    83   ar
   139    82    83   ar
   140    82    81    1
   141   102   101    1
   142   101   100    1
   143    81    78    1
   144    92    94    1
   145    92    91    1
   146    99   100    1
   147    99    96    1
   148    78    77    1
   149    78    79    1
   150    91    88    1
   151    98    97    2
   152    97    96    1
   153    96    95    1
   154    79    80    2
   155    87    88    1
   156    88    89    1
   157    89    90    2
