@<TRIPOS>MOLECULE
tmp/3nu1B00.pdb
 105 99 0 0 0
SMALL
GASTEIGER

@<TRIPOS>ATOM
      1  N        -13.0740   16.7280  -21.2150 N.3    45  TYR45      -0.1241
      2  CA       -11.7210   16.4730  -20.7420 C.3    45  TYR45       0.1605
      3  C        -10.9220   15.6180  -21.7270 C.2    45  TYR45       0.2264
      4  O        -11.3820   14.5600  -22.1730 O.2    45  TYR45      -0.2867
      5  CB       -11.7600   15.7960  -19.3760 C.3    45  TYR45       0.0534
      6  CG       -10.3910   15.4200  -18.8590 C.ar   45  TYR45      -0.0201
      7  CD1       -9.3830   16.3670  -18.7690 C.ar   45  TYR45      -0.0009
      8  CD2      -10.1140   14.1260  -18.4400 C.ar   45  TYR45      -0.0009
      9  CE1       -8.1340   16.0360  -18.2890 C.ar   45  TYR45       0.0417
     10  CE2       -8.8630   13.7880  -17.9490 C.ar   45  TYR45       0.0417
     11  CZ        -7.8780   14.7510  -17.8770 C.ar   45  TYR45       0.1957
     12  OH        -6.6300   14.4300  -17.3980 O.3    45  TYR45      -0.2866
     13  N          6.1550   15.3070   -5.3740 N.3   138  PHE138     -0.1241
     14  CA         5.0790   16.0970   -5.9430 C.3   138  PHE138      0.1605
     15  C          3.7250   15.5490   -5.5270 C.2   138  PHE138      0.2264
     16  O          3.4360   14.3640   -5.7040 O.2   138  PHE138     -0.2867
     17  CB         5.1690   16.1730   -7.4630 C.3   138  PHE138      0.0534
     18  CG         3.9890   16.8530   -8.0940 C.ar  138  PHE138     -0.0203
     19  CD1        3.8360   18.2300   -8.0040 C.ar  138  PHE138     -0.0042
     20  CD2        3.0250   16.1180   -8.7720 C.ar  138  PHE138     -0.0042
     21  CE1        2.7480   18.8630   -8.5820 C.ar  138  PHE138     -0.0003
     22  CE2        1.9270   16.7470   -9.3560 C.ar  138  PHE138     -0.0003
     23  CZ         1.7930   18.1190   -9.2620 C.ar  138  PHE138     -0.0000
     24  N         -0.4320   16.1480   -5.9000 N.3   140  MET140     -0.1245
     25  CA        -1.5970   16.7930   -6.4930 C.3   140  MET140      0.1570
     26  C         -2.7860   16.6800   -5.5530 C.2   140  MET140      0.2261
     27  O         -3.1790   15.5850   -5.1540 O.2   140  MET140     -0.2867
     28  CB        -1.9590   16.1800   -7.8440 C.3   140  MET140      0.0387
     29  CG        -3.1510   16.8620   -8.5130 C.3   140  MET140      0.0595
     30  SD        -2.8360   18.6060   -8.8530 S.3   140  MET140     -0.1393
     31  CE        -4.4560   19.1680   -9.3660 C.3   140  MET140      0.0692
     32  N         -6.7250   17.8860   -5.2210 N.3   142  HIS142     -0.1226
     33  CA        -7.9110   18.5190   -5.7890 C.3   142  HIS142      0.1752
     34  C         -8.7510   19.0640   -4.6510 C.2   142  HIS142      0.2596
     35  O         -8.3670   18.9870   -3.4820 O.2   142  HIS142     -0.2718
     36  CB        -8.7860   17.5320   -6.5680 C.3   142  HIS142      0.0759
     37  CG        -8.0290   16.4930   -7.3360 C.ar  142  HIS142      0.0818
     38  ND1       -7.2400   15.5400   -6.7260 N.ar  142  HIS142     -0.2268
     39  CD2       -7.9850   16.2240   -8.6620 C.ar  142  HIS142      0.1154
     40  CE1       -6.7200   14.7480   -7.6460 C.ar  142  HIS142      0.1986
     41  NE2       -7.1590   15.1410   -8.8280 N.ar  142  HIS142     -0.2212
     42  N         -9.9160   19.5930   -4.9980 N.am  143  GLY143     -0.1957
     43  CA       -10.8730   20.0100   -3.9950 C.3   143  GLY143      0.1869
     44  C        -11.4170   18.8110   -3.2410 C.2   143  GLY143      0.2309
     45  O        -11.1520   18.6420   -2.0480 O.2   143  GLY143     -0.2863
     46  N        -11.0470   15.3910   -4.0810 N.3   145  LEU145     -0.1245
     47  CA       -10.2230   14.1900   -4.0580 C.3   145  LEU145      0.1561
     48  C         -9.0350   14.3040   -3.1100 C.2   145  LEU145      0.2260
     49  O         -8.5770   15.4010   -2.7840 O.2   145  LEU145     -0.2867
     50  CB        -9.7520   13.8290   -5.4660 C.3   145  LEU145      0.0270
     51  CG       -10.8530   13.3170   -6.3930 C.3   145  LEU145      0.0019
     52  CD1      -10.2930   13.0650   -7.7740 C.3   145  LEU145      0.0001
     53  CD2      -11.4770   12.0520   -5.8290 C.3   145  LEU145      0.0001
     54  N         -2.5190   12.9640   -3.9950 N.3   148  MET148     -0.1245
     55  CA        -1.8810   11.9010   -4.7550 C.3   148  MET148      0.1570
     56  C         -0.4450   12.2630   -5.1160 C.2   148  MET148      0.2261
     57  O         -0.1400   13.4170   -5.4180 O.2   148  MET148     -0.2867
     58  CB        -2.6890   11.5870   -6.0070 C.3   148  MET148      0.0387
     59  CG        -4.1310   11.1960   -5.6980 C.3   148  MET148      0.0595
     60  SD        -4.9550   10.4510   -7.1030 S.3   148  MET148     -0.1393
     61  CE        -4.0070    8.9420   -7.2940 C.3   148  MET148      0.0692
     62  N         -0.1320    7.8240  -10.6550 N.3   175  TYR175     -0.1241
     63  CA        -0.3640    8.4520   -9.3660 C.3   175  TYR175      0.1605
     64  C         -0.9790    7.4530   -8.3950 C.2   175  TYR175      0.2264
     65  O         -1.7050    6.5480   -8.7990 O.2   175  TYR175     -0.2867
     66  CB        -1.2770    9.6790   -9.5310 C.3   175  TYR175      0.0534
     67  CG        -0.5640   10.8920  -10.0980 C.ar  175  TYR175     -0.0201
     68  CD1       -0.1330   10.9170  -11.4180 C.ar  175  TYR175     -0.0009
     69  CD2       -0.3140   12.0080   -9.3090 C.ar  175  TYR175     -0.0009
     70  CE1        0.5260   12.0120  -11.9370 C.ar  175  TYR175      0.0417
     71  CE2        0.3510   13.1100   -9.8190 C.ar  175  TYR175      0.0417
     72  CZ         0.7690   13.1040  -11.1350 C.ar  175  TYR175      0.1957
     73  OH         1.4300   14.1960  -11.6500 O.3   175  TYR175     -0.2866
     74  N         -3.6460   25.1470   -7.7710 N.3   196  ASP196     -0.1239
     75  CA        -4.9260   24.5340   -7.4270 C.3   196  ASP196      0.1674
     76  C         -4.8280   23.7200   -6.1400 C.2   196  ASP196      0.2266
     77  O         -5.7690   23.6770   -5.3470 O.2   196  ASP196     -0.2867
     78  CB        -5.4250   23.6460   -8.5730 C.3   196  ASP196      0.1410
     79  CG        -6.0370   24.4450   -9.7060 C.2   196  ASP196      0.3668
     80  OD1       -5.8700   25.6840   -9.7170 O.co2 196  ASP196     -0.2456
     81  OD2       -6.6830   23.8350  -10.5830 O.co2 196  ASP196     -0.2456
     82  N         -0.3350   24.5390  -12.2750 N.3   229  ASP229     -0.1225
     83  CA        -0.6480   23.1600  -12.6500 C.3   229  ASP229      0.1805
     84  C         -0.1880   22.8140  -14.0600 C.2   229  ASP229      0.2597
     85  O          0.6950   21.9810  -14.2450 O.2   229  ASP229     -0.2718
     86  CB        -2.1570   22.9140  -12.5190 C.3   229  ASP229      0.1424
     87  CG        -2.7250   23.4830  -11.2270 C.2   229  ASP229      0.3668
     88  OD1       -3.1650   24.6560  -11.2330 O.co2 229  ASP229     -0.2456
     89  OD2       -2.7210   22.7620  -10.2040 O.co2 229  ASP229     -0.2456
     90  N         -0.7970   23.4540  -15.0530 N.am  230  MET230     -0.1979
     91  CA        -0.5200   23.1430  -16.4520 C.3   230  MET230      0.1605
     92  C          0.8660   23.5940  -16.9160 C.2   230  MET230      0.2287
     93  O          1.4770   22.9510  -17.7760 O.2   230  MET230     -0.2864
     94  CB        -1.6200   23.7110  -17.3520 C.3   230  MET230      0.0413
     95  CG        -2.9730   23.0060  -17.1720 C.3   230  MET230      0.0598
     96  SD        -2.8230   21.2600  -17.6050 S.3   230  MET230     -0.1393
     97  CE        -2.2060   21.4290  -19.2780 C.3   230  MET230      0.0692
     98  N          2.8670   20.6060  -15.6340 N.3   233  LEU233     -0.1245
     99  CA         2.5470   19.2780  -16.1420 C.3   233  LEU233      0.1561
    100  C          2.2160   19.2380  -17.6300 C.2   233  LEU233      0.2260
    101  O          2.0360   18.1670  -18.1950 O.2   233  LEU233     -0.2867
    102  CB         1.3730   18.6980  -15.3470 C.3   233  LEU233      0.0270
    103  CG         1.5350   18.6720  -13.8240 C.3   233  LEU233      0.0019
    104  CD1        0.1730   18.6160  -13.1520 C.3   233  LEU233      0.0001
    105  CD2        2.4200   17.5110  -13.3660 C.3   233  LEU233      0.0001
@<TRIPOS>BOND
     1     4     3    2
     2     3     2    1
     3     1     2    1
     4     2     5    1
     5     5     6    1
     6    97    96    1
     7     6     7   ar
     8     6     8   ar
     9     7     9   ar
    10     8    10   ar
    11     9    11   ar
    12   101   100    2
    13    10    11   ar
    14    11    12    1
    15    93    92    2
    16   100    99    1
    17    96    95    1
    18    94    95    1
    19    94    91    1
    20    92    91    1
    21    91    90    1
    22    99    98    1
    23    99   102    1
    24   102   103    1
    25    90    84   am
    26    85    84    2
    27    84    83    1
    28   103   105    1
    29   103   104    1
    30    83    86    1
    31    83    82    1
    32    86    87    1
    33    70    68   ar
    34    70    72   ar
    35    73    72    1
    36    68    67   ar
    37    88    87   ar
    38    87    89   ar
    39    72    71   ar
    40    62    63    1
    41    81    79   ar
    42    67    66    1
    43    67    69   ar
    44    71    69   ar
    45    80    79   ar
    46    79    78    1
    47    66    63    1
    48    63    64    1
    49    31    30    1
    50    22    23   ar
    51    22    20   ar
    52    23    21   ar
    53    30    29    1
    54    41    39   ar
    55    41    40   ar
    56    65    64    2
    57    20    18   ar
    58    39    37   ar
    59    21    19   ar
    60    78    75    1
    61    29    28    1
    62    18    19   ar
    63    18    17    1
    64    28    25    1
    65    52    51    1
    66    74    75    1
    67    40    38   ar
    68    17    14    1
    69    75    76    1
    70    37    38   ar
    71    37    36    1
    72    61    60    1
    73    60    59    1
    74    36    33    1
    75    25    24    1
    76    25    26    1
    77    51    53    1
    78    51    50    1
    79    76    77    2
    80    58    59    1
    81    58    55    1
    82    14    15    1
    83    14    13    1
    84    33    32    1
    85    33    34    1
    86    16    15    2
    87    26    27    2
    88    50    47    1
    89    57    56    2
    90    56    55    1
    91    42    34   am
    92    42    43    1
    93    55    54    1
    94    34    35    2
    95    46    47    1
    96    47    48    1
    97    43    44    1
    98    44    45    2
    99    48    49    2
