@<TRIPOS>MOLECULE
tmp/3nuaB01.pdb
 173 162 0 0 0
SMALL
GASTEIGER

@<TRIPOS>ATOM
      1  N        -12.5610  -24.0260  -22.7960 N.3    14  LYS14      -0.1245
      2  CA       -12.6290  -25.4210  -22.3810 C.3    14  LYS14       0.1561
      3  C        -13.8830  -25.7440  -21.5880 C.2    14  LYS14       0.2260
      4  O        -14.4500  -26.8430  -21.7180 O.2    14  LYS14      -0.2867
      5  CB       -11.3800  -25.8040  -21.5690 C.3    14  LYS14       0.0271
      6  CG       -10.0670  -25.6960  -22.3570 C.3    14  LYS14       0.0035
      7  CD        -8.7980  -26.0440  -21.5270 C.3    14  LYS14       0.0206
      8  CE        -8.6000  -25.0870  -20.3330 C.3    14  LYS14       0.1093
      9  NZ        -8.2170  -23.6900  -20.7240 N.3    14  LYS14      -0.1314
     10  N         -4.8790  -32.2210  -18.6490 N.3    38  PHE38      -0.1241
     11  CA        -3.6560  -32.7280  -19.2760 C.3    38  PHE38       0.1605
     12  C         -3.4770  -32.2200  -20.6900 C.2    38  PHE38       0.2264
     13  O         -3.3220  -32.9930  -21.6340 O.2    38  PHE38      -0.2867
     14  CB        -3.6100  -34.2500  -19.1880 C.3    38  PHE38       0.0534
     15  CG        -3.7400  -34.7490  -17.7810 C.ar   38  PHE38      -0.0203
     16  CD1       -2.8310  -34.3640  -16.8040 C.ar   38  PHE38      -0.0042
     17  CD2       -4.7990  -35.5420  -17.4140 C.ar   38  PHE38      -0.0042
     18  CE1       -2.9790  -34.8000  -15.5020 C.ar   38  PHE38      -0.0003
     19  CE2       -4.9360  -36.0070  -16.1290 C.ar   38  PHE38      -0.0003
     20  CZ        -4.0420  -35.6350  -15.1640 C.ar   38  PHE38      -0.0000
     21  N         -2.6220  -16.5730  -14.9020 N.3    93  GLU93      -0.1245
     22  CA        -3.3270  -17.3030  -13.8780 C.3    93  GLU93       0.1567
     23  C         -2.6220  -16.9470  -12.5750 C.2    93  GLU93       0.2260
     24  O         -1.3740  -16.9830  -12.4930 O.2    93  GLU93      -0.2867
     25  CB        -3.2290  -18.8090  -14.1340 C.3    93  GLU93       0.0388
     26  CG        -3.5700  -19.2530  -15.5600 C.3    93  GLU93       0.1160
     27  CD        -5.0240  -19.0180  -15.9480 C.2    93  GLU93       0.3649
     28  OE1       -5.7560  -20.0000  -16.1820 O.co2  93  GLU93      -0.2457
     29  OE2       -5.4390  -17.8540  -16.0680 O.co2  93  GLU93      -0.2457
     30  N         -2.1680  -18.1190   -8.9010 N.3    95  ILE95      -0.1245
     31  CA        -2.4130  -19.3420   -8.1380 C.3    95  ILE95       0.1561
     32  C         -1.9540  -19.1350   -6.7100 C.2    95  ILE95       0.2260
     33  O         -0.8570  -18.6130   -6.4590 O.2    95  ILE95      -0.2867
     34  CB        -1.6810  -20.5320   -8.7900 C.3    95  ILE95       0.0252
     35  CG1       -2.3260  -20.8730  -10.1300 C.3    95  ILE95       0.0019
     36  CG2       -1.5730  -21.7160   -7.8470 C.3    95  ILE95       0.0019
     37  CD1       -1.4820  -21.7380  -11.0330 C.3    95  ILE95       0.0001
     38  N         -1.3000  -21.2620   -3.1740 N.3    97  ARG97      -0.1245
     39  CA        -1.2050  -22.5960   -2.5710 C.3    97  ARG97       0.1563
     40  C         -1.0310  -22.4430   -1.0700 C.2    97  ARG97       0.2260
     41  O         -0.0350  -21.8940   -0.5920 O.2    97  ARG97      -0.2867
     42  CB        -0.0580  -23.4210   -3.1490 C.3    97  ARG97       0.0307
     43  CG        -0.0350  -23.5140   -4.6440 C.3    97  ARG97       0.0489
     44  CD         1.1510  -24.3360   -5.1730 C.3    97  ARG97       0.2205
     45  NE         1.1930  -24.2150   -6.6280 N.pl3  97  ARG97      -0.0865
     46  CZ         0.5140  -25.0040   -7.4500 C.cat  97  ARG97       0.5346
     47  NH1       -0.2000  -26.0310   -6.9680 N.pl3  97  ARG97       0.1354
     48  NH2        0.5720  -24.8070   -8.7520 N.pl3  97  ARG97       0.1354
     49  N          0.3810  -29.4550   -3.5140 N.3   101  ALA101     -0.1231
     50  CA        -0.3370  -30.5690   -4.1270 C.3   101  ALA101      0.1694
     51  C         -0.0990  -30.5400   -5.6160 C.2   101  ALA101      0.2593
     52  O          0.5180  -29.5980   -6.1430 O.2   101  ALA101     -0.2718
     53  CB        -1.8230  -30.5310   -3.7980 C.3   101  ALA101      0.0304
     54  N         -0.5680  -31.5910   -6.2770 N.am  102  GLY102     -0.1942
     55  CA        -0.5060  -31.7080   -7.7200 C.3   102  GLY102      0.2014
     56  C          0.8850  -31.7010   -8.3280 C.2   102  GLY102      0.2640
     57  O          1.8970  -32.0650   -7.7090 O.2   102  GLY102     -0.2714
     58  N          0.9290  -31.2650   -9.5770 N.am  103  SER103     -0.1935
     59  CA         2.1840  -31.1440  -10.3010 C.3   103  SER103      0.2055
     60  C          3.2420  -30.3450   -9.5240 C.2   103  SER103      0.2642
     61  O          4.4270  -30.6630   -9.5770 O.2   103  SER103     -0.2714
     62  CB         1.9350  -30.4940  -11.6660 C.3   103  SER103      0.2130
     63  OG         1.6230  -29.1170  -11.5250 O.3   103  SER103     -0.2179
     64  N          2.8180  -29.2900   -8.8290 N.am  104  MET104     -0.1976
     65  CA         3.7300  -28.4670   -8.0090 C.3   104  MET104      0.1605
     66  C          4.5170  -29.2430   -6.8590 C.2   104  MET104      0.2287
     67  O          5.7640  -29.1460   -6.6620 O.2   104  MET104     -0.2864
     68  CB         2.9490  -27.3170   -7.4170 C.3   104  MET104      0.0413
     69  CG         3.8070  -26.4650   -6.4760 C.3   104  MET104      0.0598
     70  SD         3.7100  -26.9020   -4.7320 S.3   104  MET104     -0.1393
     71  CE         4.4230  -25.3380   -3.8250 C.3   104  MET104      0.0692
     72  N          1.0580  -18.2120  -13.6270 N.3   124  SER124     -0.1217
     73  CA         1.1860  -19.0540  -14.7900 C.3   124  SER124      0.1889
     74  C          0.8260  -18.1590  -15.9800 C.2   124  SER124      0.2288
     75  O         -0.1530  -17.4470  -15.9220 O.2   124  SER124     -0.2866
     76  CB         0.2420  -20.2450  -14.6390 C.3   124  SER124      0.2089
     77  OG         0.0310  -20.9140  -15.8400 O.3   124  SER124     -0.2183
     78  N         -2.2120  -21.5440  -23.4570 N.3   128  ASP128     -0.1239
     79  CA        -2.3990  -22.9940  -23.3740 C.3   128  ASP128      0.1674
     80  C         -1.4340  -23.7240  -24.3290 C.2   128  ASP128      0.2266
     81  O         -1.0180  -24.8510  -24.0550 O.2   128  ASP128     -0.2867
     82  CB        -3.8830  -23.4030  -23.5860 C.3   128  ASP128      0.1410
     83  CG        -4.7980  -22.9680  -22.4250 C.2   128  ASP128      0.3668
     84  OD1       -4.3080  -22.3950  -21.4290 O.co2 128  ASP128     -0.2456
     85  OD2       -6.0230  -23.2080  -22.5010 O.co2 128  ASP128     -0.2456
     86  N          0.7770  -23.1540  -20.3550 N.3   132  ASP132     -0.1239
     87  CA         0.5440  -22.2840  -19.1910 C.3   132  ASP132      0.1674
     88  C          1.7190  -22.3440  -18.2310 C.2   132  ASP132      0.2266
     89  O          1.5600  -22.7160  -17.0590 O.2   132  ASP132     -0.2867
     90  CB        -0.7430  -22.6940  -18.4560 C.3   132  ASP132      0.1410
     91  CG        -1.9620  -22.7010  -19.3710 C.2   132  ASP132      0.3668
     92  OD1       -2.1080  -21.7520  -20.1580 O.co2 132  ASP132     -0.2456
     93  OD2       -2.7720  -23.6690  -19.3190 O.co2 132  ASP132     -0.2456
     94  N         -5.4980  -25.1520   -2.6410 N.3   178  ASP178     -0.1225
     95  CA        -4.9480  -24.2130   -3.6160 C.3   178  ASP178      0.1805
     96  C         -6.0880  -23.7530   -4.5010 C.2   178  ASP178      0.2598
     97  O         -7.1920  -24.2950   -4.4280 O.2   178  ASP178     -0.2718
     98  CB        -3.7680  -24.8420   -4.4120 C.3   178  ASP178      0.1424
     99  CG        -4.1530  -26.0420   -5.2600 C.2   178  ASP178      0.3668
    100  OD1       -5.2630  -26.0570   -5.8160 O.co2 178  ASP178     -0.2456
    101  OD2       -3.3060  -26.9770   -5.3660 O.co2 178  ASP178     -0.2456
    102  N         -5.8510  -22.7120   -5.2970 N.am  179  PHE179     -0.1962
    103  CA        -6.8740  -22.2100   -6.2100 C.3   179  PHE179      0.1771
    104  C         -6.2400  -21.2680   -7.2090 C.2   179  PHE179      0.2619
    105  O         -5.1160  -20.7680   -7.0020 O.2   179  PHE179     -0.2715
    106  CB        -8.0480  -21.5280   -5.4800 C.3   179  PHE179      0.0574
    107  CG        -7.6840  -20.3360   -4.6470 C.ar  179  PHE179     -0.0200
    108  CD1       -7.7410  -19.0680   -5.2010 C.ar  179  PHE179     -0.0042
    109  CD2       -7.3020  -20.4560   -3.3200 C.ar  179  PHE179     -0.0042
    110  CE1       -7.4690  -17.9250   -4.4170 C.ar  179  PHE179     -0.0003
    111  CE2       -7.0110  -19.3420   -2.5430 C.ar  179  PHE179     -0.0003
    112  CZ        -7.1010  -18.0780   -3.0860 C.ar  179  PHE179     -0.0000
    113  N         -6.9650  -21.0480   -8.2950 N.am  180  LYS180     -0.1977
    114  CA        -6.4990  -20.2040   -9.3760 C.3   180  LYS180      0.1596
    115  C         -7.5050  -19.0760   -9.6040 C.2   180  LYS180      0.2287
    116  O         -8.7130  -19.3150   -9.7530 O.2   180  LYS180     -0.2864
    117  CB        -6.3860  -21.0570  -10.6450 C.3   180  LYS180      0.0298
    118  CG        -5.8570  -20.2830  -11.8270 C.3   180  LYS180      0.0038
    119  CD        -6.9500  -19.5590  -12.5690 C.3   180  LYS180      0.0206
    120  CE        -7.7590  -20.5610  -13.3940 C.3   180  LYS180      0.1093
    121  NZ        -8.7060  -19.8660  -14.2810 N.3   180  LYS180     -0.1314
    122  N        -13.6780  -26.7280  -10.1810 N.3   199  ASP199     -0.1225
    123  CA       -12.8040  -26.8630  -11.3500 C.3   199  ASP199      0.1805
    124  C        -11.4930  -26.1040  -11.1480 C.2   199  ASP199      0.2598
    125  O        -10.5000  -26.4350  -11.7930 O.2   199  ASP199     -0.2718
    126  CB       -13.4400  -26.3580  -12.6400 C.3   199  ASP199      0.1424
    127  CG       -14.2760  -27.3980  -13.3630 C.2   199  ASP199      0.3668
    128  OD1      -14.6610  -28.4200  -12.7810 O.co2 199  ASP199     -0.2456
    129  OD2      -14.5280  -27.1600  -14.5730 O.co2 199  ASP199     -0.2456
    130  N        -11.5090  -25.0610  -10.3130 N.am  200  THR200     -0.1939
    131  CA       -10.3650  -24.1360  -10.2280 C.3   200  THR200      0.2028
    132  C         -9.7790  -24.0400   -8.8370 C.2   200  THR200      0.2642
    133  O         -8.8790  -23.2190   -8.5990 O.2   200  THR200     -0.2714
    134  CB       -10.7860  -22.7210  -10.6760 C.3   200  THR200      0.1808
    135  OG1      -11.8150  -22.2310   -9.8160 O.3   200  THR200     -0.2208
    136  CG2      -11.3150  -22.7560  -12.1090 C.3   200  THR200      0.0379
    137  N        -10.2180  -24.9220   -7.9350 N.am  201  CYS201     -0.1953
    138  CA        -9.6970  -25.0090   -6.5680 C.3   201  CYS201      0.1843
    139  C         -9.4590  -26.4690   -6.2380 C.2   201  CYS201      0.2625
    140  O        -10.0940  -27.3560   -6.8210 O.2   201  CYS201     -0.2714
    141  CB       -10.7340  -24.5120   -5.5510 C.3   201  CYS201      0.0997
    142  SG       -11.3310  -22.8260   -5.8030 S.3   201  CYS201     -0.0797
    143  N         -8.6120  -26.6960   -5.2440 N.am  202  ARG202     -0.1977
    144  CA        -8.5490  -28.0050   -4.5900 C.3   202  ARG202      0.1597
    145  C         -9.1770  -27.8880   -3.2100 C.2   202  ARG202      0.2287
    146  O         -8.8090  -26.9970   -2.4170 O.2   202  ARG202     -0.2864
    147  CB        -7.1100  -28.5260   -4.4810 C.3   202  ARG202      0.0334
    148  CG        -6.5850  -29.1150   -5.7640 C.3   202  ARG202      0.0492
    149  CD        -5.2060  -29.7480   -5.5730 C.3   202  ARG202      0.2205
    150  NE        -4.8210  -30.4150   -6.8050 N.pl3 202  ARG202     -0.0865
    151  CZ        -4.0080  -29.9300   -7.7210 C.cat 202  ARG202      0.5346
    152  NH1       -3.4080  -28.7600   -7.5290 N.pl3 202  ARG202      0.1354
    153  NH2       -3.8020  -30.6200   -8.8480 N.pl3 202  ARG202      0.1354
    154  N        -12.1070  -31.1980   -8.9330 N.3   214  LYS214     -0.1245
    155  CA       -11.8040  -31.7190  -10.2460 C.3   214  LYS214      0.1561
    156  C        -10.7380  -32.8120  -10.2310 C.2   214  LYS214      0.2260
    157  O        -10.6220  -33.5720  -11.2050 O.2   214  LYS214     -0.2867
    158  CB       -11.3960  -30.5420  -11.1580 C.3   214  LYS214      0.0271
    159  CG       -11.1470  -30.9280  -12.6180 C.3   214  LYS214      0.0035
    160  CD       -10.9530  -29.6850  -13.4860 C.3   214  LYS214      0.0206
    161  CE       -10.3540  -30.0620  -14.8380 C.3   214  LYS214      0.1093
    162  NZ       -10.1870  -28.8220  -15.6800 N.3   214  LYS214     -0.1314
    163  N         -9.5970  -35.7880  -12.7970 N.3   218  ARG218     -0.1245
    164  CA        -8.2400  -35.9290  -13.3360 C.3   218  ARG218      0.1563
    165  C         -7.6790  -37.2990  -13.0410 C.2   218  ARG218      0.2260
    166  O         -6.8890  -37.8180  -13.8360 O.2   218  ARG218     -0.2867
    167  CB        -7.2970  -34.8780  -12.7450 C.3   218  ARG218      0.0307
    168  CG        -7.6970  -33.4350  -13.1160 C.3   218  ARG218      0.0489
    169  CD        -6.6120  -32.4730  -12.6340 C.3   218  ARG218      0.2205
    170  NE        -6.9340  -31.0580  -12.8620 N.pl3 218  ARG218     -0.0865
    171  CZ        -7.3970  -30.2280  -11.9340 C.cat 218  ARG218      0.5346
    172  NH1       -7.6710  -28.9680  -12.2600 N.pl3 218  ARG218      0.1354
    173  NH2       -7.5700  -30.6230  -10.6860 N.pl3 218  ARG218      0.1354
@<TRIPOS>BOND
     1    80    81    2
     2    80    79    1
     3    82    79    1
     4    82    83    1
     5    78    79    1
     6     1     2    1
     7    85    83   ar
     8    83    84   ar
     9     2     3    1
    10     2     5    1
    11     6     5    1
    12     6     7    1
    13     4     3    2
    14    13    12    2
    15     7     8    1
    16     9     8    1
    17    12    11    1
    18    86    87    1
    19    92    91   ar
    20    91    93   ar
    21    91    90    1
    22    11    14    1
    23    11    10    1
    24    87    90    1
    25    87    88    1
    26    14    15    1
    27    88    89    2
    28    15    17   ar
    29    15    16   ar
    30    17    19   ar
    31    16    18   ar
    32    28    27   ar
    33    19    20   ar
    34    29    27   ar
    35    74    75    2
    36    74    73    1
    37    27    26    1
    38    77    76    1
    39   162   161    1
    40    26    25    1
    41    18    20   ar
    42    21    22    1
    43   161   160    1
    44    73    76    1
    45    73    72    1
    46   129   127   ar
    47   121   120    1
    48    25    22    1
    49    22    23    1
    50   166   165    2
    51   160   159    1
    52   120   119    1
    53   127   128   ar
    54   127   126    1
    55   164   165    1
    56   164   163    1
    57   164   167    1
    58   168   167    1
    59   168   169    1
    60   170   169    1
    61   170   171    2
    62   126   123    1
    63   159   158    1
    64    23    24    2
    65   119   118    1
    66   172   171    1
    67   136   134    1
    68   171   173    1
    69   118   117    1
    70   125   124    2
    71    62    63    1
    72    62    59    1
    73   123   124    1
    74   123   122    1
    75   157   156    2
    76   158   155    1
    77   124   130   am
    78    37    35    1
    79   134   131    1
    80   134   135    1
    81   117   114    1
    82   130   131    1
    83    59    58    1
    84    59    60    1
    85   155   156    1
    86   155   154    1
    87   131   132    1
    88    35    34    1
    89   116   115    2
    90   115   114    1
    91    58    56   am
    92    61    60    2
    93    60    64   am
    94   114   113    1
    95    30    31    1
    96   153   151    1
    97   132   133    2
    98   132   137   am
    99    64    65    1
   100    34    31    1
   101    34    36    1
   102    48    46    1
   103    56    55    1
   104    56    57    2
   105   113   104   am
   106    31    32    1
   107    65    68    1
   108    65    66    1
   109   137   138    1
   110   151   152    1
   111   151   150    2
   112    55    54    1
   113    46    47    1
   114    46    45    2
   115    68    69    1
   116   104   105    2
   117   104   103    1
   118    66    67    2
   119   140   139    2
   120   150   149    1
   121    32    33    2
   122    45    44    1
   123   138   139    1
   124   138   141    1
   125    69    70    1
   126    54    51   am
   127   139   143   am
   128   103   106    1
   129   103   102    1
   130    52    51    2
   131   100    99   ar
   132   142   141    1
   133   148   149    1
   134   148   147    1
   135    51    50    1
   136   106   107    1
   137   101    99   ar
   138   102    96   am
   139    99    98    1
   140   143   144    1
   141   108   107   ar
   142   108   110   ar
   143    44    43    1
   144    70    71    1
   145   107   109   ar
   146    43    42    1
   147   144   147    1
   148   144   145    1
   149    96    97    2
   150    96    95    1
   151   110   112   ar
   152    98    95    1
   153    50    53    1
   154    50    49    1
   155    95    94    1
   156   109   111   ar
   157   145   146    2
   158    38    39    1
   159    42    39    1
   160   112   111   ar
   161    39    40    1
   162    40    41    2
