@<TRIPOS>MOLECULE
tmp/3nuaA01.pdb
 150 139 0 0 0
SMALL
GASTEIGER

@<TRIPOS>ATOM
      1  N         29.8540  -31.6540  -11.1850 N.3    13  LYS13      -0.1245
      2  CA        29.9190  -31.8590  -12.6150 C.3    13  LYS13       0.1561
      3  C         31.1460  -31.2230  -13.2400 C.2    13  LYS13       0.2260
      4  O         31.6260  -31.7070  -14.2530 O.2    13  LYS13      -0.2867
      5  CB        28.6460  -31.3090  -13.2630 C.3    13  LYS13       0.0271
      6  CG        27.3580  -32.0440  -12.8210 C.3    13  LYS13       0.0035
      7  CD        26.0660  -31.4170  -13.4490 C.3    13  LYS13       0.0206
      8  CE        25.8770  -29.9490  -13.1010 C.3    13  LYS13       0.1093
      9  NZ        25.6030  -29.6620  -11.6520 N.3    13  LYS13      -0.1314
     10  N         20.0010  -21.5970   -7.5030 N.3    92  GLU92      -0.1245
     11  CA        20.7310  -20.9830   -8.5920 C.3    92  GLU92       0.1567
     12  C         20.0440  -19.6530   -8.8480 C.2    92  GLU92       0.2260
     13  O         18.8590  -19.6180   -9.1190 O.2    92  GLU92      -0.2867
     14  CB        20.6500  -21.8450   -9.8610 C.3    92  GLU92       0.0388
     15  CG        20.9200  -23.3320   -9.6540 C.3    92  GLU92       0.1160
     16  CD        22.3630  -23.6380   -9.4330 C.2    92  GLU92       0.3649
     17  OE1       22.9100  -24.5520  -10.0890 O.co2  92  GLU92      -0.2457
     18  OE2       22.9650  -22.9940   -8.5670 O.co2  92  GLU92      -0.2457
     19  N         19.5880  -16.6930  -11.1620 N.3    94  ILE94      -0.1245
     20  CA        19.8160  -16.4140  -12.5850 C.3    94  ILE94       0.1561
     21  C         19.3700  -14.9950  -12.9200 C.2    94  ILE94       0.2260
     22  O         18.2750  -14.5560  -12.5410 O.2    94  ILE94      -0.2867
     23  CB        19.1090  -17.4420  -13.4740 C.3    94  ILE94       0.0252
     24  CG1       19.8000  -18.8170  -13.2730 C.3    94  ILE94       0.0019
     25  CG2       19.1270  -17.0190  -14.9290 C.3    94  ILE94       0.0019
     26  CD1       18.9880  -20.0010  -13.7920 C.3    94  ILE94       0.0001
     27  N         18.7830  -12.4420  -16.1850 N.3    96  ARG96      -0.1245
     28  CA        18.6860  -12.3790  -17.6480 C.3    96  ARG96       0.1563
     29  C         18.5220  -10.9330  -18.0510 C.2    96  ARG96       0.2260
     30  O         17.5200  -10.3020  -17.7260 O.2    96  ARG96      -0.2867
     31  CB        17.5420  -13.2380  -18.2130 C.3    96  ARG96       0.0307
     32  CG        17.4850  -14.6560  -17.6690 C.3    96  ARG96       0.0489
     33  CD        16.2850  -15.4330  -18.2830 C.3    96  ARG96       0.2205
     34  NE        16.2390  -16.7580  -17.6740 N.pl3  96  ARG96      -0.0865
     35  CZ        16.9020  -17.8240  -18.1080 C.cat  96  ARG96       0.5346
     36  NH1       17.6110  -17.7780  -19.2410 N.pl3  96  ARG96       0.1354
     37  NH2       16.8390  -18.9530  -17.4030 N.pl3  96  ARG96       0.1354
     38  N         18.0750  -18.9070  -24.2680 N.3   101  GLY101     -0.1210
     39  CA        18.0630  -20.2250  -23.6380 C.3   101  GLY101      0.1956
     40  C         16.6830  -20.6370  -23.1420 C.2   101  GLY101      0.2612
     41  O         15.6960  -20.5780  -23.9000 O.2   101  GLY101     -0.2717
     42  N         16.5940  -21.0690  -21.8730 N.am  102  SER102     -0.1952
     43  CA        15.3790  -21.7210  -21.3940 C.3   102  SER102      0.1924
     44  C         14.2010  -20.7520  -21.2690 C.2   102  SER102      0.2314
     45  O         13.0450  -21.1410  -21.4910 O.2   102  SER102     -0.2863
     46  CB        15.6080  -22.4500  -20.0760 C.3   102  SER102      0.2116
     47  OG        15.7870  -21.5290  -19.0110 O.3   102  SER102     -0.2180
     48  N         16.4020  -21.0100   -9.6250 N.3   123  SER123     -0.1217
     49  CA        16.1880  -22.4420   -9.8000 C.3   123  SER123      0.1889
     50  C         16.5540  -23.1340   -8.4970 C.2   123  SER123      0.2288
     51  O         17.5050  -22.7600   -7.8050 O.2   123  SER123     -0.2866
     52  CB        17.0140  -22.9820  -10.9720 C.3   123  SER123      0.2089
     53  OG        16.2580  -22.8440  -12.1790 O.3   123  SER123     -0.2183
     54  N         18.3560  -25.7650   -6.4630 N.3   125  LYS125     -0.1245
     55  CA        19.5760  -26.5330   -6.7330 C.3   125  LYS125      0.1561
     56  C         19.3800  -27.9790   -6.2640 C.2   125  LYS125      0.2260
     57  O         19.7100  -28.3630   -5.1480 O.2   125  LYS125     -0.2867
     58  CB        20.8110  -25.8960   -6.0870 C.3   125  LYS125      0.0271
     59  CG        22.1140  -26.4770   -6.6910 C.3   125  LYS125      0.0035
     60  CD        23.3940  -25.7690   -6.2280 C.3   125  LYS125      0.0206
     61  CE        24.6670  -26.4890   -6.6910 C.3   125  LYS125      0.1093
     62  NZ        24.7650  -26.5090   -8.1860 N.3   125  LYS125     -0.1314
     63  N         16.7550  -29.1550  -11.4420 N.3   131  ASP131     -0.1239
     64  CA        16.9680  -27.7320  -11.1130 C.3   131  ASP131      0.1674
     65  C         15.7730  -26.8980  -11.5790 C.2   131  ASP131      0.2266
     66  O         15.9140  -25.9710  -12.3880 O.2   131  ASP131     -0.2867
     67  CB        18.2560  -27.2050  -11.7560 C.3   131  ASP131      0.1410
     68  CG        19.4960  -27.9470  -11.3020 C.2   131  ASP131      0.3668
     69  OD1       19.5610  -28.4240  -10.1530 O.co2 131  ASP131     -0.2456
     70  OD2       20.4350  -28.0250  -12.1100 O.co2 131  ASP131     -0.2456
     71  N         22.9980  -13.3940  -19.9650 N.3   177  ASP177     -0.1225
     72  CA        22.4220  -13.9830  -18.7580 C.3   177  ASP177      0.1805
     73  C         23.5310  -14.6550  -17.9880 C.2   177  ASP177      0.2598
     74  O         24.6560  -14.8120  -18.5120 O.2   177  ASP177     -0.2718
     75  CB        21.2140  -14.9110  -19.0610 C.3   177  ASP177      0.1424
     76  CG        21.5670  -16.0990  -19.9270 C.2   177  ASP177      0.3668
     77  OD1       22.6620  -16.6700  -19.7760 O.co2 177  ASP177     -0.2456
     78  OD2       20.7310  -16.4860  -20.7560 O.co2 177  ASP177     -0.2456
     79  N         23.2750  -15.0100  -16.7350 N.am  178  PHE178     -0.1962
     80  CA        24.2980  -15.7090  -15.9460 C.3   178  PHE178      0.1771
     81  C         23.6720  -16.2770  -14.6880 C.2   178  PHE178      0.2619
     82  O         22.5570  -15.8860  -14.3060 O.2   178  PHE178     -0.2715
     83  CB        25.4970  -14.8060  -15.6000 C.3   178  PHE178      0.0574
     84  CG        25.1430  -13.5540  -14.8170 C.ar  178  PHE178     -0.0200
     85  CD1       25.2160  -13.5240  -13.4340 C.ar  178  PHE178     -0.0042
     86  CD2       24.7440  -12.3840  -15.4850 C.ar  178  PHE178     -0.0042
     87  CE1       24.9140  -12.3800  -12.7060 C.ar  178  PHE178     -0.0003
     88  CE2       24.4490  -11.2070  -14.7610 C.ar  178  PHE178     -0.0003
     89  CZ        24.5360  -11.2030  -13.3720 C.ar  178  PHE178     -0.0000
     90  N         24.4010  -17.1940  -14.0510 N.am  179  LYS179     -0.1977
     91  CA        23.9120  -17.8660  -12.8760 C.3   179  LYS179      0.1596
     92  C         24.9050  -17.6570  -11.7380 C.2   179  LYS179      0.2287
     93  O         26.1190  -17.8390  -11.9300 O.2   179  LYS179     -0.2864
     94  CB        23.7720  -19.3530  -13.1870 C.3   179  LYS179      0.0298
     95  CG        23.2550  -20.1640  -12.0010 C.3   179  LYS179      0.0038
     96  CD        24.3250  -20.6100  -11.0510 C.3   179  LYS179      0.0206
     97  CE        25.1160  -21.7650  -11.6790 C.3   179  LYS179      0.1093
     98  NZ        26.0640  -22.3380  -10.7320 N.3   179  LYS179     -0.1314
     99  N         31.1190  -21.0960  -18.5040 N.3   198  ASP198     -0.1225
    100  CA        30.2150  -22.2120  -18.2030 C.3   198  ASP198      0.1805
    101  C         28.9330  -21.7460  -17.5490 C.2   198  ASP198      0.2598
    102  O         27.9220  -22.4700  -17.6190 O.2   198  ASP198     -0.2718
    103  CB        30.8440  -23.1870  -17.2230 C.3   198  ASP198      0.1424
    104  CG        31.6400  -24.3050  -17.9000 C.2   198  ASP198      0.3668
    105  OD1       32.0110  -24.1830  -19.0740 O.co2 198  ASP198     -0.2456
    106  OD2       31.9020  -25.3220  -17.2260 O.co2 198  ASP198     -0.2456
    107  N         28.9240  -20.5330  -16.9600 N.am  199  THR199     -0.1939
    108  CA        27.7960  -20.0920  -16.1420 C.3   199  THR199      0.2028
    109  C         27.1900  -18.7840  -16.6230 C.2   199  THR199      0.2642
    110  O         26.3400  -18.2260  -15.9450 O.2   199  THR199     -0.2714
    111  CB        28.2030  -19.9570  -14.6480 C.3   199  THR199      0.1808
    112  OG1       29.2400  -18.9740  -14.5120 O.3   199  THR199     -0.2208
    113  CG2       28.7410  -21.2930  -14.0980 C.3   199  THR199      0.0379
    114  N         27.6110  -18.3170  -17.7940 N.am  200  CYS200     -0.1953
    115  CA        27.1410  -17.0320  -18.3480 C.3   200  CYS200      0.1843
    116  C         26.9030  -17.2390  -19.8330 C.2   200  CYS200      0.2625
    117  O         27.4990  -18.1340  -20.4290 O.2   200  CYS200     -0.2714
    118  CB        28.2120  -15.9260  -18.2440 C.3   200  CYS200      0.0997
    119  SG        28.8010  -15.5350  -16.6030 S.3   200  CYS200     -0.0797
    120  N         26.0820  -16.3850  -20.4250 N.am  201  ARG201     -0.1977
    121  CA        26.0530  -16.2720  -21.8790 C.3   201  ARG201      0.1597
    122  C         26.6900  -14.9430  -22.2550 C.2   201  ARG201      0.2287
    123  O         26.3180  -13.8750  -21.7260 O.2   201  ARG201     -0.2864
    124  CB        24.6140  -16.3250  -22.4170 C.3   201  ARG201      0.0334
    125  CG        24.0870  -17.7450  -22.5630 C.3   201  ARG201      0.0492
    126  CD        22.7290  -17.7080  -23.2740 C.3   201  ARG201      0.2205
    127  NE        22.3290  -19.0930  -23.4590 N.pl3 201  ARG201     -0.0865
    128  CZ        21.5790  -19.8050  -22.6340 C.cat 201  ARG201      0.5346
    129  NH1       20.9150  -19.2380  -21.6270 N.pl3 201  ARG201      0.1354
    130  NH2       21.4330  -21.1000  -22.8940 N.pl3 201  ARG201      0.1354
    131  N         29.4470  -21.6200  -23.0680 N.3   213  LYS213     -0.1245
    132  CA        29.1440  -23.0490  -23.0940 C.3   213  LYS213      0.1561
    133  C         28.0430  -23.4140  -24.0900 C.2   213  LYS213      0.2260
    134  O         27.9070  -24.5860  -24.4330 O.2   213  LYS213     -0.2867
    135  CB        28.7440  -23.4750  -21.6730 C.3   213  LYS213      0.0271
    136  CG        28.5890  -24.9830  -21.4820 C.3   213  LYS213      0.0035
    137  CD        28.3960  -25.3000  -19.9880 C.3   213  LYS213      0.0206
    138  CE        27.6440  -26.5860  -19.8090 C.3   213  LYS213      0.1093
    139  NZ        27.5420  -26.8890  -18.3400 N.3   213  LYS213     -0.1314
    140  N         26.9690  -26.9500  -25.7940 N.3   217  ARG217     -0.1245
    141  CA        25.6030  -27.4540  -25.7370 C.3   217  ARG217      0.1563
    142  C         25.0150  -27.7240  -27.1060 C.2   217  ARG217      0.2260
    143  O         24.2720  -28.7020  -27.2900 O.2   217  ARG217     -0.2867
    144  CB        24.7020  -26.4480  -25.0180 C.3   217  ARG217      0.0307
    145  CG        24.9920  -26.2570  -23.5380 C.3   217  ARG217      0.0489
    146  CD        24.0380  -25.1820  -22.9630 C.3   217  ARG217      0.2205
    147  NE        24.3420  -24.8860  -21.5640 N.pl3 217  ARG217     -0.0865
    148  CZ        24.8030  -23.7240  -21.1220 C.cat 217  ARG217      0.5346
    149  NH1       25.0870  -23.5950  -19.8320 N.pl3 217  ARG217      0.1354
    150  NH2       24.9940  -22.7040  -21.9530 N.pl3 217  ARG217      0.1354
@<TRIPOS>BOND
     1   143   142    2
     2   142   141    1
     3   140   141    1
     4   141   144    1
     5   144   145    1
     6   134   133    2
     7    38    39    1
     8   133   132    1
     9    41    40    2
    10    39    40    1
    11   145   146    1
    12   127   126    1
    13   127   128    2
    14   126   125    1
    15    40    42   am
    16   132   131    1
    17   132   135    1
    18   146   147    1
    19   130   128    1
    20   128   129    1
    21   125   124    1
    22   124   121    1
    23   122   121    1
    24   122   123    2
    25   150   148    1
    26   121   120    1
    27    42    43    1
    28   135   136    1
    29   147   148    2
    30    45    44    2
    31   136   137    1
    32    43    44    1
    33    43    46    1
    34   148   149    1
    35    78    76   ar
    36   117   116    2
    37   120   116   am
    38    46    47    1
    39   137   138    1
    40    71    72    1
    41    76    77   ar
    42    76    75    1
    43   116   115    1
    44   138   139    1
    45    36    35    1
    46   105   104   ar
    47    75    72    1
    48    72    73    1
    49    74    73    2
    50    99   100    1
    51   115   118    1
    52   115   114    1
    53    33    34    1
    54    33    32    1
    55   118   119    1
    56    31    32    1
    57    31    28    1
    58   100   101    1
    59   100   103    1
    60    35    34    2
    61    35    37    1
    62    29    30    2
    63    29    28    1
    64    73    79   am
    65   104   106   ar
    66   104   103    1
    67   114   109   am
    68    28    27    1
    69   102   101    2
    70   101   107   am
    71   107   108    1
    72    79    80    1
    73   109   108    1
    74   109   110    2
    75   108   111    1
    76    80    83    1
    77    80    81    1
    78    83    84    1
    79    86    84   ar
    80    86    88   ar
    81    25    23    1
    82    84    85   ar
    83    88    89   ar
    84    81    82    2
    85    81    90   am
    86   111   112    1
    87   111   113    1
    88     4     3    2
    89    90    91    1
    90    26    24    1
    91    23    24    1
    92    23    20    1
    93     7     8    1
    94     7     6    1
    95    85    87   ar
    96    89    87   ar
    97     5     6    1
    98     5     2    1
    99     3     2    1
   100    94    91    1
   101    94    95    1
   102     8     9    1
   103    21    20    1
   104    21    22    2
   105    91    92    1
   106     2     1    1
   107    20    19    1
   108    66    65    2
   109    53    52    1
   110    70    68   ar
   111    95    96    1
   112    93    92    2
   113    67    68    1
   114    67    64    1
   115    97    96    1
   116    97    98    1
   117    65    64    1
   118    63    64    1
   119    68    69   ar
   120    52    49    1
   121    17    16   ar
   122    14    15    1
   123    14    11    1
   124    49    48    1
   125    49    50    1
   126    15    16    1
   127    16    18   ar
   128    13    12    2
   129    12    11    1
   130    11    10    1
   131    50    51    2
   132    62    61    1
   133    55    54    1
   134    55    56    1
   135    55    58    1
   136    59    60    1
   137    59    58    1
   138    61    60    1
   139    56    57    2
