@<TRIPOS>MOLECULE
tmp/3nuaB00.pdb
 167 155 0 0 0
SMALL
GASTEIGER

@<TRIPOS>ATOM
      1  N        -16.7510  -16.1390  -27.4990 N.3    11  TYR11      -0.1241
      2  CA       -15.6250  -17.0450  -27.2300 C.3    11  TYR11       0.1605
      3  C        -16.1510  -18.3250  -26.6220 C.2    11  TYR11       0.2264
      4  O        -17.0280  -18.2910  -25.7610 O.2    11  TYR11      -0.2867
      5  CB       -14.6500  -16.3780  -26.2490 C.3    11  TYR11       0.0534
      6  CG       -13.4770  -17.2270  -25.8580 C.ar   11  TYR11      -0.0201
      7  CD1      -12.3940  -17.3640  -26.7060 C.ar   11  TYR11      -0.0009
      8  CD2      -13.4350  -17.8850  -24.6370 C.ar   11  TYR11      -0.0009
      9  CE1      -11.3080  -18.1560  -26.3540 C.ar   11  TYR11       0.0417
     10  CE2      -12.3400  -18.6690  -24.2750 C.ar   11  TYR11       0.0417
     11  CZ       -11.2900  -18.8040  -25.1410 C.ar   11  TYR11       0.1957
     12  OH       -10.1930  -19.5830  -24.7850 O.3    11  TYR11      -0.2866
     13  N        -14.4300  -21.4870  -24.5940 N.3    13  GLY13      -0.1210
     14  CA       -13.2400  -22.0460  -23.9850 C.3    13  GLY13       0.1956
     15  C        -13.4460  -23.5130  -23.6420 C.2    13  GLY13       0.2612
     16  O        -14.4060  -24.1740  -24.1080 O.2    13  GLY13      -0.2717
     17  N        -12.5610  -24.0260  -22.7960 N.am   14  LYS14      -0.1965
     18  CA       -12.6290  -25.4210  -22.3810 C.3    14  LYS14       0.1728
     19  C        -13.8830  -25.7440  -21.5880 C.2    14  LYS14       0.2616
     20  O        -14.4500  -26.8430  -21.7180 O.2    14  LYS14      -0.2715
     21  CB       -11.3800  -25.8040  -21.5690 C.3    14  LYS14       0.0311
     22  CG       -10.0670  -25.6960  -22.3570 C.3    14  LYS14       0.0038
     23  CD        -8.7980  -26.0440  -21.5270 C.3    14  LYS14       0.0206
     24  CE        -8.6000  -25.0870  -20.3330 C.3    14  LYS14       0.1093
     25  NZ        -8.2170  -23.6900  -20.7240 N.3    14  LYS14      -0.1314
     26  N        -14.3340  -24.8110  -20.7550 N.am   15  ALA15      -0.1963
     27  CA       -15.4290  -25.0990  -19.8430 C.3    15  ALA15       0.1728
     28  C        -16.6280  -24.1440  -19.9520 C.2    15  ALA15       0.2616
     29  O        -17.7130  -24.4830  -19.5130 O.2    15  ALA15      -0.2715
     30  CB       -14.8880  -25.0550  -18.4340 C.3    15  ALA15       0.0334
     31  N        -16.4140  -22.9460  -20.4930 N.am   16  LYS16      -0.1977
     32  CA       -17.4900  -21.9570  -20.5650 C.3    16  LYS16       0.1596
     33  C        -17.5830  -21.3170  -21.9300 C.2    16  LYS16       0.2287
     34  O        -16.6310  -21.3500  -22.7150 O.2    16  LYS16      -0.2864
     35  CB       -17.2510  -20.8560  -19.5230 C.3    16  LYS16       0.0298
     36  CG       -17.3210  -21.3360  -18.0760 C.3    16  LYS16       0.0038
     37  CD       -15.9650  -21.4890  -17.4330 C.3    16  LYS16       0.0206
     38  CE       -15.4740  -20.0920  -16.9790 C.3    16  LYS16       0.1093
     39  NZ       -14.0660  -20.2920  -16.5770 N.3    16  LYS16      -0.1314
     40  N        -18.5920  -17.4730  -23.5610 N.3    18  ILE18      -0.1245
     41  CA       -18.8370  -16.0790  -23.2590 C.3    18  ILE18       0.1561
     42  C        -19.7060  -15.4960  -24.3610 C.2    18  ILE18       0.2260
     43  O        -19.3230  -15.5610  -25.5410 O.2    18  ILE18      -0.2867
     44  CB       -17.4950  -15.2710  -23.2290 C.3    18  ILE18       0.0252
     45  CG1      -16.4780  -15.8670  -22.2450 C.3    18  ILE18       0.0019
     46  CG2      -17.7710  -13.7970  -22.9420 C.3    18  ILE18       0.0019
     47  CD1      -16.9090  -15.8520  -20.7860 C.3    18  ILE18       0.0001
     48  N        -21.2260   -9.2530  -20.3140 N.3    27  VAL27      -0.1245
     49  CA       -21.2510  -10.5320  -20.9900 C.3    27  VAL27       0.1561
     50  C        -22.0470  -11.5410  -20.1720 C.2    27  VAL27       0.2260
     51  O        -22.2890  -11.3610  -18.9760 O.2    27  VAL27      -0.2867
     52  CB       -19.8440  -11.1100  -21.2520 C.3    27  VAL27       0.0252
     53  CG1      -19.1210  -10.2630  -22.3080 C.3    27  VAL27       0.0019
     54  CG2      -18.9950  -11.2270  -19.9330 C.3    27  VAL27       0.0019
     55  N        -21.7450  -15.4220  -18.9920 N.3    29  VAL29      -0.1245
     56  CA       -20.8230  -16.5530  -18.8750 C.3    29  VAL29       0.1561
     57  C        -21.7040  -17.8020  -18.7290 C.2    29  VAL29       0.2260
     58  O        -22.5280  -17.8790  -17.8360 O.2    29  VAL29      -0.2867
     59  CB       -19.8790  -16.4100  -17.6470 C.3    29  VAL29       0.0252
     60  CG1      -18.8780  -17.5840  -17.5780 C.3    29  VAL29       0.0019
     61  CG2      -19.1350  -15.0750  -17.7040 C.3    29  VAL29       0.0019
     62  N        -16.2000   -9.0580  -11.2750 N.3    72  HIS72      -0.1241
     63  CA       -17.0400   -8.9530  -12.4670 C.3    72  HIS72       0.1621
     64  C        -18.4910   -9.4100  -12.2590 C.2    72  HIS72       0.2264
     65  O        -19.3120   -9.2550  -13.1470 O.2    72  HIS72      -0.2867
     66  CB       -16.4370   -9.7390  -13.6380 C.3    72  HIS72       0.0745
     67  CG       -16.4940  -11.2320  -13.4860 C.ar   72  HIS72       0.0817
     68  ND1      -16.3580  -12.0590  -14.5710 N.ar   72  HIS72      -0.2268
     69  CD2      -16.6950  -12.0390  -12.4100 C.ar   72  HIS72       0.1154
     70  CE1      -16.4550  -13.3220  -14.1810 C.ar   72  HIS72       0.1986
     71  NE2      -16.6580  -13.3410  -12.8700 N.ar   72  HIS72      -0.2212
     72  N        -22.0560  -10.9360  -16.1270 N.3    84  CYS84      -0.1221
     73  CA       -20.8050  -10.3670  -15.6020 C.3    84  CYS84       0.1808
     74  C        -20.3970   -9.1470  -16.3840 C.2    84  CYS84       0.2601
     75  O        -20.7320   -9.0050  -17.5720 O.2    84  CYS84      -0.2717
     76  CB       -19.6510  -11.4090  -15.6730 C.3    84  CYS84       0.0970
     77  SG       -19.9130  -12.8390  -14.6120 S.3    84  CYS84      -0.0800
     78  N        -19.6500   -8.2790  -15.7170 N.am   85  LYS85      -0.1965
     79  CA       -18.9800   -7.1880  -16.4010 C.3    85  LYS85       0.1728
     80  C        -17.9770   -7.7680  -17.3780 C.2    85  LYS85       0.2616
     81  O        -17.2320   -8.7120  -17.0500 O.2    85  LYS85      -0.2715
     82  CB       -18.2790   -6.2790  -15.3810 C.3    85  LYS85       0.0311
     83  CG       -19.3100   -5.5630  -14.5100 C.3    85  LYS85       0.0038
     84  CD       -18.7370   -4.9240  -13.2690 C.3    85  LYS85       0.0206
     85  CE       -19.8380   -4.1500  -12.5610 C.3    85  LYS85       0.1093
     86  NZ       -19.4180   -3.3680  -11.3820 N.3    85  LYS85      -0.1314
     87  N        -17.9290   -7.1900  -18.5720 N.am   86  LYS86      -0.1963
     88  CA       -16.9770   -7.6190  -19.5790 C.3    86  LYS86       0.1728
     89  C        -15.6010   -7.0420  -19.2470 C.2    86  LYS86       0.2616
     90  O        -15.4590   -5.8330  -19.1560 O.2    86  LYS86      -0.2715
     91  CB       -17.4250   -7.1540  -20.9660 C.3    86  LYS86       0.0311
     92  CG       -16.5020   -7.6610  -22.0840 C.3    86  LYS86       0.0038
     93  CD       -16.9860   -7.1660  -23.4480 C.3    86  LYS86       0.0206
     94  CE       -16.3190   -7.9150  -24.5860 C.3    86  LYS86       0.1093
     95  NZ       -16.6140   -7.2690  -25.9020 N.3    86  LYS86      -0.1314
     96  N        -14.5960   -7.8860  -19.0350 N.am   87  VAL87      -0.1977
     97  CA       -13.2730   -7.3880  -18.6880 C.3    87  VAL87       0.1596
     98  C        -12.2580   -7.7460  -19.7410 C.2    87  VAL87       0.2287
     99  O        -12.4500   -8.6740  -20.5300 O.2    87  VAL87      -0.2864
    100  CB       -12.7710   -7.8970  -17.3010 C.3    87  VAL87       0.0276
    101  CG1      -13.8010   -7.6810  -16.2070 C.3    87  VAL87       0.0022
    102  CG2      -12.3790   -9.3810  -17.3620 C.3    87  VAL87       0.0022
    103  N         -9.0710   -9.4620  -19.8960 N.3    89  ILE89      -0.1245
    104  CA        -8.3640  -10.3560  -18.9900 C.3    89  ILE89       0.1561
    105  C         -6.8510  -10.1210  -19.0410 C.2    89  ILE89       0.2260
    106  O         -6.2620  -10.0240  -20.1240 O.2    89  ILE89      -0.2867
    107  CB        -8.7030  -11.8290  -19.3440 C.3    89  ILE89       0.0252
    108  CG1      -10.1860  -12.1020  -19.0470 C.3    89  ILE89       0.0019
    109  CG2       -7.7840  -12.8250  -18.5980 C.3    89  ILE89       0.0019
    110  CD1      -10.4670  -12.3010  -17.5870 C.3    89  ILE89       0.0001
    111  N         -2.6220  -16.5730  -14.9020 N.3    93  GLU93      -0.1245
    112  CA        -3.3270  -17.3030  -13.8780 C.3    93  GLU93       0.1567
    113  C         -2.6220  -16.9470  -12.5750 C.2    93  GLU93       0.2260
    114  O         -1.3740  -16.9830  -12.4930 O.2    93  GLU93      -0.2867
    115  CB        -3.2290  -18.8090  -14.1340 C.3    93  GLU93       0.0388
    116  CG        -3.5700  -19.2530  -15.5600 C.3    93  GLU93       0.1160
    117  CD        -5.0240  -19.0180  -15.9480 C.2    93  GLU93       0.3649
    118  OE1       -5.7560  -20.0000  -16.1820 O.co2  93  GLU93      -0.2457
    119  OE2       -5.4390  -17.8540  -16.0680 O.co2  93  GLU93      -0.2457
    120  N         -0.8860  -17.2540  -19.2160 N.3   126  LYS126     -0.1245
    121  CA        -2.0510  -17.7980  -19.8750 C.3   126  LYS126      0.1561
    122  C         -1.8270  -17.9780  -21.3470 C.2   126  LYS126      0.2260
    123  O         -2.1790  -17.1300  -22.1530 O.2   126  LYS126     -0.2867
    124  CB        -3.2090  -16.8360  -19.6900 C.3   126  LYS126      0.0271
    125  CG        -4.0380  -17.2050  -18.5730 C.3   126  LYS126      0.0035
    126  CD        -5.1420  -18.0460  -19.1270 C.3   126  LYS126      0.0206
    127  CE        -6.3450  -17.1750  -19.2870 C.3   126  LYS126      0.1093
    128  NZ        -7.4990  -18.0390  -19.6430 N.3   126  LYS126     -0.1314
    129  N         -2.2120  -21.5440  -23.4570 N.3   128  ASP128     -0.1239
    130  CA        -2.3990  -22.9940  -23.3740 C.3   128  ASP128      0.1674
    131  C         -1.4340  -23.7240  -24.3290 C.2   128  ASP128      0.2266
    132  O         -1.0180  -24.8510  -24.0550 O.2   128  ASP128     -0.2867
    133  CB        -3.8830  -23.4030  -23.5860 C.3   128  ASP128      0.1410
    134  CG        -4.7980  -22.9680  -22.4250 C.2   128  ASP128      0.3668
    135  OD1       -4.3080  -22.3950  -21.4290 O.co2 128  ASP128     -0.2456
    136  OD2       -6.0230  -23.2080  -22.5010 O.co2 128  ASP128     -0.2456
    137  N         -6.9650  -21.0480   -8.2950 N.3   180  LYS180     -0.1245
    138  CA        -6.4990  -20.2040   -9.3760 C.3   180  LYS180      0.1561
    139  C         -7.5050  -19.0760   -9.6040 C.2   180  LYS180      0.2260
    140  O         -8.7130  -19.3150   -9.7530 O.2   180  LYS180     -0.2867
    141  CB        -6.3860  -21.0570  -10.6450 C.3   180  LYS180      0.0271
    142  CG        -5.8570  -20.2830  -11.8270 C.3   180  LYS180      0.0035
    143  CD        -6.9500  -19.5590  -12.5690 C.3   180  LYS180      0.0206
    144  CE        -7.7590  -20.5610  -13.3940 C.3   180  LYS180      0.1093
    145  NZ        -8.7060  -19.8660  -14.2810 N.3   180  LYS180     -0.1314
    146  N         -8.3110  -15.3260  -11.9460 N.3   182  GLU182     -0.1245
    147  CA        -7.9890  -14.4220  -13.0420 C.3   182  GLU182      0.1567
    148  C         -8.5570  -13.0580  -12.7660 C.2   182  GLU182      0.2260
    149  O         -9.6080  -12.9280  -12.1410 O.2   182  GLU182     -0.2867
    150  CB        -8.5080  -14.8980  -14.3920 C.3   182  GLU182      0.0388
    151  CG        -7.9470  -16.2380  -14.8160 C.3   182  GLU182      0.1160
    152  CD        -8.4540  -16.7060  -16.1480 C.2   182  GLU182      0.3649
    153  OE1       -9.3200  -16.0230  -16.7520 O.co2 182  GLU182     -0.2457
    154  OE2       -8.0210  -17.8190  -16.5530 O.co2 182  GLU182     -0.2457
    155  N        -12.2120  -11.8060  -11.9190 N.3   193  ALA193     -0.1231
    156  CA       -13.0970  -12.2610  -12.9810 C.3   193  ALA193      0.1694
    157  C        -13.0980  -13.7990  -13.0340 C.2   193  ALA193      0.2592
    158  O        -12.7890  -14.4560  -12.0280 O.2   193  ALA193     -0.2718
    159  CB       -12.7040  -11.6440  -14.3230 C.3   193  ALA193      0.0304
    160  N        -13.5060  -14.3720  -14.1630 N.am  194  ASP194     -0.1974
    161  CA       -13.5290  -15.8200  -14.3420 C.3   194  ASP194      0.1709
    162  C        -14.3560  -16.5320  -13.2560 C.2   194  ASP194      0.2293
    163  O        -15.5090  -16.1490  -13.0310 O.2   194  ASP194     -0.2864
    164  CB       -12.1170  -16.3960  -14.5090 C.3   194  ASP194      0.1436
    165  CG       -12.1490  -17.7580  -15.1500 C.2   194  ASP194      0.3671
    166  OD1      -12.7460  -17.8680  -16.2290 O.co2 194  ASP194     -0.2456
    167  OD2      -11.5980  -18.7160  -14.5770 O.co2 194  ASP194     -0.2456
@<TRIPOS>BOND
     1     1     2    1
     2     2     3    1
     3     2     5    1
     4     7     9   ar
     5     7     6   ar
     6     3     4    2
     7     9    11   ar
     8     5     6    1
     9    95    94    1
    10     6     8   ar
    11    43    42    2
    12    11    12    1
    13    11    10   ar
    14     8    10   ar
    15    13    14    1
    16    94    93    1
    17    42    41    1
    18   131   132    2
    19   131   130    1
    20    16    15    2
    21    14    15    1
    22    15    17   am
    23   133   130    1
    24   133   134    1
    25    40    41    1
    26   129   130    1
    27    93    92    1
    28    41    44    1
    29    44    46    1
    30    44    45    1
    31    17    18    1
    32    34    33    2
    33   136   134   ar
    34   134   135   ar
    35    18    19    1
    36    18    21    1
    37    22    21    1
    38    22    23    1
    39    53    52    1
    40    45    47    1
    41   123   122    2
    42    92    91    1
    43    33    32    1
    44    20    19    2
    45    19    26   am
    46    23    24    1
    47   122   121    1
    48    52    49    1
    49    52    54    1
    50    49    48    1
    51    49    50    1
    52    91    88    1
    53    26    27    1
    54    25    24    1
    55    32    31    1
    56    32    35    1
    57    99    98    2
    58    31    28   am
    59    50    51    2
    60   106   105    2
    61    28    27    1
    62    28    29    2
    63   103   104    1
    64   121   124    1
    65   121   120    1
    66    27    30    1
    67    98    97    1
    68   124   125    1
    69   128   127    1
    70    88    89    1
    71    88    87    1
    72    35    36    1
    73   107   108    1
    74   107   104    1
    75   107   109    1
    76   127   126    1
    77    89    90    2
    78    89    96   am
    79   126   125    1
    80   108   110    1
    81   105   104    1
    82    96    97    1
    83    55    56    1
    84    56    57    1
    85    56    59    1
    86    57    58    2
    87    97   100    1
    88    87    80   am
    89    36    37    1
    90    61    59    1
    91    59    60    1
    92    75    74    2
    93    37    38    1
    94    80    81    2
    95    80    79    1
    96   102   100    1
    97   100   101    1
    98    38    39    1
    99   153   152   ar
   100   154   152   ar
   101    79    78    1
   102    79    82    1
   103    74    78   am
   104    74    73    1
   105   166   165   ar
   106   118   117   ar
   107   152   151    1
   108    72    73    1
   109   119   117   ar
   110   117   116    1
   111    76    73    1
   112    76    77    1
   113   116   115    1
   114    82    83    1
   115   165   167   ar
   116   165   164    1
   117   111   112    1
   118   151   150    1
   119    68    70   ar
   120    68    67   ar
   121    83    84    1
   122   164   161    1
   123   150   147    1
   124   161   160    1
   125   161   162    1
   126   159   156    1
   127   145   144    1
   128    70    71   ar
   129   160   157   am
   130   115   112    1
   131   112   113    1
   132    66    67    1
   133    66    63    1
   134    67    69   ar
   135   144   143    1
   136    84    85    1
   137   162   163    2
   138    65    64    2
   139   147   148    1
   140   147   146    1
   141   157   156    1
   142   157   158    2
   143   156   155    1
   144    71    69   ar
   145   148   149    2
   146   113   114    2
   147   143   142    1
   148    85    86    1
   149    63    64    1
   150    63    62    1
   151   142   141    1
   152   141   138    1
   153   140   139    2
   154   139   138    1
   155   138   137    1
