@<TRIPOS>MOLECULE
tmp/3nuaB02.pdb
 91 85 0 0 0
SMALL
GASTEIGER

@<TRIPOS>ATOM
      1  N        -12.5610  -24.0260  -22.7960 N.3    14  LYS14      -0.1245
      2  CA       -12.6290  -25.4210  -22.3810 C.3    14  LYS14       0.1561
      3  C        -13.8830  -25.7440  -21.5880 C.2    14  LYS14       0.2260
      4  O        -14.4500  -26.8430  -21.7180 O.2    14  LYS14      -0.2867
      5  CB       -11.3800  -25.8040  -21.5690 C.3    14  LYS14       0.0271
      6  CG       -10.0670  -25.6960  -22.3570 C.3    14  LYS14       0.0035
      7  CD        -8.7980  -26.0440  -21.5270 C.3    14  LYS14       0.0206
      8  CE        -8.6000  -25.0870  -20.3330 C.3    14  LYS14       0.1093
      9  NZ        -8.2170  -23.6900  -20.7240 N.3    14  LYS14      -0.1314
     10  N        -11.9380  -31.1540  -18.8500 N.3    36  THR36      -0.1203
     11  CA       -10.7250  -31.2810  -19.6370 C.3    36  THR36       0.1994
     12  C         -9.5450  -31.2910  -18.6810 C.2    36  THR36       0.2618
     13  O         -9.5720  -30.6370  -17.6410 O.2    36  THR36      -0.2717
     14  CB       -10.5630  -30.0990  -20.6060 C.3    36  THR36       0.1784
     15  OG1      -10.5730  -28.8810  -19.8610 O.3    36  THR36      -0.2211
     16  CG2      -11.6720  -30.0580  -21.6350 C.3    36  THR36       0.0376
     17  N         -8.5020  -32.0330  -19.0260 N.am   37  ALA37      -0.1965
     18  CA        -7.2560  -31.9590  -18.2760 C.3    37  ALA37       0.1728
     19  C         -6.0970  -32.4110  -19.1570 C.2    37  ALA37       0.2616
     20  O         -6.3110  -32.9280  -20.2640 O.2    37  ALA37      -0.2715
     21  CB        -7.3110  -32.7980  -16.9990 C.3    37  ALA37       0.0334
     22  N         -4.8790  -32.2210  -18.6490 N.am   38  PHE38      -0.1960
     23  CA        -3.6560  -32.7280  -19.2760 C.3    38  PHE38       0.1771
     24  C         -3.4770  -32.2200  -20.6900 C.2    38  PHE38       0.2620
     25  O         -3.3220  -32.9930  -21.6340 O.2    38  PHE38      -0.2715
     26  CB        -3.6100  -34.2500  -19.1880 C.3    38  PHE38       0.0574
     27  CG        -3.7400  -34.7490  -17.7810 C.ar   38  PHE38      -0.0200
     28  CD1       -2.8310  -34.3640  -16.8040 C.ar   38  PHE38      -0.0042
     29  CD2       -4.7990  -35.5420  -17.4140 C.ar   38  PHE38      -0.0042
     30  CE1       -2.9790  -34.8000  -15.5020 C.ar   38  PHE38      -0.0003
     31  CE2       -4.9360  -36.0070  -16.1290 C.ar   38  PHE38      -0.0003
     32  CZ        -4.0420  -35.6350  -15.1640 C.ar   38  PHE38      -0.0000
     33  N         -3.4800  -30.8860  -20.8190 N.am   39  ASN39      -0.1958
     34  CA        -3.1990  -30.2380  -22.0900 C.3    39  ASN39       0.1819
     35  C         -4.1110  -30.7640  -23.1900 C.2    39  ASN39       0.2621
     36  O         -3.6860  -30.9760  -24.3330 O.2    39  ASN39      -0.2715
     37  CB        -1.7190  -30.4140  -22.4770 C.3    39  ASN39       0.1195
     38  CG        -0.7640  -29.8160  -21.4410 C.2    39  ASN39       0.2630
     39  OD1       -0.9100  -28.6660  -21.0200 O.2    39  ASN39      -0.2716
     40  ND2        0.2040  -30.6110  -21.0150 N.am   39  ASN39      -0.0877
     41  N         -5.3690  -30.9780  -22.8270 N.am   40  GLY40      -0.1954
     42  CA        -6.3700  -31.4130  -23.7750 C.3    40  GLY40       0.1869
     43  C         -6.4290  -32.9050  -24.0290 C.2    40  GLY40       0.2309
     44  O         -7.2010  -33.3550  -24.8550 O.2    40  GLY40      -0.2863
     45  N          0.7770  -23.1540  -20.3550 N.3   132  ASP132     -0.1239
     46  CA         0.5440  -22.2840  -19.1910 C.3   132  ASP132      0.1674
     47  C          1.7190  -22.3440  -18.2310 C.2   132  ASP132      0.2266
     48  O          1.5600  -22.7160  -17.0590 O.2   132  ASP132     -0.2867
     49  CB        -0.7430  -22.6940  -18.4560 C.3   132  ASP132      0.1410
     50  CG        -1.9620  -22.7010  -19.3710 C.2   132  ASP132      0.3668
     51  OD1       -2.1080  -21.7520  -20.1580 O.co2 132  ASP132     -0.2456
     52  OD2       -2.7720  -23.6690  -19.3190 O.co2 132  ASP132     -0.2456
     53  N        -13.6780  -26.7280  -10.1810 N.3   199  ASP199     -0.1239
     54  CA       -12.8040  -26.8630  -11.3500 C.3   199  ASP199      0.1674
     55  C        -11.4930  -26.1040  -11.1480 C.2   199  ASP199      0.2266
     56  O        -10.5000  -26.4350  -11.7930 O.2   199  ASP199     -0.2867
     57  CB       -13.4400  -26.3580  -12.6400 C.3   199  ASP199      0.1410
     58  CG       -14.2760  -27.3980  -13.3630 C.2   199  ASP199      0.3668
     59  OD1      -14.6610  -28.4200  -12.7810 O.co2 199  ASP199     -0.2456
     60  OD2      -14.5280  -27.1600  -14.5730 O.co2 199  ASP199     -0.2456
     61  N         -8.6120  -26.6960   -5.2440 N.3   202  ARG202     -0.1245
     62  CA        -8.5490  -28.0050   -4.5900 C.3   202  ARG202      0.1563
     63  C         -9.1770  -27.8880   -3.2100 C.2   202  ARG202      0.2260
     64  O         -8.8090  -26.9970   -2.4170 O.2   202  ARG202     -0.2867
     65  CB        -7.1100  -28.5260   -4.4810 C.3   202  ARG202      0.0307
     66  CG        -6.5850  -29.1150   -5.7640 C.3   202  ARG202      0.0489
     67  CD        -5.2060  -29.7480   -5.5730 C.3   202  ARG202      0.2205
     68  NE        -4.8210  -30.4150   -6.8050 N.pl3 202  ARG202     -0.0865
     69  CZ        -4.0080  -29.9300   -7.7210 C.cat 202  ARG202      0.5346
     70  NH1       -3.4080  -28.7600   -7.5290 N.pl3 202  ARG202      0.1354
     71  NH2       -3.8020  -30.6200   -8.8480 N.pl3 202  ARG202      0.1354
     72  N        -12.1070  -31.1980   -8.9330 N.3   214  LYS214     -0.1245
     73  CA       -11.8040  -31.7190  -10.2460 C.3   214  LYS214      0.1561
     74  C        -10.7380  -32.8120  -10.2310 C.2   214  LYS214      0.2260
     75  O        -10.6220  -33.5720  -11.2050 O.2   214  LYS214     -0.2867
     76  CB       -11.3960  -30.5420  -11.1580 C.3   214  LYS214      0.0271
     77  CG       -11.1470  -30.9280  -12.6180 C.3   214  LYS214      0.0035
     78  CD       -10.9530  -29.6850  -13.4860 C.3   214  LYS214      0.0206
     79  CE       -10.3540  -30.0620  -14.8380 C.3   214  LYS214      0.1093
     80  NZ       -10.1870  -28.8220  -15.6800 N.3   214  LYS214     -0.1314
     81  N         -9.5970  -35.7880  -12.7970 N.3   218  ARG218     -0.1245
     82  CA        -8.2400  -35.9290  -13.3360 C.3   218  ARG218      0.1563
     83  C         -7.6790  -37.2990  -13.0410 C.2   218  ARG218      0.2260
     84  O         -6.8890  -37.8180  -13.8360 O.2   218  ARG218     -0.2867
     85  CB        -7.2970  -34.8780  -12.7450 C.3   218  ARG218      0.0307
     86  CG        -7.6970  -33.4350  -13.1160 C.3   218  ARG218      0.0489
     87  CD        -6.6120  -32.4730  -12.6340 C.3   218  ARG218      0.2205
     88  NE        -6.9340  -31.0580  -12.8620 N.pl3 218  ARG218     -0.0865
     89  CZ        -7.3970  -30.2280  -11.9340 C.cat 218  ARG218      0.5346
     90  NH1       -7.6710  -28.9680  -12.2600 N.pl3 218  ARG218      0.1354
     91  NH2       -7.5700  -30.6230  -10.6860 N.pl3 218  ARG218      0.1354
@<TRIPOS>BOND
     1    44    43    2
     2    36    35    2
     3    43    42    1
     4    42    41    1
     5    35    41   am
     6    35    34    1
     7     1     2    1
     8    37    34    1
     9    37    38    1
    10     2     3    1
    11     2     5    1
    12     6     5    1
    13     6     7    1
    14    34    33    1
    15     4     3    2
    16    16    14    1
    17    25    24    2
    18     7     8    1
    19    38    39    2
    20    38    40   am
    21    33    24   am
    22     9     8    1
    23    24    23    1
    24    14    15    1
    25    14    11    1
    26    45    46    1
    27    20    19    2
    28    51    50   ar
    29    11    10    1
    30    11    12    1
    31    50    52   ar
    32    50    49    1
    33    23    26    1
    34    23    22    1
    35    46    49    1
    36    46    47    1
    37    26    27    1
    38    19    22   am
    39    19    18    1
    40    17    12   am
    41    17    18    1
    42    12    13    2
    43    18    21    1
    44    47    48    2
    45    27    29   ar
    46    27    28   ar
    47    29    31   ar
    48    28    30   ar
    49    31    32   ar
    50    80    79    1
    51    30    32   ar
    52    79    78    1
    53    60    58   ar
    54    84    83    2
    55    78    77    1
    56    58    59   ar
    57    58    57    1
    58    82    83    1
    59    82    81    1
    60    82    85    1
    61    86    85    1
    62    86    87    1
    63    88    87    1
    64    88    89    2
    65    57    54    1
    66    77    76    1
    67    90    89    1
    68    89    91    1
    69    56    55    2
    70    54    55    1
    71    54    53    1
    72    75    74    2
    73    76    73    1
    74    73    74    1
    75    73    72    1
    76    71    69    1
    77    69    70    1
    78    69    68    2
    79    68    67    1
    80    66    67    1
    81    66    65    1
    82    61    62    1
    83    62    65    1
    84    62    63    1
    85    63    64    2
