@<TRIPOS>MOLECULE
tmp/3nudB02.pdb
 93 84 0 0 0
SMALL
GASTEIGER

@<TRIPOS>ATOM
      1  N         27.7430   84.4850    2.8640 N.3   103  LEU103     -0.1245
      2  CA        29.1450   84.0710    2.8570 C.3   103  LEU103      0.1561
      3  C         29.2800   82.5610    3.0360 C.2   103  LEU103      0.2260
      4  O         30.1460   81.9250    2.4330 O.2   103  LEU103     -0.2867
      5  CB        29.9250   84.7850    3.9590 C.3   103  LEU103      0.0270
      6  CG        30.0480   86.3000    3.8360 C.3   103  LEU103      0.0019
      7  CD1       30.6670   86.8800    5.1040 C.3   103  LEU103      0.0001
      8  CD2       30.8630   86.6490    2.6300 C.3   103  LEU103      0.0001
      9  N         29.0690   81.0090   -0.0260 N.3   106  ALA106     -0.1231
     10  CA        30.1460   81.3180   -0.9030 C.3   106  ALA106      0.1694
     11  C         31.3300   80.3550   -0.7190 C.2   106  ALA106      0.2591
     12  O         32.0080   80.0090   -1.6800 O.2   106  ALA106     -0.2718
     13  CB        30.5610   82.7610   -0.6800 C.3   106  ALA106      0.0304
     14  N         31.6310   79.9750    0.5150 N.am  107  VAL107     -0.1980
     15  CA        32.7870   79.1090    0.7440 C.3   107  VAL107      0.1595
     16  C         32.4950   77.7710    0.1190 C.2   107  VAL107      0.2287
     17  O         33.3030   77.2700   -0.6530 O.2   107  VAL107     -0.2864
     18  CB        33.0700   78.8730    2.2240 C.3   107  VAL107      0.0276
     19  CG1       33.8020   80.0330    2.8250 C.3   107  VAL107      0.0022
     20  CG2       31.7630   78.6260    2.9650 C.3   107  VAL107      0.0022
     21  N         32.3790   77.9770   -3.5930 N.3   110  THR110     -0.1218
     22  CA        33.7160   78.2640   -4.1230 C.3   110  THR110      0.1862
     23  C         34.5070   76.9770   -4.1470 C.2   110  THR110      0.2287
     24  O         35.1570   76.6840   -5.1350 O.2   110  THR110     -0.2866
     25  CB        34.4970   79.2590   -3.2770 C.3   110  THR110      0.1770
     26  OG1       33.7970   80.5030   -3.2190 O.3   110  THR110     -0.2211
     27  CG2       35.8470   79.4870   -3.8800 C.3   110  THR110      0.0375
     28  N         33.8640   82.8740   -6.4970 N.3   117  VAL117     -0.1245
     29  CA        32.4400   83.1370   -6.5450 C.3   117  VAL117      0.1561
     30  C         32.2230   84.6250   -6.3290 C.2   117  VAL117      0.2260
     31  O         32.8370   85.2260   -5.4720 O.2   117  VAL117     -0.2867
     32  CB        31.6960   82.3480   -5.4610 C.3   117  VAL117      0.0252
     33  CG1       30.3140   82.8650   -5.2800 C.3   117  VAL117      0.0019
     34  CG2       31.6510   80.8770   -5.8160 C.3   117  VAL117      0.0019
     35  N         30.0070   87.6550   -5.0760 N.3   119  LYS119     -0.1245
     36  CA        28.9990   87.7420   -4.0320 C.3   119  LYS119      0.1561
     37  C         28.1430   88.9950   -4.2060 C.2   119  LYS119      0.2260
     38  O         28.5790   90.1170   -3.8950 O.2   119  LYS119     -0.2867
     39  CB        29.6630   87.7040   -2.6490 C.3   119  LYS119      0.0271
     40  CG        30.5010   86.4640   -2.4440 C.3   119  LYS119      0.0035
     41  CD        31.6290   86.7130   -1.4890 C.3   119  LYS119      0.0206
     42  CE        32.9520   86.1900   -2.0110 C.3   119  LYS119      0.1093
     43  NZ        34.0160   86.3600   -0.9890 N.3   119  LYS119     -0.1314
     44  N         34.2170   88.3520    7.9480 N.3   188  ALA188     -0.1245
     45  CA        34.3990   87.7390    6.6450 C.3   188  ALA188      0.1562
     46  C         35.6620   86.8970    6.5610 C.2   188  ALA188      0.2260
     47  O         36.0820   86.5200    5.4760 O.2   188  ALA188     -0.2867
     48  CB        34.4230   88.8020    5.5860 C.3   188  ALA188      0.0290
     49  N         37.7440   83.7410    6.2850 N.3   190  LEU190     -0.1245
     50  CA        37.3000   82.5270    5.6700 C.3   190  LEU190      0.1561
     51  C         36.9620   81.4430    6.6770 C.2   190  LEU190      0.2260
     52  O         36.0730   80.6270    6.4260 O.2   190  LEU190     -0.2867
     53  CB        38.3490   82.0100    4.7110 C.3   190  LEU190      0.0270
     54  CG        37.7750   80.9880    3.7430 C.3   190  LEU190      0.0019
     55  CD1       36.3220   81.2790    3.4760 C.3   190  LEU190      0.0001
     56  CD2       38.5620   81.0360    2.4510 C.3   190  LEU190      0.0001
     57  N         33.9790   81.8010    9.1070 N.3   193  VAL193     -0.1245
     58  CA        32.7610   81.5490    8.3240 C.3   193  VAL193      0.1561
     59  C         32.4880   80.0500    8.2100 C.2   193  VAL193      0.2260
     60  O         31.3340   79.6280    8.2190 O.2   193  VAL193     -0.2867
     61  CB        32.8350   82.1550    6.8760 C.3   193  VAL193      0.0252
     62  CG1       31.6880   81.6390    6.0080 C.3   193  VAL193      0.0019
     63  CG2       32.8400   83.6880    6.9140 C.3   193  VAL193      0.0019
     64  N         47.3590   87.3210    3.4230 N.3   233  ASN233     -0.1231
     65  CA        47.7030   86.9370    2.0480 C.3   233  ASN233      0.1694
     66  C         46.4650   86.6250    1.1990 C.2   233  ASN233      0.2592
     67  O         46.5710   85.9820    0.1500 O.2   233  ASN233     -0.2718
     68  CB        48.6490   85.7240    2.0570 C.3   233  ASN233      0.0304
     69  CG        42.2690   87.3900   -1.1360 C.2   233  ASN233      0.3162
     70  OD1       41.3550   88.2140   -1.1120 O.2   233  ASN233     -0.4303
     71  ND2       42.5320   86.6470   -2.2080 N.2   233  ASN233     -0.0910
     72  N         45.2990   87.0770    1.6570 N.am  234  LEU234     -0.1966
     73  CA        44.0550   86.8780    0.9180 C.3   234  LEU234      0.1718
     74  C         43.3990   88.2090    0.5290 C.2   234  LEU234      0.2552
     75  O         43.6790   89.2630    1.1190 O.2   234  LEU234     -0.2725
     76  CB        43.0790   86.0070    1.7240 C.3   234  LEU234      0.0311
     77  CG        43.1290   84.4960    1.4480 C.3   234  LEU234      0.0022
     78  CD1       44.5590   84.0300    1.2330 C.3   234  LEU234      0.0001
     79  CD2       42.4690   83.6930    2.5690 C.3   234  LEU234      0.0001
     80  N         42.5140   88.1430   -0.4660 N.am  235  GLN235     -0.1747
     81  CA        41.8080   89.3140   -0.9470 C.3   235  GLN235      0.2653
     82  C         40.8300   89.7280    0.1280 C.2   235  GLN235      0.2672
     83  O         40.2460   88.8690    0.7980 O.2   235  GLN235     -0.2825
     84  CB        41.0460   88.9920   -2.2330 C.3   235  GLN235      0.0785
     85  CG        39.7890   89.8310   -2.4200 C.3   235  GLN235      0.0944
     86  CD        38.8320   89.2520   -3.4430 C.2   235  GLN235      0.2609
     87  OE1       39.2370   88.5500   -4.3660 O.2   235  GLN235     -0.2717
     88  NE2       37.5490   89.5430   -3.2720 N.am  235  GLN235     -0.0878
     89  N         37.3600   90.6500    1.4990 N.3   237  ALA237     -0.1245
     90  CA        36.0730   90.1320    1.0240 C.3   237  ALA237      0.1562
     91  C         35.0910   91.2010    0.5330 C.2   237  ALA237      0.2260
     92  O         34.8590   92.2000    1.2090 O.2   237  ALA237     -0.2867
     93  CB        35.4180   89.2660    2.1060 C.3   237  ALA237      0.0290
@<TRIPOS>BOND
     1    29    28    1
     2    29    30    1
     3    29    32    1
     4    30    31    2
     5    34    32    1
     6    32    33    1
     7    24    23    2
     8    35    36    1
     9    87    86    2
    10    37    36    1
    11    37    38    2
    12    23    22    1
    13    22    21    1
    14    22    25    1
    15    36    39    1
    16    27    25    1
    17    86    88   am
    18    86    85    1
    19    25    26    1
    20    39    40    1
    21    40    41    1
    22    85    84    1
    23    84    81    1
    24    71    69    2
    25    42    41    1
    26    42    43    1
    27    12    11    2
    28    69    70    1
    29    69    80    1
    30    70    81    1
    31    81    80    1
    32    81    82    1
    33    10    11    1
    34    10    13    1
    35    10     9    1
    36    11    14   am
    37    17    16    2
    38    80    74   am
    39    16    15    1
    40    82    83    2
    41    67    66    2
    42    14    15    1
    43    74    73    1
    44    74    75    2
    45    91    90    1
    46    91    92    2
    47    15    18    1
    48    73    72    1
    49    73    76    1
    50    90    89    1
    51    90    93    1
    52    66    72   am
    53    66    65    1
    54    78    77    1
    55    77    76    1
    56    77    79    1
    57    65    68    1
    58    65    64    1
    59    18    19    1
    60    18    20    1
    61     4     3    2
    62    56    54    1
    63     8     6    1
    64     2     1    1
    65     2     3    1
    66     2     5    1
    67    55    54    1
    68    54    53    1
    69     6     5    1
    70     6     7    1
    71    53    50    1
    72    47    46    2
    73    48    45    1
    74    50    49    1
    75    50    51    1
    76    62    61    1
    77    52    51    2
    78    46    45    1
    79    45    44    1
    80    61    63    1
    81    61    58    1
    82    59    60    2
    83    59    58    1
    84    58    57    1
