@<TRIPOS>MOLECULE
tmp/3nueB00.pdb
 106 99 0 0 0
SMALL
GASTEIGER

@<TRIPOS>ATOM
      1  N         10.8800  114.4950    9.5160 N.3     7  VAL7       -0.1245
      2  CA        12.1000  115.2680    9.3420 C.3     7  VAL7        0.1561
      3  C         11.8380  116.2670    8.2260 C.2     7  VAL7        0.2260
      4  O         11.3810  115.8950    7.1630 O.2     7  VAL7       -0.2867
      5  CB        13.3180  114.3920    9.0320 C.3     7  VAL7        0.0252
      6  CG1       14.4110  115.2290    8.4350 C.3     7  VAL7        0.0019
      7  CG2       13.7910  113.7340   10.2880 C.3     7  VAL7        0.0019
      8  N         12.9060  118.7450    5.4310 N.3     9  ILE9       -0.1231
      9  CA        14.0170  119.0900    4.5660 C.3     9  ILE9        0.1678
     10  C         13.6450  120.1990    3.6160 C.2     9  ILE9        0.2434
     11  O         12.6950  120.0680    2.8420 O.2     9  ILE9       -0.2733
     12  CB        14.4580  117.8650    3.7710 C.3     9  ILE9        0.0265
     13  CG1       14.9920  116.8050    4.7470 C.3     9  ILE9        0.0019
     14  CG2       15.4940  118.2600    2.6870 C.3     9  ILE9        0.0020
     15  CD1       14.9690  115.4050    4.2170 C.3     9  ILE9        0.0001
     16  N         14.4070  121.2950    3.6430 N.am   10  PRO10      -0.2729
     17  CA        14.1170  122.3920    2.7120 C.3    10  PRO10       0.1401
     18  C         14.6890  122.0900    1.3290 C.2    10  PRO10       0.2269
     19  O         15.8020  121.5870    1.2480 O.2    10  PRO10      -0.2865
     20  CB        14.8290  123.6070    3.3480 C.3    10  PRO10       0.0296
     21  CG        15.6280  123.0670    4.5440 C.3    10  PRO10       0.0237
     22  CD        15.6360  121.5510    4.4160 C.3    10  PRO10       0.0939
     23  N         19.1350  123.5930   -2.0920 N.3    14  LEU14      -0.1245
     24  CA        19.7330  122.2460   -2.0570 C.3    14  LEU14       0.1561
     25  C         20.8070  122.2220   -3.1500 C.2    14  LEU14       0.2260
     26  O         20.6460  122.8520   -4.2080 O.2    14  LEU14      -0.2867
     27  CB        18.7160  121.1190   -2.3400 C.3    14  LEU14       0.0270
     28  CG        17.8990  120.3780   -1.2600 C.3    14  LEU14       0.0019
     29  CD1       16.7230  119.7310   -1.9230 C.3    14  LEU14       0.0001
     30  CD2       18.6670  119.3090   -0.4410 C.3    14  LEU14       0.0001
     31  N         15.7920  115.9900   -3.7110 N.3    53  VAL53      -0.1245
     32  CA        16.5230  115.6340   -2.5050 C.3    53  VAL53       0.1561
     33  C         17.5940  114.5760   -2.7760 C.2    53  VAL53       0.2260
     34  O         18.7770  114.8200   -2.5020 O.2    53  VAL53      -0.2867
     35  CB        15.6190  115.1070   -1.3630 C.3    53  VAL53       0.0252
     36  CG1       16.4670  114.5530   -0.2260 C.3    53  VAL53       0.0019
     37  CG2       14.7130  116.2090   -0.8540 C.3    53  VAL53       0.0019
     38  N         21.0130  115.0780   -4.4150 N.3    56  SER56      -0.1202
     39  CA        22.0980  115.7320   -3.6730 C.3    56  SER56       0.2020
     40  C         22.6760  114.9260   -2.5400 C.2    56  SER56       0.2618
     41  O         23.5470  115.4010   -1.8350 O.2    56  SER56      -0.2717
     42  CB        21.5880  117.0030   -3.0190 C.3    56  SER56       0.2103
     43  OG        20.6020  116.6600   -1.9990 O.3    56  SER56      -0.2182
     44  N         22.1810  113.7340   -2.3100 N.am   57  VAL57      -0.1979
     45  CA        22.7640  112.9240   -1.2580 C.3    57  VAL57       0.1595
     46  C         23.9880  112.1400   -1.7340 C.2    57  VAL57       0.2287
     47  O         24.2210  111.9730   -2.9330 O.2    57  VAL57      -0.2864
     48  CB        21.7400  111.9450   -0.6730 C.3    57  VAL57       0.0276
     49  CG1       20.6260  112.7250    0.0140 C.3    57  VAL57       0.0022
     50  CG2       21.1990  111.0040   -1.7450 C.3    57  VAL57       0.0022
     51  N         15.3360   96.5490    8.8420 N.3    96  ASN96      -0.1240
     52  CA        16.6090   97.0660    8.4130 C.3    96  ASN96       0.1653
     53  C         17.4960   97.3300    9.6330 C.2    96  ASN96       0.2266
     54  O         17.8620   98.4550    9.9350 O.2    96  ASN96      -0.2867
     55  CB        16.4080   98.3370    7.5800 C.3    96  ASN96       0.1155
     56  CG        17.6430   98.6980    6.7990 C.2    96  ASN96       0.2627
     57  OD1       18.3180   97.8100    6.3310 O.2    96  ASN96      -0.2716
     58  ND2       17.9540   99.9870    6.6600 N.am   96  ASN96      -0.0877
     59  N         12.7570  108.8300   -0.1390 N.3   172  VAL172     -0.1231
     60  CA        13.8110  109.3400    0.6980 C.3   172  VAL172      0.1692
     61  C         14.0390  108.4120    1.8970 C.2   172  VAL172      0.2591
     62  O         15.1840  108.0800    2.2220 O.2   172  VAL172     -0.2718
     63  CB        13.5090  110.7920    1.1590 C.3   172  VAL172      0.0266
     64  CG1       14.5270  111.2380    2.1650 C.3   172  VAL172      0.0020
     65  CG2       13.5110  111.7050   -0.0440 C.3   172  VAL172      0.0020
     66  N         12.9660  107.9310    2.5190 N.am  173  ARG173     -0.1980
     67  CA        13.1560  106.8980    3.5250 C.3   173  ARG173      0.1597
     68  C         13.9400  105.6860    2.9720 C.2   173  ARG173      0.2287
     69  O         14.8280  105.1310    3.6450 O.2   173  ARG173     -0.2864
     70  CB        11.8290  106.4550    4.0520 C.3   173  ARG173      0.0334
     71  CG        11.3040  107.3410    5.0740 C.3   173  ARG173      0.0492
     72  CD         9.8330  107.6080    4.8160 C.3   173  ARG173      0.2205
     73  NE         9.0820  106.5590    5.4420 N.pl3 173  ARG173     -0.0865
     74  CZ         7.7670  106.4480    5.4530 C.cat 173  ARG173      0.5346
     75  NH1        6.9700  107.2610    4.7630 N.pl3 173  ARG173      0.1354
     76  NH2        7.2910  105.4340    6.1520 N.pl3 173  ARG173      0.1354
     77  N         16.0890  105.6270    0.5910 N.3   175  TYR175     -0.1227
     78  CA        17.4870  105.9970    0.4400 C.3   175  TYR175      0.1736
     79  C         18.2460  105.8960    1.7830 C.2   175  TYR175      0.2595
     80  O         19.3610  105.3740    1.8650 O.2   175  TYR175     -0.2718
     81  CB        17.6250  107.4110   -0.1160 C.3   175  TYR175      0.0548
     82  CG        19.0040  107.9280    0.0850 C.ar  175  TYR175     -0.0200
     83  CD1       20.0720  107.4010   -0.6470 C.ar  175  TYR175     -0.0009
     84  CD2       19.3010  108.7840    1.1270 C.ar  175  TYR175     -0.0009
     85  CE1       21.3960  107.7870   -0.4040 C.ar  175  TYR175      0.0417
     86  CE2       20.6580  109.2290    1.3500 C.ar  175  TYR175      0.0417
     87  CZ        21.6770  108.6880    0.6050 C.ar  175  TYR175      0.1957
     88  OH        22.9760  109.0660    0.8260 O.3   175  TYR175     -0.2866
     89  N         17.6280  106.4070    2.8350 N.am  176  ALA176     -0.1966
     90  CA        18.2820  106.4660    4.1210 C.3   176  ALA176      0.1728
     91  C         18.5050  105.0720    4.6260 C.2   176  ALA176      0.2616
     92  O         19.5480  104.7530    5.1620 O.2   176  ALA176     -0.2715
     93  CB        17.4920  107.2940    5.1210 C.3   176  ALA176      0.0334
     94  N         17.5220  104.2230    4.4480 N.am  177  ASN177     -0.1972
     95  CA        17.6620  102.8680    4.8900 C.3   177  ASN177      0.1688
     96  C         18.7010  102.1130    4.0810 C.2   177  ASN177      0.2292
     97  O         19.4720  101.3430    4.6390 O.2   177  ASN177     -0.2864
     98  CB        16.3330  102.1660    4.8560 C.3   177  ASN177      0.1181
     99  CG        15.5190  102.4710    6.0510 C.2   177  ASN177      0.2629
    100  OD1       15.6680  101.8120    7.0690 O.2   177  ASN177     -0.2716
    101  ND2       14.5760  103.4100    5.9230 N.am  177  ASN177     -0.0877
    102  N         22.2290  103.3450    4.9960 N.3   180  ALA180     -0.1245
    103  CA        22.5700  102.8620    6.3470 C.3   180  ALA180      0.1562
    104  C         22.9260  101.3810    6.3390 C.2   180  ALA180      0.2260
    105  O         23.8530  100.9450    7.0120 O.2   180  ALA180     -0.2867
    106  CB        21.4680  103.1450    7.3180 C.3   180  ALA180      0.0290
@<TRIPOS>BOND
     1    38    39    1
     2    26    25    2
     3    31    32    1
     4    39    42    1
     5    39    40    1
     6    25    24    1
     7    42    43    1
     8    47    46    2
     9    33    32    1
    10    33    34    2
    11    40    44   am
    12    40    41    2
    13    32    35    1
    14    27    24    1
    15    27    28    1
    16    44    45    1
    17    23    24    1
    18    29    28    1
    19    50    48    1
    20    46    45    1
    21    35    37    1
    22    35    36    1
    23    28    30    1
    24    45    48    1
    25    48    49    1
    26    83    85   ar
    27    83    82   ar
    28    85    87   ar
    29    59    60    1
    30    81    82    1
    31    81    78    1
    32    65    63    1
    33    82    84   ar
    34    78    77    1
    35    78    79    1
    36    87    88    1
    37    87    86   ar
    38    60    63    1
    39    60    61    1
    40    84    86   ar
    41    63    64    1
    42    19    18    2
    43    18    17    1
    44    79    80    2
    45    79    89   am
    46    61    62    2
    47    61    66   am
    48    66    67    1
    49    14    12    1
    50    17    20    1
    51    17    16    1
    52    89    90    1
    53    11    10    2
    54    68    67    1
    55    68    69    2
    56    20    21    1
    57    67    70    1
    58    10    16   am
    59    10     9    1
    60    16    22    1
    61    12     9    1
    62    12    13    1
    63    70    71    1
    64    96    97    2
    65    96    95    1
    66    90    91    1
    67    90    93    1
    68    15    13    1
    69    22    21    1
    70    94    91   am
    71    94    95    1
    72     9     8    1
    73    91    92    2
    74    75    74    1
    75    72    71    1
    76    72    73    1
    77    98    95    1
    78    98    99    1
    79   102   103    1
    80    73    74    2
    81    74    76    1
    82   101    99   am
    83    99   100    2
    84    57    56    2
    85   104   103    1
    86   104   105    2
    87   103   106    1
    88    58    56   am
    89    56    55    1
    90     4     3    2
    91    55    52    1
    92     3     2    1
    93    52    51    1
    94    52    53    1
    95     6     5    1
    96     5     2    1
    97     5     7    1
    98     2     1    1
    99    53    54    2
