@<TRIPOS>MOLECULE
tmp/3nunA00.pdb
 138 126 0 0 0
SMALL
GASTEIGER

@<TRIPOS>ATOM
      1  N        -39.1380   17.3820   19.1210 N.3    18  LEU18      -0.1231
      2  CA       -38.5110   17.4000   17.7860 C.3    18  LEU18       0.1693
      3  C        -38.8970   18.6310   16.9680 C.2    18  LEU18       0.2592
      4  O        -38.1700   19.0480   16.0730 O.2    18  LEU18      -0.2718
      5  CB       -38.8940   16.1440   16.9900 C.3    18  LEU18       0.0284
      6  CG       -38.4310   14.8270   17.6140 C.3    18  LEU18       0.0019
      7  CD1      -39.0930   13.6500   16.9510 C.3    18  LEU18       0.0001
      8  CD2      -36.9120   14.7240   17.5530 C.3    18  LEU18       0.0001
      9  N        -40.0660   19.1850   17.2560 N.am   19  GLY19      -0.1957
     10  CA       -40.5190   20.3950   16.5970 C.3    19  GLY19       0.1869
     11  C        -41.7270   20.9700   17.3170 C.2    19  GLY19       0.2309
     12  O        -42.4310   20.2550   18.0300 O.2    19  GLY19      -0.2863
     13  N        -49.3370   22.5100   17.1600 N.3    24  SER24      -0.1217
     14  CA       -48.8630   21.1520   17.3300 C.3    24  SER24       0.1889
     15  C        -47.4490   21.1350   17.8880 C.2    24  SER24       0.2288
     16  O        -46.6840   22.0750   17.6930 O.2    24  SER24      -0.2866
     17  CB       -48.8760   20.4220   15.9830 C.3    24  SER24       0.2089
     18  OG       -47.8090   20.8650   15.1570 O.3    24  SER24      -0.2183
     19  N        -44.2220   18.1510   18.1330 N.3    26  VAL26      -0.1245
     20  CA       -43.7690   16.8150   17.8030 C.3    26  VAL26       0.1561
     21  C        -42.7570   16.3670   18.8450 C.2    26  VAL26       0.2260
     22  O        -41.7900   17.0780   19.1280 O.2    26  VAL26      -0.2867
     23  CB       -43.1270   16.7530   16.4010 C.3    26  VAL26       0.0252
     24  CG1      -42.8120   15.2920   16.0370 C.3    26  VAL26       0.0019
     25  CG2      -44.0500   17.3940   15.3630 C.3    26  VAL26       0.0019
     26  N        -41.9240    9.6200   15.8730 N.3    39  ALA39      -0.1245
     27  CA       -42.0790   11.0490   16.0690 C.3    39  ALA39       0.1562
     28  C        -43.5730   11.2220   16.2170 C.2    39  ALA39       0.2260
     29  O        -44.3260   11.0090   15.2630 O.2    39  ALA39      -0.2867
     30  CB       -41.5480   11.8400   14.8480 C.3    39  ALA39       0.0290
     31  N        -46.7570   13.4760   16.8090 N.3    41  LYS41      -0.1245
     32  CA       -47.2540   14.8340   16.6840 C.3    41  LYS41       0.1561
     33  C        -48.4810   14.9490   17.5480 C.2    41  LYS41       0.2260
     34  O        -49.4130   14.1550   17.4230 O.2    41  LYS41      -0.2867
     35  CB       -47.6180   15.1360   15.2270 C.3    41  LYS41       0.0271
     36  CG       -48.1430   16.5610   15.0000 C.3    41  LYS41       0.0035
     37  CD       -48.3280   16.8320   13.5140 C.3    41  LYS41       0.0206
     38  CE       -48.8480   18.2380   13.2380 C.3    41  LYS41       0.1093
     39  NZ       -48.7210   18.5860   11.7870 N.3    41  LYS41      -0.1314
     40  N        -54.5820   16.6130    6.8520 N.3    60  GLU60      -0.1245
     41  CA       -53.2730   16.0050    7.0800 C.3    60  GLU60       0.1567
     42  C        -53.3860   14.5010    7.3110 C.2    60  GLU60       0.2260
     43  O        -52.6090   13.7140    6.7580 O.2    60  GLU60      -0.2867
     44  CB       -52.5260   16.6630    8.2420 C.3    60  GLU60       0.0388
     45  CG       -51.2190   15.9550    8.5880 C.3    60  GLU60       0.1160
     46  CD       -50.3300   16.7570    9.5260 C.2    60  GLU60       0.3649
     47  OE1      -50.7960   17.1370   10.6190 O.co2  60  GLU60      -0.2457
     48  OE2      -49.1560   16.9960    9.1730 O.co2  60  GLU60      -0.2457
     49  N        -51.8340   11.8030    4.6340 N.3    64  MET64      -0.1245
     50  CA       -50.7490   10.9240    5.0700 C.3    64  MET64       0.1570
     51  C        -51.1320    9.4420    5.0910 C.2    64  MET64       0.2261
     52  O        -50.2610    8.5710    5.0990 O.2    64  MET64      -0.2867
     53  CB       -50.1970   11.3630    6.4290 C.3    64  MET64       0.0387
     54  CG       -49.6910   12.7960    6.4370 C.3    64  MET64       0.0595
     55  SD       -48.5000   13.1320    7.7430 S.3    64  MET64      -0.1393
     56  CE       -46.9680   12.5650    7.0110 C.3    64  MET64       0.0692
     57  N        -42.6650   10.9760    4.9670 N.3    73  VAL73      -0.1245
     58  CA       -42.9460   10.5880    6.3440 C.3    73  VAL73       0.1561
     59  C        -44.2540    9.8350    6.3790 C.2    73  VAL73       0.2260
     60  O        -45.2360   10.2540    5.7750 O.2    73  VAL73      -0.2867
     61  CB       -43.0330   11.8170    7.2820 C.3    73  VAL73       0.0252
     62  CG1      -43.7980   11.4790    8.5610 C.3    73  VAL73       0.0019
     63  CG2      -41.6480   12.3180    7.6120 C.3    73  VAL73       0.0019
     64  N        -45.7290    9.1800   13.6740 N.3    89  LEU89      -0.1231
     65  CA       -45.0650    9.4300   12.3970 C.3    89  LEU89       0.1693
     66  C        -43.6890    8.7860   12.3360 C.2    89  LEU89       0.2593
     67  O        -43.1040    8.4810   13.3700 O.2    89  LEU89      -0.2718
     68  CB       -44.9030   10.9450   12.1620 C.3    89  LEU89       0.0284
     69  CG       -46.1490   11.8090   12.3160 C.3    89  LEU89       0.0019
     70  CD1      -45.7830   13.2760   12.2200 C.3    89  LEU89       0.0001
     71  CD2      -47.1640   11.4420   11.2360 C.3    89  LEU89       0.0001
     72  N        -43.1710    8.5920   11.1220 N.am   90  SER90      -0.1938
     73  CA       -41.7840    8.1700   10.9430 C.3    90  SER90       0.2055
     74  C        -40.8560    9.1190   11.6830 C.2    90  SER90       0.2643
     75  O        -41.0370   10.3350   11.6340 O.2    90  SER90      -0.2714
     76  CB       -41.3960    8.1940    9.4480 C.3    90  SER90       0.2130
     77  OG       -42.3500    7.5060    8.6760 O.3    90  SER90      -0.2179
     78  N        -39.8510    8.5640   12.3480 N.am   91  TYR91      -0.1959
     79  CA       -38.8100    9.3770   12.9610 C.3    91  TYR91       0.1771
     80  C        -37.6220    9.5280   12.0050 C.2    91  TYR91       0.2619
     81  O        -36.8930    8.5740   11.7380 O.2    91  TYR91      -0.2715
     82  CB       -38.3770    8.7810   14.3170 C.3    91  TYR91       0.0574
     83  CG       -37.2070    9.4790   14.9790 C.ar   91  TYR91      -0.0198
     84  CD1      -37.1360   10.8660   15.0320 C.ar   91  TYR91      -0.0009
     85  CD2      -36.1800    8.7500   15.5630 C.ar   91  TYR91      -0.0009
     86  CE1      -36.0600   11.5130   15.6440 C.ar   91  TYR91       0.0417
     87  CE2      -35.1040    9.3830   16.1790 C.ar   91  TYR91       0.0417
     88  CZ       -35.0570   10.7670   16.2270 C.ar   91  TYR91       0.1957
     89  OH       -33.9910   11.4020   16.8240 O.3    91  TYR91      -0.2866
     90  N        -37.4540   10.7370   11.4790 N.am   92  ALA92      -0.1977
     91  CA       -36.3120   11.0690   10.6460 C.3    92  ALA92       0.1597
     92  C        -35.1980   11.5610   11.5510 C.2    92  ALA92       0.2287
     93  O        -35.1490   12.7330   11.9160 O.2    92  ALA92      -0.2864
     94  CB       -36.6860   12.1390    9.6210 C.3    92  ALA92       0.0319
     95  N        -33.0830   15.0120   11.1430 N.3    95  GLY95      -0.1210
     96  CA       -33.7140   16.3220   11.1390 C.3    95  GLY95       0.1956
     97  C        -33.9090   16.9730    9.7740 C.2    95  GLY95       0.2611
     98  O        -33.9560   16.2990    8.7510 O.2    95  GLY95      -0.2717
     99  N        -34.0090   18.2990    9.7720 N.am   96  GLU96      -0.1979
    100  CA       -34.3330   19.0830    8.5800 C.3    96  GLU96       0.1602
    101  C        -33.1890   19.2410    7.5970 C.2    96  GLU96       0.2287
    102  O        -32.0450   19.4080    7.9900 O.2    96  GLU96      -0.2864
    103  CB       -34.7970   20.4740    8.9960 C.3    96  GLU96       0.0415
    104  CG       -35.9930   20.4590    9.9370 C.3    96  GLU96       0.1163
    105  CD       -36.3440   21.8470   10.4500 C.2    96  GLU96       0.3649
    106  OE1      -35.6400   22.8080   10.0930 O.co2  96  GLU96      -0.2457
    107  OE2      -37.3300   21.9780   11.1970 O.co2  96  GLU96      -0.2457
    108  N        -39.3910   21.3380    5.9160 N.3   140  ASN140     -0.1240
    109  CA       -40.3110   20.2030    5.7940 C.3   140  ASN140      0.1653
    110  C        -39.7380   18.9920    5.0730 C.2   140  ASN140      0.2266
    111  O        -40.4360   17.9930    4.8820 O.2   140  ASN140     -0.2867
    112  CB       -41.5040   20.6220    4.9390 C.3   140  ASN140      0.1155
    113  CG       -42.4790   21.4560    5.6830 C.2   140  ASN140      0.2627
    114  OD1      -42.4740   21.5060    6.9150 O.2   140  ASN140     -0.2716
    115  ND2      -43.3400   22.1240    4.9420 N.am  140  ASN140     -0.0877
    116  N        -37.2150   16.3080    5.5540 N.3   142  LEU142     -0.1245
    117  CA       -36.3920   15.6980    6.5890 C.3   142  LEU142      0.1561
    118  C        -35.4180   14.6920    6.0010 C.2   142  LEU142      0.2260
    119  O        -35.5770   14.2520    4.8660 O.2   142  LEU142     -0.2867
    120  CB       -37.2870   15.0220    7.6310 C.3   142  LEU142      0.0270
    121  CG       -38.4570   15.8930    8.1120 C.3   142  LEU142      0.0019
    122  CD1      -39.2590   15.1770    9.1810 C.3   142  LEU142      0.0001
    123  CD2      -37.9550   17.2530    8.6170 C.3   142  LEU142      0.0001
    124  N        -42.4900   15.8550    4.9220 N.3   152  THR152     -0.1203
    125  CA       -43.5270   15.7950    5.9540 C.3   152  THR152      0.1994
    126  C        -44.3690   17.0670    5.9690 C.2   152  THR152      0.2617
    127  O        -44.1300   17.9820    5.1670 O.2   152  THR152     -0.2717
    128  CB       -42.9180   15.5280    7.3680 C.3   152  THR152      0.1784
    129  OG1      -43.9510   15.1180    8.2780 O.3   152  THR152     -0.2211
    130  CG2      -42.2090   16.7790    7.9090 C.3   152  THR152      0.0376
    131  N        -45.3610   17.0920    6.8620 N.am  153  ASP153     -0.1973
    132  CA       -46.2160   18.2580    7.1200 C.3   153  ASP153      0.1709
    133  C        -47.2610   18.5020    6.0300 C.2   153  ASP153      0.2293
    134  O        -47.0450   19.3110    5.1340 O.2   153  ASP153     -0.2864
    135  CB       -45.3690   19.5200    7.3360 C.3   153  ASP153      0.1436
    136  CG       -46.1330   20.6200    8.0610 C.2   153  ASP153      0.3671
    137  OD1      -47.3430   20.4410    8.3130 O.co2 153  ASP153     -0.2456
    138  OD2      -45.5230   21.6590    8.3840 O.co2 153  ASP153     -0.2456
@<TRIPOS>BOND
     1    49    50    1
     2   119   118    2
     3   111   110    2
     4   124   125    1
     5   112   113    1
     6   112   109    1
     7   115   113   am
     8    57    58    1
     9    50    51    1
    10    50    53    1
    11   110   109    1
    12    51    52    2
    13   134   133    2
    14   127   126    2
    15   116   117    1
    16   113   114    2
    17    60    59    2
    18   109   108    1
    19   125   126    1
    20   125   128    1
    21   126   131   am
    22   118   117    1
    23   133   132    1
    24    58    59    1
    25    58    61    1
    26    53    54    1
    27    54    55    1
    28   117   120    1
    29    43    42    2
    30    40    41    1
    31   131   132    1
    32    56    55    1
    33    41    42    1
    34    41    44    1
    35   132   135    1
    36    61    63    1
    37    61    62    1
    38   135   136    1
    39   128   130    1
    40   128   129    1
    41   101   102    2
    42   101   100    1
    43   120   121    1
    44   136   137   ar
    45   136   138   ar
    46   121   123    1
    47   121   122    1
    48    44    45    1
    49   100   103    1
    50   100    99    1
    51    45    46    1
    52    77    76    1
    53    98    97    2
    54   103   104    1
    55    48    46   ar
    56    76    73    1
    57    46    47   ar
    58    94    91    1
    59    99    97   am
    60    97    96    1
    61   104   105    1
    62   106   105   ar
    63   105   107   ar
    64    91    90    1
    65    91    92    1
    66    73    72    1
    67    73    74    1
    68    72    66   am
    69    96    95    1
    70    71    69    1
    71    90    80   am
    72    92    93    2
    73    75    74    2
    74    74    78   am
    75    81    80    2
    76    39    38    1
    77    80    79    1
    78    68    69    1
    79    68    65    1
    80    70    69    1
    81    66    65    1
    82    66    67    2
    83    78    79    1
    84    65    64    1
    85    79    82    1
    86    38    37    1
    87    37    36    1
    88    82    83    1
    89    30    27    1
    90    83    84   ar
    91    83    85   ar
    92    36    35    1
    93    84    86   ar
    94    18    17    1
    95    35    32    1
    96    29    28    2
    97    25    23    1
    98    85    87   ar
    99    86    88   ar
   100    26    27    1
   101    17    14    1
   102    24    23    1
   103    27    28    1
   104     4     3    2
   105    87    88   ar
   106    88    89    1
   107    23    20    1
   108    10     9    1
   109    10    11    1
   110    32    31    1
   111    32    33    1
   112     7     6    1
   113     3     9   am
   114     3     2    1
   115     5     6    1
   116     5     2    1
   117    13    14    1
   118    11    12    2
   119    14    15    1
   120    34    33    2
   121     8     6    1
   122    16    15    2
   123     2     1    1
   124    20    19    1
   125    20    21    1
   126    21    22    2
