@<TRIPOS>MOLECULE
tmp/3nupA00.pdb
 147 139 0 0 0
SMALL
GASTEIGER

@<TRIPOS>ATOM
      1  N         26.8240   42.5310  -11.0900 N.3     8  ILE8       -0.1231
      2  CA        25.4310   42.0980  -11.0180 C.3     8  ILE8        0.1692
      3  C         24.7080   42.7640   -9.8510 C.2     8  ILE8        0.2592
      4  O         23.7650   43.5330  -10.0430 O.2     8  ILE8       -0.2718
      5  CB        25.2970   40.6090  -10.7910 C.3     8  ILE8        0.0266
      6  CG1       26.1050   39.8160  -11.8220 C.3     8  ILE8        0.0019
      7  CG2       23.8330   40.2690  -10.8390 C.3     8  ILE8        0.0020
      8  CD1       26.6120   38.4700  -11.2770 C.3     8  ILE8        0.0001
      9  N         25.1470   42.4440   -8.6390 N.am    9  GLY9       -0.1957
     10  CA        24.5480   43.0260   -7.4560 C.3     9  GLY9        0.1869
     11  C         25.5380   43.9450   -6.7650 C.2     9  GLY9        0.2309
     12  O         25.1660   44.9790   -6.2010 O.2     9  GLY9       -0.2863
     13  N         27.7700   41.8590   -5.9000 N.3    12  VAL12      -0.1245
     14  CA        28.1330   40.6440   -6.6330 C.3    12  VAL12       0.1561
     15  C         28.6130   40.8270   -8.0640 C.2    12  VAL12       0.2260
     16  O         27.9540   41.4720   -8.8810 O.2    12  VAL12      -0.2867
     17  CB        26.9610   39.6760   -6.7140 C.3    12  VAL12       0.0252
     18  CG1       27.4230   38.3700   -7.3580 C.3    12  VAL12       0.0019
     19  CG2       26.3830   39.4570   -5.3320 C.3    12  VAL12       0.0019
     20  N         30.7920   33.7490   -9.1640 N.3    26  ALA26      -0.1245
     21  CA        30.1700   34.9660   -8.6620 C.3    26  ALA26       0.1562
     22  C         30.9740   35.4320   -7.4600 C.2    26  ALA26       0.2260
     23  O         30.9590   34.7900   -6.4170 O.2    26  ALA26      -0.2867
     24  CB        28.7330   34.6880   -8.2620 C.3    26  ALA26       0.0290
     25  N         31.5920   37.9390   -4.4740 N.3    28  LYS28      -0.1245
     26  CA        30.9220   38.9170   -3.6430 C.3    28  LYS28       0.1561
     27  C         31.9860   39.5670   -2.7750 C.2    28  LYS28       0.2260
     28  O         32.7330   38.8820   -2.0750 O.2    28  LYS28      -0.2867
     29  CB        29.8620   38.2530   -2.7540 C.3    28  LYS28       0.0271
     30  CG        29.1110   39.2390   -1.8710 C.3    28  LYS28       0.0035
     31  CD        28.1260   38.5370   -0.9590 C.3    28  LYS28       0.0206
     32  CE        27.0200   37.8710   -1.7450 C.3    28  LYS28       0.1093
     33  NZ        26.0420   37.1880   -0.8450 N.3    28  LYS28      -0.1314
     34  N         23.8870   27.1930   -3.1810 N.3    52  VAL52      -0.1245
     35  CA        25.0030   27.5150   -4.0680 C.3    52  VAL52       0.1561
     36  C         26.3370   27.1070   -3.4830 C.2    52  VAL52       0.2260
     37  O         26.5880   27.3050   -2.3010 O.2    52  VAL52      -0.2867
     38  CB        25.1030   29.0210   -4.4310 C.3    52  VAL52       0.0252
     39  CG1       23.9660   29.4080   -5.3390 C.3    52  VAL52       0.0019
     40  CG2       25.1290   29.8700   -3.1830 C.3    52  VAL52       0.0019
     41  N         31.5070   32.0560   -5.3410 N.3    66  PHE66      -0.1227
     42  CA        30.4660   31.0410   -5.4890 C.3    66  PHE66       0.1736
     43  C         30.3720   30.5410   -6.9180 C.2    66  PHE66       0.2595
     44  O         30.8340   31.1990   -7.8430 O.2    66  PHE66      -0.2718
     45  CB        29.0990   31.6320   -5.1240 C.3    66  PHE66       0.0547
     46  CG        28.9770   32.0910   -3.6980 C.ar   66  PHE66      -0.0202
     47  CD1       28.7490   31.1820   -2.6750 C.ar   66  PHE66      -0.0042
     48  CD2       29.0360   33.4410   -3.3890 C.ar   66  PHE66      -0.0042
     49  CE1       28.5710   31.6100   -1.3750 C.ar   66  PHE66      -0.0003
     50  CE2       28.8600   33.8750   -2.0850 C.ar   66  PHE66      -0.0003
     51  CZ        28.6260   32.9610   -1.0800 C.ar   66  PHE66      -0.0000
     52  N         29.7600   29.3820   -7.1120 N.am   67  GLU67      -0.1965
     53  CA        29.5910   28.9130   -8.4730 C.3    67  GLU67       0.1733
     54  C         28.6570   29.9570   -9.0460 C.2    67  GLU67       0.2616
     55  O         27.9610   30.6260   -8.2950 O.2    67  GLU67      -0.2715
     56  CB        28.9110   27.5450   -8.5190 C.3    67  GLU67       0.0429
     57  CG        27.7010   27.4210   -7.6460 C.3    67  GLU67       0.1163
     58  CD        26.9630   26.1320   -7.8990 C.2    67  GLU67       0.3649
     59  OE1       26.3250   25.5990   -6.9620 O.co2  67  GLU67      -0.2457
     60  OE2       27.0170   25.6480   -9.0460 O.co2  67  GLU67      -0.2457
     61  N         28.6310   30.1000  -10.3610 N.am   68  HIS68      -0.1959
     62  CA        27.7650   31.0850  -10.9760 C.3    68  HIS68       0.1787
     63  C         26.6020   30.3830  -11.6780 C.2    68  HIS68       0.2620
     64  O         26.8080   29.4200  -12.4160 O.2    68  HIS68      -0.2715
     65  CB        28.5760   31.9440  -11.9620 C.3    68  HIS68       0.0785
     66  CG        27.7380   32.8680  -12.7900 C.ar   68  HIS68       0.0821
     67  ND1       26.9450   32.4260  -13.8270 N.ar   68  HIS68      -0.2267
     68  CD2       27.5170   34.1990  -12.6920 C.ar   68  HIS68       0.1154
     69  CE1       26.2660   33.4410  -14.3260 C.ar   68  HIS68       0.1986
     70  NE2       26.5940   34.5280  -13.6550 N.ar   68  HIS68      -0.2212
     71  N         25.3820   30.8440  -11.4150 N.am   69  VAL69      -0.1963
     72  CA        24.1930   30.2790  -12.0390 C.3    69  VAL69       0.1727
     73  C         23.6610   31.3900  -12.9550 C.2    69  VAL69       0.2616
     74  O         23.5700   32.5380  -12.5580 O.2    69  VAL69      -0.2715
     75  CB        23.1620   29.8630  -10.9690 C.3    69  VAL69       0.0290
     76  CG1       21.9820   29.1910  -11.6200 C.3    69  VAL69       0.0023
     77  CG2       23.8100   28.9340   -9.9610 C.3    69  VAL69       0.0023
     78  N         23.3390   31.0370  -14.1930 N.am   70  ASP70      -0.1957
     79  CA        22.9050   32.0100  -15.1820 C.3    70  ASP70       0.1840
     80  C         21.6260   32.7430  -14.8740 C.2    70  ASP70       0.2622
     81  O         21.4620   33.8750  -15.3070 O.2    70  ASP70      -0.2715
     82  CB        22.7540   31.3600  -16.5680 C.3    70  ASP70       0.1450
     83  CG        24.0640   30.7780  -17.1030 C.2    70  ASP70       0.3671
     84  OD1       25.0810   31.5100  -17.1610 O.co2  70  ASP70      -0.2456
     85  OD2       24.0750   29.5780  -17.4750 O.co2  70  ASP70      -0.2456
     86  N         20.7170   32.1250  -14.1300 N.am   71  GLN71      -0.1963
     87  CA        19.4450   32.7870  -13.8620 C.3    71  GLN71       0.1733
     88  C         18.7830   32.5230  -12.5050 C.2    71  GLN71       0.2616
     89  O         19.1310   31.5760  -11.8020 O.2    71  GLN71      -0.2715
     90  CB        18.4650   32.4440  -14.9970 C.3    71  GLN71       0.0408
     91  CG        17.9640   31.0130  -15.0100 C.3    71  GLN71       0.0908
     92  CD        17.1770   30.6870  -16.2680 C.2    71  GLN71       0.2608
     93  OE1       16.3960   31.5130  -16.7510 O.2    71  GLN71      -0.2717
     94  NE2       17.3680   29.4710  -16.8000 N.am   71  GLN71      -0.0878
     95  N         17.8330   33.3900  -12.1480 N.am   72  ASP72      -0.1971
     96  CA        17.0870   33.2600  -10.9080 C.3    72  ASP72       0.1709
     97  C         15.6230   32.9880  -11.1830 C.2    72  ASP72       0.2293
     98  O         15.1890   33.0090  -12.3320 O.2    72  ASP72      -0.2864
     99  CB        17.2190   34.4970  -10.0270 C.3    72  ASP72       0.1436
    100  CG        16.8410   35.7780  -10.7340 C.2    72  ASP72       0.3671
    101  OD1       15.9100   35.7670  -11.5690 O.co2  72  ASP72      -0.2456
    102  OD2       17.4800   36.8090  -10.4270 O.co2  72  ASP72      -0.2456
    103  N         13.7020   35.6190  -13.4310 N.3    75  THR75      -0.1218
    104  CA        13.9930   35.4730  -14.8550 C.3    75  THR75       0.1862
    105  C         13.2900   34.2370  -15.4130 C.2    75  THR75       0.2287
    106  O         12.7410   34.2540  -16.5150 O.2    75  THR75      -0.2866
    107  CB        15.5010   35.3060  -15.0840 C.3    75  THR75       0.1770
    108  OG1       16.1900   36.4360  -14.5410 O.3    75  THR75      -0.2211
    109  CG2       15.8060   35.1950  -16.5500 C.3    75  THR75       0.0375
    110  N         14.6250   36.6420   -6.4150 N.3   117  GLN117     -0.1231
    111  CA        15.9340   37.0830   -6.9050 C.3   117  GLN117      0.1698
    112  C         17.1260   36.3150   -6.3360 C.2   117  GLN117      0.2592
    113  O         18.2070   36.3250   -6.9340 O.2   117  GLN117     -0.2718
    114  CB        16.1540   38.5770   -6.6420 C.3   117  GLN117      0.0381
    115  CG        15.2020   39.5110   -7.3750 C.3   117  GLN117      0.0905
    116  CD        13.8390   39.5750   -6.7130 C.2   117  GLN117      0.2608
    117  OE1       13.7440   39.6630   -5.4900 O.2   117  GLN117     -0.2717
    118  NE2       12.7760   39.5420   -7.5160 N.am  117  GLN117     -0.0878
    119  N         16.9640   35.6740   -5.1800 N.am  118  ASN118     -0.1974
    120  CA        18.0870   34.9170   -4.6330 C.3   118  ASN118      0.1688
    121  C         17.8410   33.4130   -4.4770 C.2   118  ASN118      0.2292
    122  O         18.4200   32.7330   -3.6250 O.2   118  ASN118     -0.2864
    123  CB        18.5980   35.5410   -3.3350 C.3   118  ASN118      0.1181
    124  CG        17.5370   35.6630   -2.2930 C.2   118  ASN118      0.2629
    125  OD1       16.7260   34.7550   -2.1160 O.2   118  ASN118     -0.2716
    126  ND2       17.5370   36.7820   -1.5740 N.am  118  ASN118     -0.0877
    127  N         18.2470   30.7690   -7.1360 N.3   120  LEU120     -0.1245
    128  CA        18.7660   30.5550   -8.4850 C.3   120  LEU120      0.1561
    129  C         18.3170   29.2420   -9.1390 C.2   120  LEU120      0.2260
    130  O         18.1200   28.2340   -8.4680 O.2   120  LEU120     -0.2867
    131  CB        20.2850   30.6070   -8.4430 C.3   120  LEU120      0.0270
    132  CG        20.8050   31.6710   -7.4700 C.3   120  LEU120      0.0019
    133  CD1       22.2900   31.5310   -7.2750 C.3   120  LEU120      0.0001
    134  CD2       20.4530   33.0390   -7.9960 C.3   120  LEU120      0.0001
    135  N         20.6230   31.2300   -2.4830 N.3   130  ALA130     -0.1231
    136  CA        21.8150   32.0690   -2.4530 C.3   130  ALA130      0.1694
    137  C         21.6050   33.2740   -1.5320 C.2   130  ALA130      0.2592
    138  O         20.5360   33.4430   -0.9470 O.2   130  ALA130     -0.2718
    139  CB        22.1410   32.5440   -3.8680 C.3   130  ALA130      0.0304
    140  N         22.6480   34.0830   -1.3770 N.am  131  ASP131     -0.1974
    141  CA        22.5550   35.3140   -0.5980 C.3   131  ASP131      0.1709
    142  C         22.0520   35.1960    0.8480 C.2   131  ASP131      0.2293
    143  O         21.2160   36.0060    1.2710 O.2   131  ASP131     -0.2864
    144  CB        21.6520   36.2880   -1.3650 C.3   131  ASP131      0.1436
    145  CG        22.0110   37.7360   -1.1350 C.2   131  ASP131      0.3671
    146  OD1       21.4420   38.5960   -1.8370 O.co2 131  ASP131     -0.2456
    147  OD2       22.8570   38.0140   -0.2640 O.co2 131  ASP131     -0.2456
@<TRIPOS>BOND
     1    85    83   ar
     2    84    83   ar
     3    83    82    1
     4    94    92   am
     5    93    92    2
     6    82    79    1
     7   109   107    1
     8   106   105    2
     9    92    91    1
    10   105   104    1
    11    81    80    2
    12    79    80    1
    13    79    78    1
    14   107   104    1
    15   107   108    1
    16    91    90    1
    17    90    87    1
    18    80    86   am
    19   104   103    1
    20    69    67   ar
    21    69    70   ar
    22    78    73   am
    23    86    87    1
    24    87    88    1
    25    67    66   ar
    26    70    68   ar
    27    73    74    2
    28    73    72    1
    29    66    68   ar
    30    66    65    1
    31    88    95   am
    32    88    89    2
    33    64    63    2
    34    98    97    2
    35    95    96    1
    36    72    71    1
    37    72    75    1
    38    65    62    1
    39     6     8    1
    40     6     5    1
    41    63    71   am
    42    63    62    1
    43    76    75    1
    44   101   100   ar
    45    97    96    1
    46     1     2    1
    47     2     5    1
    48     2     3    1
    49    62    61    1
    50    75    77    1
    51    96    99    1
    52     7     5    1
    53   100   102   ar
    54   100    99    1
    55    61    54   am
    56     4     3    2
    57     3     9   am
    58    20    21    1
    59   129   128    1
    60   129   130    2
    61    54    53    1
    62    54    55    2
    63    60    58   ar
    64    16    15    2
    65    21    24    1
    66    21    22    1
    67     9    10    1
    68    56    53    1
    69    56    57    1
    70   128   131    1
    71   128   127    1
    72    53    52    1
    73   131   132    1
    74    15    14    1
    75   134   132    1
    76    58    57    1
    77    58    59   ar
    78    44    43    2
    79   118   116   am
    80   132   133    1
    81    22    23    2
    82    10    11    1
    83   115   116    1
    84   115   114    1
    85    18    17    1
    86    52    43   am
    87   113   112    2
    88    43    42    1
    89   111   114    1
    90   111   110    1
    91   111   112    1
    92    11    12    2
    93    17    14    1
    94    17    19    1
    95   116   117    2
    96    14    13    1
    97   112   119   am
    98    42    41    1
    99    42    45    1
   100    39    38    1
   101   119   120    1
   102    45    46    1
   103   120   121    1
   104   120   123    1
   105   121   122    2
   106    25    26    1
   107    38    35    1
   108    38    40    1
   109    35    36    1
   110    35    34    1
   111   139   136    1
   112    46    48   ar
   113    46    47   ar
   114    26    27    1
   115    26    29    1
   116    36    37    2
   117    48    50   ar
   118   123   124    1
   119    27    28    2
   120    29    30    1
   121    47    49   ar
   122   135   136    1
   123   136   137    1
   124   124   125    2
   125   124   126   am
   126    50    51   ar
   127    30    31    1
   128   146   145   ar
   129    32    31    1
   130    32    33    1
   131   137   140   am
   132   137   138    2
   133   140   141    1
   134    49    51   ar
   135   144   145    1
   136   144   141    1
   137   145   147   ar
   138   141   142    1
   139   142   143    2
