@<TRIPOS>MOLECULE
tmp/3nusA00.pdb
 99 90 0 0 0
SMALL
GASTEIGER

@<TRIPOS>ATOM
      1  N        -39.6400   17.3230   19.0770 N.3    16  LEU16      -0.1231
      2  CA       -39.0200   17.3410   17.7530 C.3    16  LEU16       0.1693
      3  C        -39.4210   18.5660   16.9370 C.2    16  LEU16       0.2592
      4  O        -38.6990   18.9830   16.0380 O.2    16  LEU16      -0.2718
      5  CB       -39.4000   16.0850   16.9720 C.3    16  LEU16       0.0284
      6  CG       -38.9870   14.7410   17.5570 C.3    16  LEU16       0.0019
      7  CD1      -39.5620   13.6390   16.7030 C.3    16  LEU16       0.0001
      8  CD2      -37.4740   14.6310   17.6460 C.3    16  LEU16       0.0001
      9  N        -40.5830   19.1300   17.2390 N.am   17  GLY17      -0.1957
     10  CA       -41.0660   20.2830   16.5100 C.3    17  GLY17       0.1869
     11  C        -42.2970   20.8930   17.1400 C.2    17  GLY17       0.2309
     12  O        -43.1120   20.1890   17.7340 O.2    17  GLY17      -0.2863
     13  N        -44.6870   18.0640   18.0410 N.3    24  VAL24      -0.1245
     14  CA       -44.2250   16.7210   17.7290 C.3    24  VAL24       0.1561
     15  C        -43.2120   16.2540   18.7730 C.2    24  VAL24       0.2260
     16  O        -42.2360   16.9510   19.0630 O.2    24  VAL24      -0.2867
     17  CB       -43.6190   16.6320   16.3260 C.3    24  VAL24       0.0252
     18  CG1      -43.2530   15.1880   16.0120 C.3    24  VAL24       0.0019
     19  CG2      -44.6040   17.1680   15.2980 C.3    24  VAL24       0.0019
     20  N        -42.3770    9.4230   15.8300 N.3    37  ALA37      -0.1245
     21  CA       -42.5520   10.8460   16.0920 C.3    37  ALA37       0.1562
     22  C        -44.0440   11.1110   16.1820 C.2    37  ALA37       0.2260
     23  O        -44.7470   11.0670   15.1710 O.2    37  ALA37      -0.2867
     24  CB       -41.9300   11.6710   15.0060 C.3    37  ALA37       0.0290
     25  N        -47.1950   13.3400   16.6120 N.3    39  LYS39      -0.1245
     26  CA       -47.7280   14.6890   16.4930 C.3    39  LYS39       0.1561
     27  C        -48.9210   14.8220   17.4340 C.2    39  LYS39       0.2260
     28  O        -49.9070   14.0920   17.3010 O.2    39  LYS39      -0.2867
     29  CB       -48.1630   14.9550   15.0500 C.3    39  LYS39       0.0271
     30  CG       -48.1250   16.4130   14.6410 C.3    39  LYS39       0.0035
     31  CD       -49.0490   16.6750   13.4690 C.3    39  LYS39       0.0206
     32  CE       -48.7720   18.0200   12.7990 C.3    39  LYS39       0.1093
     33  NZ       -47.6270   17.9680   11.8370 N.3    39  LYS39      -0.1314
     34  N        -43.2020   11.0150    4.9210 N.3    71  VAL71      -0.1245
     35  CA       -43.4410   10.6070    6.2940 C.3    71  VAL71       0.1561
     36  C        -44.6440    9.6870    6.3100 C.2    71  VAL71       0.2260
     37  O        -45.6580    9.9850    5.6980 O.2    71  VAL71      -0.2867
     38  CB       -43.7320   11.8210    7.1870 C.3    71  VAL71       0.0252
     39  CG1      -44.9750   12.5460    6.6940 C.3    71  VAL71       0.0019
     40  CG2      -43.9010   11.3920    8.6340 C.3    71  VAL71       0.0019
     41  N        -46.1080    9.1330   13.5930 N.3    87  LEU87      -0.1231
     42  CA       -45.4180    9.4080   12.3390 C.3    87  LEU87       0.1693
     43  C        -44.0350    8.7580   12.2710 C.2    87  LEU87       0.2593
     44  O        -43.4330    8.4590   13.2990 O.2    87  LEU87      -0.2718
     45  CB       -45.2670   10.9190   12.1570 C.3    87  LEU87       0.0284
     46  CG       -46.5230   11.7810   12.2510 C.3    87  LEU87       0.0019
     47  CD1      -46.1760   13.2220   11.9390 C.3    87  LEU87       0.0001
     48  CD2      -47.5900   11.2740   11.3010 C.3    87  LEU87       0.0001
     49  N        -43.5330    8.5480   11.0560 N.am   88  SER88      -0.1938
     50  CA       -42.1370    8.1740   10.8570 C.3    88  SER88       0.2055
     51  C        -41.2190    9.1450   11.5910 C.2    88  SER88       0.2643
     52  O        -41.5020   10.3340   11.6800 O.2    88  SER88      -0.2714
     53  CB       -41.7850    8.2010    9.3740 C.3    88  SER88       0.2130
     54  OG       -42.6980    7.4270    8.6340 O.3    88  SER88      -0.2179
     55  N        -40.1120    8.6360   12.1070 N.am   89  TYR89      -0.1959
     56  CA       -39.1350    9.4700   12.7870 C.3    89  TYR89       0.1771
     57  C        -37.8920    9.6570   11.9150 C.2    89  TYR89       0.2619
     58  O        -37.1530    8.7120   11.6410 O.2    89  TYR89      -0.2715
     59  CB       -38.7850    8.8700   14.1540 C.3    89  TYR89       0.0574
     60  CG       -37.6130    9.5280   14.8480 C.ar   89  TYR89      -0.0198
     61  CD1      -37.4810   10.9060   14.8700 C.ar   89  TYR89      -0.0009
     62  CD2      -36.6460    8.7650   15.4930 C.ar   89  TYR89      -0.0009
     63  CE1      -36.4150   11.5120   15.5040 C.ar   89  TYR89       0.0417
     64  CE2      -35.5750    9.3590   16.1270 C.ar   89  TYR89       0.0417
     65  CZ       -35.4640   10.7370   16.1340 C.ar   89  TYR89       0.1957
     66  OH       -34.4020   11.3440   16.7710 O.3    89  TYR89      -0.2866
     67  N        -37.6860   10.8880   11.4630 N.am   90  ALA90      -0.1977
     68  CA       -36.5210   11.2330   10.6660 C.3    90  ALA90       0.1597
     69  C        -35.3690   11.6400   11.5790 C.2    90  ALA90       0.2287
     70  O        -35.2790   12.7890   12.0130 O.2    90  ALA90      -0.2864
     71  CB       -36.8620   12.3500    9.7040 C.3    90  ALA90       0.0319
     72  N        -33.0310   14.9820   11.0240 N.3    93  GLY93      -0.1225
     73  CA       -33.5880   16.3220   11.0430 C.3    93  GLY93       0.1811
     74  C        -33.9120   16.9570    9.7050 C.2    93  GLY93       0.2280
     75  O        -34.1980   16.2730    8.7270 O.2    93  GLY93      -0.2866
     76  N        -37.3400   16.3830    5.5640 N.3   140  LEU140     -0.1245
     77  CA       -36.5400   15.7710    6.6080 C.3   140  LEU140      0.1561
     78  C        -35.5560   14.7760    6.0210 C.2   140  LEU140      0.2260
     79  O        -35.6760   14.3700    4.8700 O.2   140  LEU140     -0.2867
     80  CB       -37.4420   15.0870    7.6370 C.3   140  LEU140      0.0270
     81  CG       -38.5840   15.9430    8.1960 C.3   140  LEU140      0.0019
     82  CD1      -39.2500   15.2400    9.3620 C.3   140  LEU140      0.0001
     83  CD2      -38.0740   17.2990    8.6290 C.3   140  LEU140      0.0001
     84  N        -37.4530   12.5840    3.6520 N.3   148  GLN148     -0.1245
     85  CA       -38.8220   12.2460    4.0200 C.3   148  GLN148      0.1566
     86  C        -39.5660   13.5560    4.1140 C.2   148  GLN148      0.2260
     87  O        -39.2730   14.3720    4.9830 O.2   148  GLN148     -0.2867
     88  CB       -38.8970   11.5090    5.3630 C.3   148  GLN148      0.0367
     89  CG       -38.3840   10.0700    5.3270 C.3   148  GLN148      0.0905
     90  CD       -38.8680    9.2320    6.5060 C.2   148  GLN148      0.2608
     91  OE1      -39.3920    8.1310    6.3260 O.2   148  GLN148     -0.2717
     92  NE2      -38.7000    9.7540    7.7150 N.am  148  GLN148     -0.0878
     93  N        -42.5950   16.0290    4.9050 N.3   150  THR150     -0.1218
     94  CA       -43.6100   16.0510    5.9490 C.3   150  THR150      0.1862
     95  C        -44.4360   17.3350    5.9760 C.2   150  THR150      0.2287
     96  O        -44.2720   18.2080    5.1300 O.2   150  THR150     -0.2866
     97  CB       -42.9770   15.8230    7.3340 C.3   150  THR150      0.1770
     98  OG1      -44.0130   15.6150    8.3050 O.3   150  THR150     -0.2211
     99  CG2      -42.1140   17.0150    7.7340 C.3   150  THR150      0.0375
@<TRIPOS>BOND
     1    84    85    1
     2    85    86    1
     3    85    88    1
     4    86    87    2
     5    79    78    2
     6    93    94    1
     7    34    35    1
     8    96    95    2
     9    89    88    1
    10    89    90    1
    11    76    77    1
    12    37    36    2
    13    94    95    1
    14    94    97    1
    15    78    77    1
    16    35    36    1
    17    35    38    1
    18    91    90    2
    19    90    92   am
    20    77    80    1
    21    39    38    1
    22    38    40    1
    23    97    99    1
    24    97    98    1
    25    80    81    1
    26    81    83    1
    27    81    82    1
    28    54    53    1
    29    75    74    2
    30    53    50    1
    31    71    68    1
    32    74    73    1
    33    68    67    1
    34    68    69    1
    35    50    49    1
    36    50    51    1
    37    72    73    1
    38    49    43   am
    39    48    46    1
    40    67    57   am
    41    69    70    2
    42    51    52    2
    43    51    55   am
    44    58    57    2
    45    33    32    1
    46    57    56    1
    47    47    46    1
    48    55    56    1
    49    45    46    1
    50    45    42    1
    51    43    42    1
    52    43    44    2
    53    42    41    1
    54    56    59    1
    55    32    31    1
    56    31    30    1
    57    59    60    1
    58    30    29    1
    59    60    61   ar
    60    60    62   ar
    61    61    63   ar
    62    24    21    1
    63    29    26    1
    64    23    22    2
    65    19    17    1
    66    62    64   ar
    67    63    65   ar
    68    20    21    1
    69    18    17    1
    70     4     3    2
    71    21    22    1
    72    64    65   ar
    73    65    66    1
    74    17    14    1
    75    26    25    1
    76    26    27    1
    77    10    11    1
    78    10     9    1
    79     7     6    1
    80     3     9   am
    81     3     2    1
    82     5     6    1
    83     5     2    1
    84    11    12    2
    85    28    27    2
    86     6     8    1
    87    14    13    1
    88    14    15    1
    89     2     1    1
    90    15    16    2
