@<TRIPOS>MOLECULE
tmp/3nutC00.pdb
 167 161 0 0 0
SMALL
GASTEIGER

@<TRIPOS>ATOM
      1  N         11.5500   42.8740   37.9230 N.3    12  PRO12      -0.2116
      2  CA        10.4240   43.4160   38.6750 C.3    12  PRO12       0.1372
      3  C          9.3650   44.1910   37.8730 C.2    12  PRO12       0.2244
      4  O          8.3350   44.5400   38.4210 O.2    12  PRO12      -0.2868
      5  CB        11.1040   44.3080   39.7160 C.3    12  PRO12       0.0268
      6  CG        12.3620   44.7740   39.0450 C.3    12  PRO12       0.0207
      7  CD        12.7350   43.7480   37.9840 C.3    12  PRO12       0.0892
      8  N          2.1710   36.9700   35.9920 N.3    38  TYR38      -0.1241
      9  CA         3.5260   36.8440   35.4380 C.3    38  TYR38       0.1605
     10  C          3.4130   36.5450   33.9560 C.2    38  TYR38       0.2264
     11  O          4.0290   37.2250   33.1100 O.2    38  TYR38      -0.2867
     12  CB         4.3660   35.7880   36.1600 C.3    38  TYR38       0.0534
     13  CG         4.5350   36.1040   37.6340 C.ar   38  TYR38      -0.0201
     14  CD1        4.3330   37.4130   38.1080 C.ar   38  TYR38      -0.0009
     15  CD2        4.8890   35.1000   38.5560 C.ar   38  TYR38      -0.0009
     16  CE1        4.4640   37.7140   39.4180 C.ar   38  TYR38       0.0417
     17  CE2        5.0270   35.3900   39.8970 C.ar   38  TYR38       0.0417
     18  CZ         4.8100   36.7210   40.3190 C.ar   38  TYR38       0.1957
     19  OH         4.9330   37.0610   41.6370 O.3    38  TYR38      -0.2866
     20  N          2.5380   39.1420   31.3860 N.3    41  ARG41      -0.1245
     21  CA         3.6220   40.0090   30.9000 C.3    41  ARG41       0.1563
     22  C          4.2690   39.4980   29.6210 C.2    41  ARG41       0.2260
     23  O          5.1090   40.1750   29.0260 O.2    41  ARG41      -0.2867
     24  CB         4.7220   40.1420   31.9370 C.3    41  ARG41       0.0307
     25  CG         4.3570   40.8740   33.1970 C.3    41  ARG41       0.0489
     26  CD         5.6700   41.2220   33.8180 C.3    41  ARG41       0.2205
     27  NE         5.6450   41.1270   35.2640 N.pl3  41  ARG41      -0.0865
     28  CZ         6.7220   41.2430   36.0420 C.cat  41  ARG41       0.5346
     29  NH1        7.9260   41.4410   35.5030 N.pl3  41  ARG41       0.1354
     30  NH2        6.5910   41.1660   37.3640 N.pl3  41  ARG41       0.1354
     31  N          8.3900   36.5600   38.5770 N.3    80  SER80      -0.1202
     32  CA         8.8470   37.9300   38.6290 C.3    80  SER80       0.2020
     33  C         10.2200   37.9380   39.3050 C.2    80  SER80       0.2619
     34  O         10.5790   36.9910   40.0150 O.2    80  SER80      -0.2717
     35  CB         7.8540   38.7710   39.4200 C.3    80  SER80       0.2103
     36  OG         7.9910   38.4860   40.8040 O.3    80  SER80      -0.2182
     37  N         11.0000   38.9830   39.0540 N.am   81  GLY81      -0.1942
     38  CA        12.2780   39.1580   39.7320 C.3    81  GLY81       0.2014
     39  C         13.1960   38.0220   39.3820 C.2    81  GLY81       0.2638
     40  O         13.4110   37.7540   38.2140 O.2    81  GLY81      -0.2714
     41  N         13.7020   37.3260   40.3950 N.am   82  ASP82      -0.1971
     42  CA        14.5750   36.1680   40.1830 C.3    82  ASP82       0.1709
     43  C         13.8020   34.9210   40.6290 C.2    82  ASP82       0.2293
     44  O         13.1200   34.9730   41.6460 O.2    82  ASP82      -0.2864
     45  CB        15.8410   36.3690   41.0070 C.3    82  ASP82       0.1436
     46  CG        16.8530   35.2340   40.8440 C.2    82  ASP82       0.3671
     47  OD1       17.8240   35.4040   40.0590 O.co2  82  ASP82      -0.2456
     48  OD2       16.6540   34.1670   41.5050 O.co2  82  ASP82      -0.2456
     49  N         14.1400   33.5830   44.3170 N.3    85  VAL85      -0.1231
     50  CA        13.7900   34.4410   45.4620 C.3    85  VAL85       0.1692
     51  C         12.2990   34.3160   45.7100 C.2    85  VAL85       0.2592
     52  O         11.4800   34.8520   44.9490 O.2    85  VAL85      -0.2718
     53  CB        14.2260   35.9000   45.2430 C.3    85  VAL85       0.0266
     54  CG1       13.7560   36.8120   46.4000 C.3    85  VAL85       0.0020
     55  CG2       15.7670   35.9660   45.0610 C.3    85  VAL85       0.0020
     56  N         11.9490   33.5440   46.7370 N.am   86  PHE86      -0.1962
     57  CA        10.5370   33.2840   47.0990 C.3    86  PHE86       0.1771
     58  C          9.6760   33.0080   45.8840 C.2    86  PHE86       0.2619
     59  O          8.7430   33.7690   45.5830 O.2    86  PHE86      -0.2715
     60  CB         9.9780   34.4440   47.9510 C.3    86  PHE86       0.0574
     61  CG        10.8840   34.8160   49.0930 C.ar   86  PHE86      -0.0200
     62  CD1       11.2850   33.8410   50.0220 C.ar   86  PHE86      -0.0042
     63  CD2       11.3740   36.1110   49.2230 C.ar   86  PHE86      -0.0042
     64  CE1       12.1600   34.1590   51.0750 C.ar   86  PHE86      -0.0003
     65  CE2       12.2440   36.4440   50.2870 C.ar   86  PHE86      -0.0003
     66  CZ        12.6310   35.4940   51.2120 C.ar   86  PHE86      -0.0000
     67  N          9.9980   31.9300   45.1630 N.am   87  ALA87      -0.1977
     68  CA         9.3990   31.7320   43.8470 C.3    87  ALA87       0.1597
     69  C          9.4850   30.2660   43.3370 C.2    87  ALA87       0.2287
     70  O          9.6750   29.3370   44.1370 O.2    87  ALA87      -0.2864
     71  CB        10.0150   32.7170   42.8600 C.3    87  ALA87       0.0319
     72  N         16.1370   40.9300   41.1670 N.3   114  THR114     -0.1203
     73  CA        15.1830   40.7150   42.2500 C.3   114  THR114      0.1994
     74  C         14.6690   42.0650   42.7370 C.2   114  THR114      0.2617
     75  O         15.3310   43.0910   42.5400 O.2   114  THR114     -0.2717
     76  CB        15.8200   39.8650   43.3730 C.3   114  THR114      0.1784
     77  OG1       14.7920   39.2050   44.1270 O.3   114  THR114     -0.2211
     78  CG2       16.7460   40.7410   44.2850 C.3   114  THR114      0.0376
     79  N         13.4670   42.0860   43.3080 N.am  115  ALA115     -0.1979
     80  CA        12.8220   43.3520   43.6730 C.3   115  ALA115      0.1597
     81  C         13.5800   44.1590   44.7060 C.2   115  ALA115      0.2287
     82  O         13.6020   45.3880   44.6120 O.2   115  ALA115     -0.2864
     83  CB        11.4230   43.1390   44.1320 C.3   115  ALA115      0.0319
     84  N          9.7440   40.7110   51.6100 N.3   163  TYR163     -0.1227
     85  CA         8.9530   40.3400   50.4590 C.3   163  TYR163      0.1736
     86  C          7.5250   39.9930   50.9190 C.2   163  TYR163      0.2595
     87  O          7.3160   39.4990   52.0410 O.2   163  TYR163     -0.2718
     88  CB         9.6270   39.1610   49.7390 C.3   163  TYR163      0.0548
     89  CG        10.7850   39.5780   48.8480 C.ar  163  TYR163     -0.0200
     90  CD1       12.0250   39.9070   49.3960 C.ar  163  TYR163     -0.0009
     91  CD2       10.6320   39.6610   47.4650 C.ar  163  TYR163     -0.0009
     92  CE1       13.0740   40.3040   48.5990 C.ar  163  TYR163      0.0417
     93  CE2       11.6940   40.0610   46.6310 C.ar  163  TYR163      0.0417
     94  CZ        12.9120   40.3810   47.2080 C.ar  163  TYR163      0.1957
     95  OH        13.9860   40.7860   46.4150 O.3   163  TYR163     -0.2866
     96  N          6.5360   40.2720   50.0810 N.am  164  ASN164     -0.1961
     97  CA         5.1610   39.9150   50.4340 C.3   164  ASN164      0.1804
     98  C          4.7200   40.5340   51.7850 C.2   164  ASN164      0.2463
     99  O          4.2380   39.8250   52.6790 O.2   164  ASN164     -0.2730
    100  CB         5.0270   38.3820   50.4670 C.3   164  ASN164      0.1195
    101  CG         5.4210   37.7290   49.1270 C.2   164  ASN164      0.2630
    102  OD1        5.0110   38.1940   48.0690 O.2   164  ASN164     -0.2716
    103  ND2        6.2170   36.6630   49.1820 N.am  164  ASN164     -0.0877
    104  N          4.8870   41.8630   51.9410 N.am  165  PRO165     -0.2727
    105  CA         4.5130   42.5070   53.2280 C.3   165  PRO165      0.1402
    106  C          3.0230   42.3500   53.6400 C.2   165  PRO165      0.2269
    107  O          2.7310   42.3050   54.8270 O.2   165  PRO165     -0.2865
    108  CB         4.8620   43.9870   52.9940 C.3   165  PRO165      0.0296
    109  CG         4.7240   44.1680   51.5170 C.3   165  PRO165      0.0237
    110  CD         5.1830   42.8580   50.8880 C.3   165  PRO165      0.0939
    111  N          8.9270   50.7180   49.1510 N.3   194  ALA194     -0.1245
    112  CA         9.1710   50.8080   47.7160 C.3   194  ALA194      0.1562
    113  C          8.0950   50.0590   46.9420 C.2   194  ALA194      0.2260
    114  O          8.0180   48.8260   46.9940 O.2   194  ALA194     -0.2867
    115  CB        10.5680   50.2670   47.3920 C.3   194  ALA194      0.0290
    116  N          5.9140   49.1300   43.4940 N.3   196  ALA196     -0.1231
    117  CA         5.8970   49.0010   42.0320 C.3   196  ALA196      0.1694
    118  C          7.1770   49.4950   41.3870 C.2   196  ALA196      0.2591
    119  O          7.1660   50.2700   40.4290 O.2   196  ALA196     -0.2718
    120  CB         4.6620   49.7130   41.4360 C.3   196  ALA196      0.0304
    121  N          8.2900   49.0150   41.9100 N.am  197  VAL197     -0.1980
    122  CA         9.5910   49.4950   41.5110 C.3   197  VAL197      0.1595
    123  C          9.8060   49.1630   40.0540 C.2   197  VAL197      0.2287
    124  O          9.4330   48.0930   39.6000 O.2   197  VAL197     -0.2864
    125  CB        10.6800   48.9660   42.4920 C.3   197  VAL197      0.0276
    126  CG1       12.0840   49.2850   42.0050 C.3   197  VAL197      0.0022
    127  CG2       10.4590   49.6080   43.8670 C.3   197  VAL197      0.0022
    128  N          8.1480   50.2710   37.5830 N.3   199  THR199     -0.1218
    129  CA         6.9550   50.5900   36.7750 C.3   199  THR199      0.1862
    130  C          6.7460   52.1100   36.6390 C.2   199  THR199      0.2287
    131  O          7.3590   52.8970   37.3650 O.2   199  THR199     -0.2866
    132  CB         5.6500   49.9860   37.3510 C.3   199  THR199      0.1770
    133  OG1        5.2740   50.6870   38.5470 O.3   199  THR199     -0.2211
    134  CG2        5.7810   48.4980   37.6160 C.3   199  THR199      0.0375
    135  N          0.4920   45.1690   47.9760 N.3   219  MET219     -0.1230
    136  CA         0.9210   43.9110   47.3250 C.3   219  MET219      0.1702
    137  C          2.1970   44.0440   46.4970 C.2   219  MET219      0.2592
    138  O          2.9770   43.1000   46.3970 O.2   219  MET219     -0.2718
    139  CB        -0.2020   43.3350   46.4470 C.3   219  MET219      0.0401
    140  CG        -1.5580   43.1530   47.1590 C.3   219  MET219      0.0596
    141  SD        -1.7080   41.6530   48.1890 S.3   219  MET219     -0.1393
    142  CE        -1.2750   40.3700   46.9880 C.3   219  MET219      0.0692
    143  N          2.3970   45.2210   45.9180 N.am  220  ARG220     -0.1966
    144  CA         3.4930   45.4910   44.9990 C.3   220  ARG220      0.1729
    145  C          4.6140   46.2430   45.6880 C.2   220  ARG220      0.2617
    146  O          5.3170   47.0330   45.0480 O.2   220  ARG220     -0.2715
    147  CB         2.9970   46.3580   43.8240 C.3   220  ARG220      0.0348
    148  CG         1.8420   45.7750   42.9680 C.3   220  ARG220      0.0492
    149  CD         0.9650   46.8860   42.3280 C.3   220  ARG220      0.2205
    150  NE         1.6590   47.7620   41.3660 N.pl3 220  ARG220     -0.0865
    151  CZ         1.8760   47.4810   40.0770 C.cat 220  ARG220      0.5346
    152  NH1        1.4770   46.3200   39.5550 N.pl3 220  ARG220      0.1354
    153  NH2        2.5090   48.3600   39.2990 N.pl3 220  ARG220      0.1354
    154  N          4.7860   46.0090   46.9790 N.am  221  THR221     -0.1937
    155  CA         5.7250   46.7620   47.7670 C.3   221  THR221      0.2028
    156  C          6.7460   45.8110   48.3740 C.2   221  THR221      0.2642
    157  O          6.3790   44.7470   48.8710 O.2   221  THR221     -0.2714
    158  CB         4.9860   47.5660   48.9190 C.3   221  THR221      0.1808
    159  OG1        3.9050   48.3280   48.3590 O.3   221  THR221     -0.2208
    160  CG2        5.9200   48.5200   49.6490 C.3   221  THR221      0.0379
    161  N          8.0200   46.2050   48.3280 N.am  222  VAL222     -0.1977
    162  CA         9.0610   45.5570   49.0780 C.3   222  VAL222      0.1596
    163  C          9.4980   46.5710   50.1270 C.2   222  VAL222      0.2287
    164  O          9.6320   47.7460   49.8250 O.2   222  VAL222     -0.2864
    165  CB        10.2620   45.0780   48.1760 C.3   222  VAL222      0.0276
    166  CG1       10.7630   46.1590   47.2170 C.3   222  VAL222      0.0022
    167  CG2       11.4140   44.5600   49.0240 C.3   222  VAL222      0.0022
@<TRIPOS>BOND
     1    23    22    2
     2    22    21    1
     3    21    20    1
     4    21    24    1
     5    24    25    1
     6    11    10    2
     7    25    26    1
     8    26    27    1
     9    10     9    1
    10    27    28    2
    11     9     8    1
    12     9    12    1
    13    29    28    1
    14    28    30    1
    15    12    13    1
    16   130   129    1
    17   130   131    2
    18   129   132    1
    19   129   128    1
    20   132   134    1
    21   132   133    1
    22    13    14   ar
    23    13    15   ar
    24     3     4    2
    25     3     2    1
    26     1     7    1
    27     1     2    1
    28     7     6    1
    29    14    16   ar
    30    40    39    2
    31    15    17   ar
    32    31    32    1
    33    32    33    1
    34    32    35    1
    35     2     5    1
    36     6     5    1
    37    37    33   am
    38    37    38    1
    39   153   151    1
    40    33    34    2
    41    39    38    1
    42    39    41   am
    43    16    18   ar
    44    35    36    1
    45   152   151    1
    46   124   123    2
    47    17    18   ar
    48   123   122    1
    49    47    46   ar
    50   151   150    2
    51    42    41    1
    52    42    43    1
    53    42    45    1
    54    18    19    1
    55   119   118    2
    56    43    44    2
    57    46    45    1
    58    46    48   ar
    59    72    73    1
    60   150   149    1
    61   118   121   am
    62   118   117    1
    63   120   117    1
    64   122   121    1
    65   122   125    1
    66   126   125    1
    67   117   116    1
    68    73    74    1
    69    73    76    1
    70   149   148    1
    71   125   127    1
    72    75    74    2
    73    74    79   am
    74    71    68    1
    75   148   147    1
    76    79    80    1
    77    69    68    1
    78    69    70    2
    79    76    77    1
    80    76    78    1
    81    80    83    1
    82    80    81    1
    83   147   144    1
    84    68    67    1
    85    49    50    1
    86    82    81    2
    87    52    51    2
    88   144   145    1
    89   144   143    1
    90   146   145    2
    91    55    53    1
    92    67    58   am
    93    53    50    1
    94    53    54    1
    95    50    51    1
    96    59    58    2
    97   145   154   am
    98    51    56   am
    99    58    57    1
   100   143   137   am
   101   138   137    2
   102    95    94    1
   103   139   140    1
   104   139   136    1
   105   137   136    1
   106    93    94   ar
   107    93    91   ar
   108    56    57    1
   109   113   114    2
   110   113   112    1
   111   154   155    1
   112   142   141    1
   113    57    60    1
   114   140   141    1
   115    94    92   ar
   116   166   165    1
   117   136   135    1
   118   115   112    1
   119    91    89   ar
   120   112   111    1
   121   155   156    1
   122   155   158    1
   123    60    61    1
   124   102   101    2
   125   165   167    1
   126   165   162    1
   127   161   156   am
   128   161   162    1
   129   159   158    1
   130   156   157    2
   131    92    90   ar
   132    89    90   ar
   133    89    88    1
   134   158   160    1
   135   162   163    1
   136    61    63   ar
   137    61    62   ar
   138   101   103   am
   139   101   100    1
   140    63    65   ar
   141    88    85    1
   142   164   163    2
   143    62    64   ar
   144    96    97    1
   145    96    86   am
   146    65    66   ar
   147    97   100    1
   148    97    98    1
   149    85    86    1
   150    85    84    1
   151   110   109    1
   152   110   104    1
   153    86    87    2
   154    64    66   ar
   155   109   108    1
   156    98   104   am
   157    98    99    2
   158   104   105    1
   159   108   105    1
   160   105   106    1
   161   106   107    2
