@<TRIPOS>MOLECULE
tmp/3nuuA00.pdb
 104 95 0 0 0
SMALL
GASTEIGER

@<TRIPOS>ATOM
      1  N        -38.8990   17.5040   19.2940 N.3    16  LEU16      -0.1231
      2  CA       -38.1720   17.5500   18.0250 C.3    16  LEU16       0.1693
      3  C        -38.5510   18.7690   17.2120 C.2    16  LEU16       0.2592
      4  O        -37.7950   19.2170   16.3570 O.2    16  LEU16      -0.2718
      5  CB       -38.4730   16.3050   17.1870 C.3    16  LEU16       0.0284
      6  CG       -37.9430   14.9900   17.7520 C.3    16  LEU16       0.0019
      7  CD1      -38.4170   13.8200   16.9060 C.3    16  LEU16       0.0001
      8  CD2      -36.4440   15.0580   17.8050 C.3    16  LEU16       0.0001
      9  N        -39.7430   19.2860   17.4560 N.am   17  GLY17      -0.1957
     10  CA       -40.2260   20.4150   16.6940 C.3    17  GLY17       0.1869
     11  C        -41.5210   20.9160   17.2760 C.2    17  GLY17       0.2309
     12  O        -42.2920   20.1450   17.8370 O.2    17  GLY17      -0.2863
     13  N        -44.0190   18.0590   18.0660 N.3    24  VAL24      -0.1245
     14  CA       -43.5310   16.7310   17.7370 C.3    24  VAL24       0.1561
     15  C        -42.5150   16.2940   18.7800 C.2    24  VAL24       0.2260
     16  O        -41.5280   16.9900   19.0220 O.2    24  VAL24      -0.2867
     17  CB       -42.9290   16.6650   16.3240 C.3    24  VAL24       0.0252
     18  CG1      -42.4990   15.2340   16.0140 C.3    24  VAL24       0.0019
     19  CG2      -43.9530   17.1570   15.2820 C.3    24  VAL24       0.0019
     20  N        -41.4810    9.5890   15.8360 N.3    37  ALA37      -0.1245
     21  CA       -41.7260   11.0080   16.0290 C.3    37  ALA37       0.1562
     22  C        -43.2360   11.1630   16.1520 C.2    37  ALA37       0.2260
     23  O        -43.9700   11.0080   15.1730 O.2    37  ALA37      -0.2867
     24  CB       -41.1850   11.8210   14.8440 C.3    37  ALA37       0.0290
     25  N        -46.4750   13.2840   16.6500 N.3    39  LYS39      -0.1245
     26  CA       -47.0270   14.6260   16.5380 C.3    39  LYS39       0.1561
     27  C        -48.2340   14.7280   17.4580 C.2    39  LYS39       0.2260
     28  O        -49.1820   13.9420   17.3440 O.2    39  LYS39      -0.2867
     29  CB       -47.4280   14.9390   15.0860 C.3    39  LYS39       0.0271
     30  CG       -47.9720   16.3500   14.9130 C.3    39  LYS39       0.0035
     31  CD       -48.2430   16.7100   13.4620 C.3    39  LYS39       0.0206
     32  CE       -46.9770   17.1300   12.7430 C.3    39  LYS39       0.1093
     33  NZ       -47.3000   17.8680   11.4750 N.3    39  LYS39      -0.1314
     34  N        -42.5700   11.0930    4.8030 N.3    71  VAL71      -0.1245
     35  CA       -42.9400   10.6950    6.1510 C.3    71  VAL71       0.1561
     36  C        -44.0100    9.6280    6.0760 C.2    71  VAL71       0.2260
     37  O        -44.8820    9.6710    5.2060 O.2    71  VAL71      -0.2867
     38  CB       -43.5310   11.8720    6.9140 C.3    71  VAL71       0.0252
     39  CG1      -44.7860   12.3600    6.1920 C.3    71  VAL71       0.0019
     40  CG2      -43.8420   11.4760    8.3570 C.3    71  VAL71       0.0019
     41  N        -45.4210    9.0410   13.6520 N.3    87  LEU87      -0.1231
     42  CA       -44.7300    9.2880   12.3860 C.3    87  LEU87       0.1693
     43  C        -43.3130    8.7170   12.3560 C.2    87  LEU87       0.2593
     44  O        -42.6800    8.5100   13.3950 O.2    87  LEU87      -0.2718
     45  CB       -44.6760   10.7930   12.0810 C.3    87  LEU87       0.0284
     46  CG       -45.9900   11.5710   12.1550 C.3    87  LEU87       0.0019
     47  CD1      -45.7420   13.0730   12.0290 C.3    87  LEU87       0.0001
     48  CD2      -46.9900   11.0810   11.1060 C.3    87  LEU87       0.0001
     49  N        -42.8010    8.4650   11.1590 N.am   88  SER88      -0.1938
     50  CA       -41.4140    8.0600   11.0580 C.3    88  SER88       0.2055
     51  C        -40.5110    9.1630   11.5820 C.2    88  SER88       0.2643
     52  O        -40.7680   10.3420   11.3940 O.2    88  SER88      -0.2714
     53  CB       -41.0360    7.7050    9.6210 C.3    88  SER88       0.2130
     54  OG       -41.6510    8.5890    8.7180 O.3    88  SER88      -0.2179
     55  N        -39.4440    8.7510   12.2440 N.am   89  TYR89      -0.1959
     56  CA       -38.4940    9.6650   12.8240 C.3    89  TYR89       0.1771
     57  C        -37.3220    9.8320   11.8570 C.2    89  TYR89       0.2619
     58  O        -36.6440    8.8660   11.5150 O.2    89  TYR89      -0.2715
     59  CB       -38.0370    9.0970   14.1770 C.3    89  TYR89       0.0574
     60  CG       -36.8720    9.8120   14.8070 C.ar   89  TYR89      -0.0198
     61  CD1      -36.8340   11.1960   14.8790 C.ar   89  TYR89      -0.0009
     62  CD2      -35.8210    9.0960   15.3560 C.ar   89  TYR89      -0.0009
     63  CE1      -35.7660   11.8440   15.4700 C.ar   89  TYR89       0.0417
     64  CE2      -34.7600    9.7270   15.9320 C.ar   89  TYR89       0.0417
     65  CZ       -34.7380   11.1010   16.0000 C.ar   89  TYR89       0.1957
     66  OH       -33.6600   11.7160   16.5830 O.3    89  TYR89      -0.2866
     67  N        -37.1030   11.0630   11.4100 N.am   90  ALA90      -0.1977
     68  CA       -36.0180   11.3720   10.4940 C.3    90  ALA90       0.1597
     69  C        -34.7920   11.7530   11.3110 C.2    90  ALA90       0.2287
     70  O        -34.6530   12.8930   11.7260 O.2    90  ALA90      -0.2864
     71  CB       -36.4200   12.5040    9.5700 C.3    90  ALA90       0.0319
     72  N        -33.2960   18.4190    9.4810 N.3    94  GLU94      -0.1245
     73  CA       -33.6710   19.1860    8.2920 C.3    94  GLU94       0.1567
     74  C        -32.5640   19.3550    7.2580 C.2    94  GLU94       0.2260
     75  O        -31.4060   19.5520    7.5940 O.2    94  GLU94      -0.2867
     76  CB       -34.1750   20.5730    8.6990 C.3    94  GLU94       0.0388
     77  CG       -35.3130   20.5410    9.7100 C.3    94  GLU94       0.1160
     78  CD       -35.6620   21.9170   10.2340 C.2    94  GLU94       0.3649
     79  OE1      -34.9990   22.8980    9.8210 O.co2  94  GLU94      -0.2457
     80  OE2      -36.6040   22.0180   11.0530 O.co2  94  GLU94      -0.2457
     81  N        -36.7780   16.4610    5.3960 N.3   140  LEU140     -0.1245
     82  CA       -35.9330   15.8970    6.4400 C.3   140  LEU140      0.1561
     83  C        -34.9780   14.8570    5.8570 C.2   140  LEU140      0.2260
     84  O        -35.0720   14.4960    4.6740 O.2   140  LEU140     -0.2867
     85  CB       -36.8060   15.3050    7.5540 C.3   140  LEU140      0.0270
     86  CG       -37.9100   16.2370    8.0830 C.3   140  LEU140      0.0019
     87  CD1      -38.5530   15.6520    9.3400 C.3   140  LEU140      0.0001
     88  CD2      -37.3480   17.6120    8.3830 C.3   140  LEU140      0.0001
     89  N        -36.8460   12.6990    3.3930 N.3   148  GLN148     -0.1245
     90  CA       -38.1450   12.3080    3.8800 C.3   148  GLN148      0.1566
     91  C        -38.9580   13.5820    4.0010 C.2   148  GLN148      0.2260
     92  O        -38.7510   14.3790    4.9200 O.2   148  GLN148     -0.2867
     93  CB       -38.0150   11.6350    5.2460 C.3   148  GLN148      0.0367
     94  CG       -39.3630   11.2860    5.8300 C.3   148  GLN148      0.0905
     95  CD       -39.2630   10.6640    7.2000 C.2   148  GLN148      0.2608
     96  OE1      -38.3460    9.8860    7.4830 O.2   148  GLN148     -0.2717
     97  NE2      -40.2160   10.9980    8.0610 N.am  148  GLN148     -0.0878
     98  N        -42.0020   16.0600    4.7070 N.3   150  THR150     -0.1218
     99  CA       -42.9590   16.1640    5.7640 C.3   150  THR150      0.1862
    100  C        -43.8330   17.3920    5.6910 C.2   150  THR150      0.2287
    101  O        -43.6930   18.1960    4.8260 O.2   150  THR150     -0.2866
    102  CB       -42.2740   16.1510    7.1410 C.3   150  THR150      0.1770
    103  OG1      -43.2960   16.0390    8.1320 O.3   150  THR150     -0.2211
    104  CG2      -41.4850   17.4050    7.3500 C.3   150  THR150      0.0375
@<TRIPOS>BOND
     1    89    90    1
     2    90    91    1
     3    90    93    1
     4    91    92    2
     5    84    83    2
     6    98    99    1
     7    34    35    1
     8   101   100    2
     9    37    36    2
    10    93    94    1
    11    81    82    1
    12   100    99    1
    13    99   102    1
    14    94    95    1
    15    83    82    1
    16    36    35    1
    17    35    38    1
    18    39    38    1
    19    82    85    1
    20    38    40    1
    21   102   104    1
    22   102   103    1
    23    95    96    2
    24    95    97   am
    25    74    75    2
    26    74    73    1
    27    85    86    1
    28    86    88    1
    29    86    87    1
    30    73    76    1
    31    73    72    1
    32    76    77    1
    33    54    53    1
    34    71    68    1
    35    53    50    1
    36    77    78    1
    37    79    78   ar
    38    78    80   ar
    39    68    69    1
    40    68    67    1
    41    50    49    1
    42    50    51    1
    43    48    46    1
    44    49    43   am
    45    69    70    2
    46    52    51    2
    47    67    57   am
    48    33    32    1
    49    58    57    2
    50    51    55   am
    51    57    56    1
    52    47    46    1
    53    45    46    1
    54    45    42    1
    55    55    56    1
    56    43    42    1
    57    43    44    2
    58    42    41    1
    59    32    31    1
    60    56    59    1
    61    31    30    1
    62    59    60    1
    63    60    61   ar
    64    60    62   ar
    65    24    21    1
    66    61    63   ar
    67    30    29    1
    68    29    26    1
    69    23    22    2
    70    19    17    1
    71    62    64   ar
    72    63    65   ar
    73    20    21    1
    74    64    65   ar
    75    65    66    1
    76    18    17    1
    77    21    22    1
    78    17    14    1
    79     4     3    2
    80    26    25    1
    81    26    27    1
    82    10    11    1
    83    10     9    1
    84     7     6    1
    85     5     6    1
    86     5     2    1
    87     3     9   am
    88     3     2    1
    89    11    12    2
    90    28    27    2
    91    14    13    1
    92    14    15    1
    93     6     8    1
    94     2     1    1
    95    15    16    2
