@<TRIPOS>MOLECULE
tmp/3nuxA00.pdb
 147 139 0 0 0
SMALL
GASTEIGER

@<TRIPOS>ATOM
      1  N          9.5810   23.9270   11.3020 N.3    10  ILE10      -0.1231
      2  CA        10.3210   25.1680   11.1240 C.3    10  ILE10       0.1692
      3  C          9.5200   26.1830   10.3280 C.2    10  ILE10       0.2592
      4  O          9.2270   27.2840   10.8020 O.2    10  ILE10      -0.2718
      5  CB        11.6550   24.8940   10.3900 C.3    10  ILE10       0.0266
      6  CG1       12.6310   24.1660   11.3160 C.3    10  ILE10       0.0019
      7  CG2       12.2630   26.1790    9.9150 C.3    10  ILE10       0.0020
      8  CD1       13.9480   23.8510   10.6570 C.3    10  ILE10       0.0001
      9  N          9.1710   25.8020    9.1100 N.am   11  GLY11      -0.1957
     10  CA         8.4070   26.6900    8.2670 C.3    11  GLY11       0.1869
     11  C          7.6300   25.8980    7.2450 C.2    11  GLY11       0.2309
     12  O          7.8640   24.7030    7.0540 O.2    11  GLY11      -0.2863
     13  N          8.9150   22.3470    5.7380 N.3    17  VAL17      -0.1245
     14  CA        10.2140   22.0850    6.3720 C.3    17  VAL17       0.1561
     15  C         10.1560   21.8160    7.8700 C.2    17  VAL17       0.2260
     16  O          9.4730   22.5200    8.6070 O.2    17  VAL17      -0.2867
     17  CB        11.1550   23.2700    6.1890 C.3    17  VAL17       0.0252
     18  CG1       12.5420   22.9130    6.7010 C.3    17  VAL17       0.0019
     19  CG2       11.1870   23.6760    4.7380 C.3    17  VAL17       0.0019
     20  N         17.5240   19.8260    8.9330 N.3    31  ALA31      -0.1245
     21  CA        16.3230   20.4230    8.3840 C.3    31  ALA31       0.1562
     22  C         15.8260   19.5450    7.2650 C.2    31  ALA31       0.2260
     23  O         16.4780   19.4240    6.2400 O.2    31  ALA31      -0.2867
     24  CB        16.6170   21.8040    7.8660 C.3    31  ALA31       0.0290
     25  N         13.1460   18.7420    4.3640 N.3    33  LYS33      -0.1245
     26  CA        12.2000   19.3940    3.4850 C.3    33  LYS33       0.1561
     27  C         11.5950   18.2820    2.6450 C.2    33  LYS33       0.2260
     28  O         12.3090   17.5290    1.9720 O.2    33  LYS33      -0.2867
     29  CB        12.9080   20.4370    2.6050 C.3    33  LYS33       0.0271
     30  CG        11.9790   21.1830    1.6510 C.3    33  LYS33       0.0035
     31  CD        12.2650   22.6760    1.6100 C.3    33  LYS33       0.0206
     32  CE        13.6530   22.9700    1.0940 C.3    33  LYS33       0.1093
     33  NZ        13.8780   24.4170    0.8760 N.3    33  LYS33      -0.1314
     34  N         23.7700   26.6210    3.0520 N.3    59  VAL59      -0.1245
     35  CA        23.5260   25.4830    3.9290 C.3    59  VAL59       0.1561
     36  C         23.9750   24.1530    3.3340 C.2    59  VAL59       0.2260
     37  O         23.6860   23.8530    2.1780 O.2    59  VAL59      -0.2867
     38  CB        22.0320   25.3650    4.3180 C.3    59  VAL59       0.0252
     39  CG1       21.6830   26.4080    5.3520 C.3    59  VAL59       0.0019
     40  CG2       21.1700   25.5270    3.0990 C.3    59  VAL59       0.0019
     41  N         19.1140   18.9790    5.0670 N.3    72  PHE72      -0.1227
     42  CA        20.1040   20.0480    5.1510 C.3    72  PHE72       0.1736
     43  C         20.5590   20.2480    6.5820 C.2    72  PHE72       0.2595
     44  O         19.8750   19.8650    7.5240 O.2    72  PHE72      -0.2718
     45  CB        19.5010   21.3680    4.6920 C.3    72  PHE72       0.0547
     46  CG        19.0230   21.3750    3.2800 C.ar   72  PHE72      -0.0202
     47  CD1       19.8510   21.8310    2.2590 C.ar   72  PHE72      -0.0042
     48  CD2       17.7160   21.0100    2.9820 C.ar   72  PHE72      -0.0042
     49  CE1       19.3770   21.9450    0.9750 C.ar   72  PHE72      -0.0003
     50  CE2       17.2300   21.1200    1.6970 C.ar   72  PHE72      -0.0003
     51  CZ        18.0590   21.5870    0.6900 C.ar   72  PHE72      -0.0000
     52  N         21.7150   20.8660    6.7490 N.am   73  GLU73      -0.1965
     53  CA        22.2000   21.1280    8.0890 C.3    73  GLU73       0.1733
     54  C         21.2370   22.1250    8.7110 C.2    73  GLU73       0.2616
     55  O         20.6670   22.9460    8.0110 O.2    73  GLU73      -0.2715
     56  CB        23.6000   21.7270    8.0470 C.3    73  GLU73       0.0429
     57  CG        23.7020   23.0000    7.2690 C.3    73  GLU73       0.1163
     58  CD        25.0270   23.6790    7.4860 C.2    73  GLU73       0.3649
     59  OE1       25.5580   24.2790    6.5300 O.co2  73  GLU73      -0.2457
     60  OE2       25.5390   23.6240    8.6220 O.co2  73  GLU73      -0.2457
     61  N         21.0670   22.0540   10.0260 N.am   74  HIS74      -0.1959
     62  CA        20.1710   22.9480   10.7470 C.3    74  HIS74       0.1787
     63  C         20.9280   24.1360   11.3520 C.2    74  HIS74       0.2620
     64  O         22.0400   23.9880   11.8420 O.2    74  HIS74      -0.2715
     65  CB        19.4660   22.1560   11.8620 C.3    74  HIS74       0.0785
     66  CG        18.5540   22.9800   12.7180 C.ar   74  HIS74       0.0821
     67  ND1       17.1840   22.9670   12.5740 N.ar   74  HIS74      -0.2267
     68  CD2       18.8200   23.8620   13.7120 C.ar   74  HIS74       0.1154
     69  CE1       16.6460   23.8060   13.4410 C.ar   74  HIS74       0.1986
     70  NE2       17.6170   24.3620   14.1420 N.ar   74  HIS74      -0.2212
     71  N         20.3230   25.3160   11.3040 N.am   75  VAL75      -0.1963
     72  CA        20.9110   26.5190   11.8910 C.3    75  VAL75       0.1727
     73  C         19.8810   26.9980   12.9020 C.2    75  VAL75       0.2616
     74  O         18.7070   27.0990   12.5890 O.2    75  VAL75      -0.2715
     75  CB        21.1280   27.6230   10.8440 C.3    75  VAL75       0.0290
     76  CG1       21.7390   28.8510   11.4940 C.3    75  VAL75       0.0023
     77  CG2       22.0110   27.1190    9.7480 C.3    75  VAL75       0.0023
     78  N         20.3130   27.2910   14.1170 N.am   76  ASP76      -0.1957
     79  CA        19.3820   27.7200   15.1540 C.3    76  ASP76       0.1840
     80  C         18.4660   28.9000   14.8240 C.2    76  ASP76       0.2622
     81  O         17.2960   28.8950   15.1860 O.2    76  ASP76      -0.2715
     82  CB        20.1470   28.0240   16.4420 C.3    76  ASP76       0.1450
     83  CG        20.5680   26.7680   17.1800 C.2    76  ASP76       0.3671
     84  OD1       21.1850   26.8930   18.2600 O.co2  76  ASP76      -0.2456
     85  OD2       20.2800   25.6530   16.6880 O.co2  76  ASP76      -0.2456
     86  N         18.9760   29.9110   14.1350 N.am   77  GLN77      -0.1963
     87  CA        18.1430   31.0610   13.8380 C.3    77  GLN77       0.1733
     88  C         18.3950   31.7250   12.4810 C.2    77  GLN77       0.2616
     89  O         19.3940   31.4400   11.8180 O.2    77  GLN77      -0.2715
     90  CB        18.3150   32.1000   14.9500 C.3    77  GLN77       0.0408
     91  CG        19.6620   32.7860   14.9630 C.3    77  GLN77       0.0908
     92  CD        19.7800   33.8190   16.0620 C.2    77  GLN77       0.2608
     93  OE1       20.7650   34.5510   16.1320 O.2    77  GLN77      -0.2717
     94  NE2       18.7770   33.8810   16.9310 N.am   77  GLN77      -0.0878
     95  N         17.4690   32.6040   12.0830 N.am   78  ASP78      -0.1971
     96  CA        17.5700   33.3590   10.8330 C.3    78  ASP78       0.1709
     97  C         17.9200   34.8210   11.1050 C.2    78  ASP78       0.2293
     98  O         17.9820   35.2470   12.2540 O.2    78  ASP78      -0.2864
     99  CB        16.2650   33.2850   10.0150 C.3    78  ASP78       0.1436
    100  CG        15.0520   33.8380   10.7510 C.2    78  ASP78       0.3671
    101  OD1       15.1990   34.6630   11.6670 O.co2  78  ASP78      -0.2456
    102  OD2       13.9320   33.4490   10.3850 O.co2  78  ASP78      -0.2456
    103  N         15.2220   36.8520   13.3880 N.3    81  THR81      -0.1218
    104  CA        15.3120   36.5670   14.8020 C.3    81  THR81       0.1862
    105  C         16.5490   37.2760   15.3490 C.2    81  THR81       0.2287
    106  O         16.5030   37.9000   16.4090 O.2    81  THR81      -0.2866
    107  CB        15.4310   35.0640   15.0200 C.3    81  THR81       0.1770
    108  OG1       14.3360   34.4110   14.3690 O.3    81  THR81      -0.2211
    109  CG2       15.4150   34.7330   16.4990 C.3    81  THR81       0.0375
    110  N         14.3260   36.0120    6.2620 N.3   123  GLN123     -0.1231
    111  CA        13.7670   34.7430    6.6910 C.3   123  GLN123      0.1698
    112  C         14.4820   33.5360    6.1320 C.2   123  GLN123      0.2592
    113  O         14.3150   32.4340    6.6570 O.2   123  GLN123     -0.2718
    114  CB        12.2840   34.6460    6.3380 C.3   123  GLN123      0.0381
    115  CG        11.3860   35.6030    7.0790 C.3   123  GLN123      0.0905
    116  CD        11.5420   37.0180    6.5950 C.2   123  GLN123      0.2608
    117  OE1       12.1980   37.2720    5.5820 O.2   123  GLN123     -0.2717
    118  NE2       10.9280   37.9570    7.3090 N.am  123  GLN123     -0.0878
    119  N         15.2530   33.7020    5.0620 N.am  124  ASN124     -0.1974
    120  CA        15.9700   32.5430    4.5390 C.3   124  ASN124      0.1688
    121  C         17.4820   32.7520    4.4890 C.2   124  ASN124      0.2292
    122  O         18.2140   32.1020    3.7450 O.2   124  ASN124     -0.2864
    123  CB        15.4080   32.0940    3.1830 C.3   124  ASN124      0.1181
    124  CG        15.2000   33.2320    2.2300 C.2   124  ASN124      0.2629
    125  OD1       16.0830   34.0650    2.0360 O.2   124  ASN124     -0.2716
    126  ND2       14.0290   33.2690    1.6100 N.am  124  ASN124     -0.0877
    127  N         20.2330   32.4010    7.0920 N.3   126  LEU126     -0.1245
    128  CA        20.4630   31.8650    8.4340 C.3   126  LEU126      0.1561
    129  C         21.7680   32.2770    9.0890 C.2   126  LEU126      0.2260
    130  O         22.8270   32.2080    8.4850 O.2   126  LEU126     -0.2867
    131  CB        20.4040   30.3510    8.3880 C.3   126  LEU126      0.0270
    132  CG        19.2960   29.7940    7.5020 C.3   126  LEU126      0.0019
    133  CD1       19.5680   28.3340    7.2780 C.3   126  LEU126      0.0001
    134  CD2       17.9380   30.0100    8.1310 C.3   126  LEU126      0.0001
    135  N         19.8140   29.7780    2.4190 N.3   136  ALA136     -0.1231
    136  CA        19.0020   28.5750    2.3080 C.3   136  ALA136      0.1694
    137  C         17.7620   28.8810    1.4790 C.2   136  ALA136      0.2592
    138  O         17.5040   30.0340    1.1280 O.2   136  ALA136     -0.2718
    139  CB        18.5870   28.1020    3.6940 C.3   136  ALA136      0.0304
    140  N         17.0140   27.8370    1.1460 N.am  137  ASP137     -0.1974
    141  CA        15.7540   27.9960    0.4250 C.3   137  ASP137      0.1709
    142  C         15.8440   28.5870   -0.9770 C.2   137  ASP137      0.2293
    143  O         15.1730   29.5660   -1.2900 O.2   137  ASP137     -0.2864
    144  CB        14.8130   28.8480    1.2830 C.3   137  ASP137      0.1436
    145  CG        13.3500   28.4820    1.1070 C.2   137  ASP137      0.3671
    146  OD1       13.0520   27.3340    0.7070 O.co2 137  ASP137     -0.2456
    147  OD2       12.4900   29.3430    1.3960 O.co2 137  ASP137     -0.2456
@<TRIPOS>BOND
     1   143   142    2
     2   142   141    1
     3   141   140    1
     4   141   144    1
     5    51    49   ar
     6    51    50   ar
     7   146   145   ar
     8    33    32    1
     9    49    47   ar
    10    32    31    1
    11   145   144    1
    12   145   147   ar
    13   138   137    2
    14   140   137   am
    15   137   136    1
    16   126   124   am
    17    31    30    1
    18    30    29    1
    19    50    48   ar
    20    28    27    2
    21   125   124    2
    22    37    36    2
    23   124   123    1
    24    47    46   ar
    25   136   135    1
    26   136   139    1
    27    29    26    1
    28    27    26    1
    29    48    46   ar
    30    34    35    1
    31    40    38    1
    32   123   120    1
    33    46    45    1
    34    36    35    1
    35    26    25    1
    36   122   121    2
    37    35    38    1
    38    38    39    1
    39   121   120    1
    40   120   119    1
    41    45    42    1
    42    19    17    1
    43   119   112   am
    44    41    42    1
    45    42    43    1
    46   117   116    2
    47    13    14    1
    48   112   113    2
    49   112   111    1
    50    17    14    1
    51    17    18    1
    52    23    22    2
    53   110   111    1
    54   114   111    1
    55   114   115    1
    56    14    15    1
    57    59    58   ar
    58    43    52   am
    59    43    44    2
    60   116   115    1
    61   116   118   am
    62    52    53    1
    63    12    11    2
    64   127   128    1
    65    11    10    1
    66    22    21    1
    67    57    58    1
    68    57    56    1
    69   133   132    1
    70    58    60   ar
    71   132   134    1
    72   132   131    1
    73    24    21    1
    74    15    16    2
    75    55    54    2
    76    56    53    1
    77    53    54    1
    78    10     9    1
    79    21    20    1
    80   131   128    1
    81   128   129    1
    82   130   129    2
    83    54    61   am
    84     9     3   am
    85    77    75    1
    86     7     5    1
    87    99   100    1
    88    99    96    1
    89    61    62    1
    90     3     4    2
    91     3     2    1
    92   102   100   ar
    93     5     2    1
    94     5     6    1
    95     8     6    1
    96    62    63    1
    97    62    65    1
    98   100   101   ar
    99    96    97    1
   100    96    95    1
   101    75    76    1
   102    75    72    1
   103    97    98    2
   104     2     1    1
   105    71    63   am
   106    71    72    1
   107    63    64    2
   108    89    88    2
   109    65    66    1
   110    72    73    1
   111    95    88   am
   112    88    87    1
   113    67    66   ar
   114    67    69   ar
   115    74    73    2
   116    66    68   ar
   117    73    78   am
   118   103   104    1
   119    69    70   ar
   120    68    70   ar
   121    87    86    1
   122    87    90    1
   123    78    79    1
   124    86    80   am
   125   108   107    1
   126   104   107    1
   127   104   105    1
   128    80    79    1
   129    80    81    2
   130    90    91    1
   131    91    92    1
   132   107   109    1
   133    79    82    1
   134   105   106    2
   135    92    93    2
   136    92    94   am
   137    82    83    1
   138    85    83   ar
   139    83    84   ar
