@<TRIPOS>MOLECULE
tmp/3nuyA00.pdb
 95 87 0 0 0
SMALL
GASTEIGER

@<TRIPOS>ATOM
      1  N        -39.6730   17.4230   19.2980 N.3    16  LEU16      -0.1231
      2  CA       -38.9840   17.4760   18.0110 C.3    16  LEU16       0.1693
      3  C        -39.3570   18.7270   17.1980 C.2    16  LEU16       0.2592
      4  O        -38.6280   19.1530   16.3080 O.2    16  LEU16      -0.2718
      5  CB       -39.3450   16.2370   17.1820 C.3    16  LEU16       0.0284
      6  CG       -38.8990   14.8720   17.7270 C.3    16  LEU16       0.0019
      7  CD1      -39.4100   13.7580   16.8240 C.3    16  LEU16       0.0001
      8  CD2      -37.3850   14.8340   17.8040 C.3    16  LEU16       0.0001
      9  N        -40.5200   19.2860   17.4720 N.am   17  GLY17      -0.1957
     10  CA       -40.9750   20.4500   16.7330 C.3    17  GLY17       0.1869
     11  C        -42.2260   21.0050   17.4000 C.2    17  GLY17       0.2309
     12  O        -42.9660   20.2570   18.0530 O.2    17  GLY17      -0.2863
     13  N        -44.7610   17.9930   18.1450 N.3    24  VAL24      -0.1245
     14  CA       -44.2650   16.6730   17.8170 C.3    24  VAL24       0.1561
     15  C        -43.2290   16.2360   18.8510 C.2    24  VAL24       0.2260
     16  O        -42.2940   16.9570   19.1410 O.2    24  VAL24      -0.2867
     17  CB       -43.6510   16.6130   16.4110 C.3    24  VAL24       0.0252
     18  CG1      -43.3330   15.1220   16.0680 C.3    24  VAL24       0.0019
     19  CG2      -44.6230   17.2030   15.4120 C.3    24  VAL24       0.0019
     20  N        -42.3200    9.5810   15.8380 N.3    37  ALA37      -0.1245
     21  CA       -42.4870   11.0060   16.0670 C.3    37  ALA37       0.1562
     22  C        -44.0000   11.1960   16.2160 C.2    37  ALA37       0.2260
     23  O        -44.7440   11.0070   15.2560 O.2    37  ALA37      -0.2867
     24  CB       -41.9510   11.7950   14.9160 C.3    37  ALA37       0.0290
     25  N        -47.1840   13.3620   16.7330 N.3    39  LYS39      -0.1245
     26  CA       -47.7300   14.6920   16.6100 C.3    39  LYS39       0.1561
     27  C        -48.9480   14.7680   17.5320 C.2    39  LYS39       0.2260
     28  O        -49.8490   13.9210   17.4630 O.2    39  LYS39      -0.2867
     29  CB       -48.1120   14.9810   15.1470 C.3    39  LYS39       0.0271
     30  CG       -48.5820   16.4290   14.9330 C.3    39  LYS39       0.0035
     31  CD       -48.5260   16.8370   13.4590 C.3    39  LYS39       0.0206
     32  CE       -49.3210   18.1260   13.2230 C.3    39  LYS39       0.1093
     33  NZ       -48.9420   18.7600   11.9170 N.3    39  LYS39      -0.1314
     34  N        -43.2950   11.1150    4.8260 N.3    71  VAL71      -0.1245
     35  CA       -43.7770   10.7400    6.1700 C.3    71  VAL71       0.1561
     36  C        -44.8250    9.6640    6.0460 C.2    71  VAL71       0.2260
     37  O        -45.6530    9.6580    5.1120 O.2    71  VAL71      -0.2867
     38  CB       -44.3970   11.9300    6.9140 C.3    71  VAL71       0.0252
     39  CG1      -45.7410   12.3000    6.2740 C.3    71  VAL71       0.0019
     40  CG2      -44.6090   11.6070    8.4250 C.3    71  VAL71       0.0019
     41  N        -46.1060    9.1680   13.6120 N.3    87  LEU87      -0.1231
     42  CA       -45.4120    9.3220   12.3480 C.3    87  LEU87       0.1693
     43  C        -44.0310    8.6800   12.3350 C.2    87  LEU87       0.2593
     44  O        -43.4320    8.4640   13.3900 O.2    87  LEU87      -0.2718
     45  CB       -45.2590   10.8020   12.0280 C.3    87  LEU87       0.0284
     46  CG       -46.4910   11.6830   12.2360 C.3    87  LEU87       0.0019
     47  CD1      -46.1200   13.1650   11.9960 C.3    87  LEU87       0.0001
     48  CD2      -47.5910   11.2470   11.3110 C.3    87  LEU87       0.0001
     49  N        -43.5030    8.4270   11.1330 N.am   88  SER88      -0.1938
     50  CA       -42.1180    7.9720   11.0110 C.3    88  SER88       0.2055
     51  C        -41.2010    9.0400   11.6000 C.2    88  SER88       0.2643
     52  O        -41.4190   10.2380   11.4410 O.2    88  SER88      -0.2714
     53  CB       -41.7570    7.6880    9.5410 C.3    88  SER88       0.2130
     54  OG       -42.4220    8.5680    8.6730 O.3    88  SER88      -0.2179
     55  N        -40.2000    8.6040   12.3390 N.am   89  TYR89      -0.1959
     56  CA       -39.2360    9.5270   12.9180 C.3    89  TYR89       0.1771
     57  C        -38.0580    9.6890   11.9550 C.2    89  TYR89       0.2619
     58  O        -37.4450    8.6960   11.5590 O.2    89  TYR89      -0.2715
     59  CB       -38.7720    8.9480   14.2540 C.3    89  TYR89       0.0574
     60  CG       -37.6040    9.6490   14.8990 C.ar   89  TYR89      -0.0198
     61  CD1      -37.5080   11.0320   14.9120 C.ar   89  TYR89      -0.0009
     62  CD2      -36.6040    8.9110   15.5250 C.ar   89  TYR89      -0.0009
     63  CE1      -36.4300   11.6580   15.5230 C.ar   89  TYR89       0.0417
     64  CE2      -35.5550    9.5200   16.1410 C.ar   89  TYR89       0.0417
     65  CZ       -35.4670   10.8810   16.1530 C.ar   89  TYR89       0.1957
     66  OH       -34.3910   11.4630   16.7810 O.3    89  TYR89      -0.2866
     67  N        -37.7600   10.9240   11.5680 N.am   90  ALA90      -0.1977
     68  CA       -36.6640   11.2140   10.6490 C.3    90  ALA90       0.1597
     69  C        -35.4720   11.6250   11.4870 C.2    90  ALA90       0.2287
     70  O        -35.3890   12.7530   11.9250 O.2    90  ALA90      -0.2864
     71  CB       -37.0370   12.3470    9.6820 C.3    90  ALA90       0.0319
     72  N        -37.4070   16.4660    5.5550 N.3   140  LEU140     -0.1245
     73  CA       -36.5610   15.8650    6.5840 C.3   140  LEU140      0.1561
     74  C        -35.6170   14.8040    6.0040 C.2   140  LEU140      0.2260
     75  O        -35.7960   14.3500    4.8830 O.2   140  LEU140     -0.2867
     76  CB       -37.4550   15.2460    7.6690 C.3   140  LEU140      0.0270
     77  CG       -38.5870   16.1610    8.1400 C.3   140  LEU140      0.0019
     78  CD1      -39.3550   15.5070    9.2760 C.3   140  LEU140      0.0001
     79  CD2      -38.0490   17.5460    8.5770 C.3   140  LEU140      0.0001
     80  N        -37.5740   12.6590    3.5580 N.3   148  GLN148     -0.1245
     81  CA       -38.8780   12.2940    3.9980 C.3   148  GLN148      0.1566
     82  C        -39.6300   13.6060    4.1030 C.2   148  GLN148      0.2260
     83  O        -39.3780   14.4130    5.0150 O.2   148  GLN148     -0.2867
     84  CB       -38.7560   11.6040    5.3530 C.3   148  GLN148      0.0367
     85  CG       -40.0620   11.3270    5.9850 C.3   148  GLN148      0.0905
     86  CD       -39.9040   10.5850    7.3010 C.2   148  GLN148      0.2608
     87  OE1      -39.0570    9.6860    7.4260 O.2   148  GLN148     -0.2717
     88  NE2      -40.7150   10.9550    8.2870 N.am  148  GLN148     -0.0878
     89  N        -42.6680   16.0790    4.8210 N.3   150  THR150     -0.1218
     90  CA       -43.6910   16.1090    5.8410 C.3   150  THR150      0.1862
     91  C        -44.5060   17.3940    5.8320 C.2   150  THR150      0.2287
     92  O        -44.3500   18.2470    4.9420 O.2   150  THR150     -0.2866
     93  CB       -43.0830   15.9180    7.2740 C.3   150  THR150      0.1770
     94  OG1      -44.1540   15.7010    8.2120 O.3   150  THR150     -0.2211
     95  CG2      -42.2410   17.1430    7.6950 C.3   150  THR150      0.0375
@<TRIPOS>BOND
     1    80    81    1
     2    81    82    1
     3    81    84    1
     4    82    83    2
     5    89    90    1
     6    34    35    1
     7    75    74    2
     8    92    91    2
     9    37    36    2
    10    84    85    1
    11    72    73    1
    12    91    90    1
    13    90    93    1
    14    85    86    1
    15    74    73    1
    16    36    35    1
    17    35    38    1
    18    39    38    1
    19    73    76    1
    20    38    40    1
    21    93    95    1
    22    93    94    1
    23    86    87    2
    24    86    88   am
    25    76    77    1
    26    77    79    1
    27    77    78    1
    28    54    53    1
    29    53    50    1
    30    71    68    1
    31    68    69    1
    32    68    67    1
    33    50    49    1
    34    50    51    1
    35    49    43   am
    36    48    46    1
    37    52    51    2
    38    69    70    2
    39    58    57    2
    40    67    57   am
    41    51    55   am
    42    33    32    1
    43    57    56    1
    44    47    46    1
    45    45    46    1
    46    45    42    1
    47    43    42    1
    48    43    44    2
    49    55    56    1
    50    42    41    1
    51    56    59    1
    52    32    31    1
    53    31    30    1
    54    59    60    1
    55    60    61   ar
    56    60    62   ar
    57    61    63   ar
    58    24    21    1
    59    30    29    1
    60    29    26    1
    61    23    22    2
    62    19    17    1
    63    63    65   ar
    64    62    64   ar
    65    20    21    1
    66    21    22    1
    67    18    17    1
    68    64    65   ar
    69    65    66    1
    70     4     3    2
    71    17    14    1
    72    26    25    1
    73    26    27    1
    74    10    11    1
    75    10     9    1
    76     7     6    1
    77     5     6    1
    78     5     2    1
    79     3     9   am
    80     3     2    1
    81    11    12    2
    82    28    27    2
    83     6     8    1
    84    14    13    1
    85    14    15    1
    86     2     1    1
    87    15    16    2
