@<TRIPOS>MOLECULE
tmp/3nv3A00.pdb
 98 91 0 0 0
SMALL
GASTEIGER

@<TRIPOS>ATOM
      1  N         20.2850   54.3000   15.5700 N.3    34  ARG34      -0.1245
      2  CA        20.3070   53.3860   16.7100 C.3    34  ARG34       0.1563
      3  C         18.9080   53.2230   17.2880 C.2    34  ARG34       0.2260
      4  O         17.9980   53.9890   16.9830 O.2    34  ARG34      -0.2867
      5  CB        21.1880   53.9320   17.8420 C.3    34  ARG34       0.0307
      6  CG        22.6120   54.3030   17.4720 C.3    34  ARG34       0.0489
      7  CD        23.3640   54.8680   18.6680 C.3    34  ARG34       0.2205
      8  NE        24.7390   55.2140   18.3130 N.pl3  34  ARG34      -0.0865
      9  CZ        25.6310   55.7300   19.1540 C.cat  34  ARG34       0.5346
     10  NH1       25.3070   55.9720   20.4170 N.pl3  34  ARG34       0.1354
     11  NH2       26.8580   56.0020   18.7270 N.pl3  34  ARG34       0.1354
     12  N         20.5360   47.2220   29.0250 N.3    48  HIS48      -0.1241
     13  CA        20.3810   48.1560   27.9120 C.3    48  HIS48       0.1621
     14  C         20.8920   47.4340   26.6720 C.2    48  HIS48       0.2264
     15  O         22.0730   47.0990   26.5900 O.2    48  HIS48      -0.2867
     16  CB        21.2200   49.4120   28.2060 C.3    48  HIS48       0.0745
     17  CG        21.3320   50.3870   27.0700 C.ar   48  HIS48       0.0817
     18  ND1       20.2710   51.1490   26.6270 N.ar   48  HIS48      -0.2268
     19  CD2       22.4130   50.8110   26.3690 C.ar   48  HIS48       0.1154
     20  CE1       20.6940   52.0030   25.7100 C.ar   48  HIS48       0.1986
     21  NE2       21.9910   51.8200   25.5360 N.ar   48  HIS48      -0.2212
     22  N         21.4260   47.9300   22.8720 N.3    50  ASN50      -0.1240
     23  CA        21.5310   49.0580   21.9580 C.3    50  ASN50       0.1653
     24  C         22.1610   48.8040   20.5790 C.2    50  ASN50       0.2266
     25  O         23.3650   48.9890   20.3980 O.2    50  ASN50      -0.2867
     26  CB        22.3070   50.1430   22.7230 C.3    50  ASN50       0.1155
     27  CG        22.3860   51.4740   22.0010 C.2    50  ASN50       0.2627
     28  OD1       23.3390   52.2250   22.2110 O.2    50  ASN50      -0.2716
     29  ND2       21.3870   51.7940   21.1870 N.am   50  ASN50      -0.0877
     30  N         23.4710   49.5840   17.0770 N.3    52  ARG52      -0.1245
     31  CA        23.9260   50.8340   16.4780 C.3    52  ARG52       0.1563
     32  C         24.3260   50.6160   15.0250 C.2    52  ARG52       0.2260
     33  O         25.2350   49.8430   14.7260 O.2    52  ARG52      -0.2867
     34  CB        25.1180   51.3800   17.2600 C.3    52  ARG52       0.0307
     35  CG        24.8060   51.6940   18.7110 C.3    52  ARG52       0.0489
     36  CD        26.0250   52.2480   19.4240 C.3    52  ARG52       0.2205
     37  NE        25.7350   52.5150   20.8260 N.pl3  52  ARG52      -0.0865
     38  CZ        26.5960   53.0720   21.6680 C.cat  52  ARG52       0.5346
     39  NH1       27.8060   53.4230   21.2420 N.pl3  52  ARG52       0.1354
     40  NH2       26.2510   53.2730   22.9290 N.pl3  52  ARG52       0.1354
     41  N         27.6480   52.5790   14.1020 N.3    55  GLU55      -0.1245
     42  CA        28.8510   51.8630   14.5240 C.3    55  GLU55       0.1567
     43  C         28.8280   50.3850   14.1330 C.2    55  GLU55       0.2260
     44  O         29.7830   49.6580   14.3990 O.2    55  GLU55      -0.2867
     45  CB        29.0440   51.9780   16.0420 C.3    55  GLU55       0.0388
     46  CG        29.0280   53.4020   16.5720 C.3    55  GLU55       0.1160
     47  CD        29.5730   53.5100   17.9880 C.2    55  GLU55       0.3649
     48  OE1       29.3710   52.5720   18.7880 O.co2  55  GLU55      -0.2457
     49  OE2       30.1980   54.5430   18.3050 O.co2  55  GLU55      -0.2457
     50  N         25.5450   47.0800   21.2990 N.3    59  VAL59      -0.1245
     51  CA        26.0790   47.4210   22.6070 C.3    59  VAL59       0.1561
     52  C         25.1470   47.0000   23.7430 C.2    59  VAL59       0.2260
     53  O         23.9360   47.2130   23.6750 O.2    59  VAL59      -0.2867
     54  CB        26.3160   48.9520   22.7070 C.3    59  VAL59       0.0252
     55  CG1       26.8700   49.3120   24.0740 C.3    59  VAL59       0.0019
     56  CG2       27.2700   49.4020   21.6040 C.3    59  VAL59       0.0019
     57  N         24.8160   47.1020   28.0950 N.3    61  ASN61      -0.1240
     58  CA        25.3720   47.7090   29.2970 C.3    61  ASN61       0.1653
     59  C         24.3010   47.8480   30.3760 C.2    61  ASN61       0.2266
     60  O         23.1240   47.5380   30.1590 O.2    61  ASN61      -0.2867
     61  CB        25.9570   49.0920   28.9680 C.3    61  ASN61       0.1155
     62  CG        27.1310   49.4670   29.8660 C.2    61  ASN61       0.2627
     63  OD1       27.3740   48.8370   30.8950 O.2    61  ASN61      -0.2716
     64  ND2       27.8590   50.5080   29.4770 N.am   61  ASN61      -0.0877
     65  N         27.1800   54.3620   33.7200 N.3    68  TRP68      -0.1241
     66  CA        27.1950   53.2470   32.7830 C.3    68  TRP68       0.1605
     67  C         28.3880   52.3680   33.1270 C.2    68  TRP68       0.2264
     68  O         29.4640   52.8690   33.4650 O.2    68  TRP68      -0.2867
     69  CB        27.3380   53.7330   31.3370 C.3    68  TRP68       0.0550
     70  CG        26.0870   54.2900   30.7540 C.ar   68  TRP68       0.0003
     71  CD1       25.8170   55.6020   30.4910 C.ar   68  TRP68       0.0946
     72  CD2       24.9200   53.5550   30.3690 C.ar   68  TRP68       0.0152
     73  NE1       24.5540   55.7310   29.9690 N.ar   68  TRP68      -0.2442
     74  CE2       23.9800   54.4890   29.8830 C.ar   68  TRP68       0.0810
     75  CE3       24.5770   52.1960   30.3890 C.ar   68  TRP68       0.0012
     76  CZ2       22.7160   54.1100   29.4200 C.ar   68  TRP68       0.0191
     77  CZ3       23.3190   51.8180   29.9280 C.ar   68  TRP68       0.0001
     78  CH2       22.4040   52.7730   29.4500 C.ar   68  TRP68       0.0015
     79  N         30.8960   48.3210   28.7040 N.3    71  GLU71      -0.1245
     80  CA        30.1020   47.8550   27.5710 C.3    71  GLU71       0.1567
     81  C         30.4950   46.4620   27.0950 C.2    71  GLU71       0.2260
     82  O         31.6510   46.0580   27.1980 O.2    71  GLU71      -0.2867
     83  CB        30.2400   48.8240   26.3920 C.3    71  GLU71       0.0388
     84  CG        29.5630   50.1630   26.6010 C.3    71  GLU71       0.1160
     85  CD        29.7410   51.1090   25.4210 C.2    71  GLU71       0.3649
     86  OE1       29.1450   52.2020   25.4540 O.co2  71  GLU71      -0.2457
     87  OE2       30.4730   50.7690   24.4660 O.co2  71  GLU71      -0.2457
     88  N         30.2380   44.2590   23.6660 N.3    73  ARG73      -0.1245
     89  CA        29.9820   44.3650   22.2360 C.3    73  ARG73       0.1563
     90  C         30.2940   43.0980   21.4430 C.2    73  ARG73       0.2260
     91  O         30.0410   43.0440   20.2380 O.2    73  ARG73      -0.2867
     92  CB        30.8090   45.5100   21.6470 C.3    73  ARG73       0.0307
     93  CG        30.4620   46.9020   22.1610 C.3    73  ARG73       0.0489
     94  CD        31.4160   47.9320   21.5570 C.3    73  ARG73       0.2205
     95  NE        31.0890   49.3010   21.9490 N.pl3  73  ARG73      -0.0865
     96  CZ        30.7040   50.2490   21.1010 C.cat  73  ARG73       0.5346
     97  NH1       30.5990   49.9820   19.8060 N.pl3  73  ARG73       0.1354
     98  NH2       30.4190   51.4620   21.5500 N.pl3  73  ARG73       0.1354
@<TRIPOS>BOND
     1    41    42    1
     2    43    44    2
     3    43    42    1
     4    42    45    1
     5    33    32    2
     6    32    31    1
     7     1     2    1
     8    45    46    1
     9    31    30    1
    10    31    34    1
    11    46    47    1
    12     2     3    1
    13     2     5    1
    14     4     3    2
    15    34    35    1
    16     6     5    1
    17     6     7    1
    18    47    49   ar
    19    47    48   ar
    20     8     7    1
    21     8     9    2
    22    35    36    1
    23    11     9    1
    24     9    10    1
    25    36    37    1
    26    97    96    1
    27    91    90    2
    28    25    24    2
    29    24    23    1
    30    37    38    2
    31    96    98    1
    32    96    95    2
    33    29    27   am
    34    39    38    1
    35    50    51    1
    36    90    89    1
    37    94    95    1
    38    94    93    1
    39    56    54    1
    40    92    93    1
    41    92    89    1
    42    38    40    1
    43    23    26    1
    44    23    22    1
    45    27    28    2
    46    27    26    1
    47    89    88    1
    48    51    54    1
    49    51    52    1
    50    54    55    1
    51    53    52    2
    52    87    85   ar
    53    85    86   ar
    54    85    84    1
    55    21    20   ar
    56    21    19   ar
    57    20    18   ar
    58    19    17   ar
    59    83    84    1
    60    83    80    1
    61    15    14    2
    62    18    17   ar
    63    14    13    1
    64    17    16    1
    65    81    82    2
    66    81    80    1
    67    80    79    1
    68    13    16    1
    69    13    12    1
    70    57    58    1
    71    61    58    1
    72    61    62    1
    73    58    59    1
    74    76    78   ar
    75    76    74   ar
    76    78    77   ar
    77    64    62   am
    78    62    63    2
    79    74    73   ar
    80    74    72   ar
    81    77    75   ar
    82    73    71   ar
    83    60    59    2
    84    72    75   ar
    85    72    70   ar
    86    71    70   ar
    87    70    69    1
    88    69    66    1
    89    66    67    1
    90    66    65    1
    91    67    68    2
