@<TRIPOS>MOLECULE
tmp/3nv4A00.pdb
 133 123 0 0 0
SMALL
GASTEIGER

@<TRIPOS>ATOM
      1  N         20.3630   54.1450   15.5060 N.3    34  ARG34      -0.1245
      2  CA        20.3940   53.2570   16.6720 C.3    34  ARG34       0.1563
      3  C         18.9910   53.0910   17.2620 C.2    34  ARG34       0.2260
      4  O         18.0690   53.8500   16.9600 O.2    34  ARG34      -0.2867
      5  CB        21.2750   53.8490   17.7910 C.3    34  ARG34       0.0307
      6  CG        22.7480   54.1290   17.3870 C.3    34  ARG34       0.0489
      7  CD        23.6470   54.5770   18.5480 C.3    34  ARG34       0.2205
      8  NE        24.9390   55.0840   18.0940 N.pl3  34  ARG34      -0.0865
      9  CZ        25.8290   55.6720   18.8920 C.cat  34  ARG34       0.5346
     10  NH1       25.5740   55.8300   20.1930 N.pl3  34  ARG34       0.1354
     11  NH2       26.9720   56.1150   18.3850 N.pl3  34  ARG34       0.1354
     12  N         17.1320   51.0720   21.0860 N.3    36  HIS36      -0.1241
     13  CA        17.4580   50.3390   22.2960 C.3    36  HIS36       0.1621
     14  C         16.2470   49.7170   22.9560 C.2    36  HIS36       0.2264
     15  O         15.1050   50.1230   22.7330 O.2    36  HIS36      -0.2867
     16  CB        18.1560   51.2410   23.3190 C.3    36  HIS36       0.0745
     17  CG        17.3020   52.3670   23.8090 C.ar   36  HIS36       0.0817
     18  ND1       17.2140   53.5730   23.1490 N.ar   36  HIS36      -0.2268
     19  CD2       16.4620   52.4530   24.8670 C.ar   36  HIS36       0.1154
     20  CE1       16.3540   54.3550   23.7790 C.ar   36  HIS36       0.1986
     21  NE2       15.8830   53.6990   24.8240 N.ar   36  HIS36      -0.2212
     22  N         15.3960   48.5630   26.8920 N.3    38  ASN38      -0.1240
     23  CA        15.8830   48.5760   28.2650 C.3    38  ASN38       0.1653
     24  C         14.9660   47.8140   29.2010 C.2    38  ASN38       0.2266
     25  O         13.7450   47.8340   29.0450 O.2    38  ASN38      -0.2867
     26  CB        15.9970   50.0030   28.8170 C.3    38  ASN38       0.1155
     27  CG        16.9510   50.8770   28.0270 C.2    38  ASN38       0.2627
     28  OD1       17.8260   50.3870   27.3110 O.2    38  ASN38      -0.2716
     29  ND2       16.7960   52.1940   28.1760 N.am   38  ASN38      -0.0877
     30  N         18.9120   51.0680   34.9160 N.3    45  ILE45      -0.1245
     31  CA        18.6530   50.2920   33.7180 C.3    45  ILE45       0.1561
     32  C         19.4290   49.0010   33.9480 C.2    45  ILE45       0.2260
     33  O         20.6590   48.9830   33.8880 O.2    45  ILE45      -0.2867
     34  CB        19.1680   50.9970   32.4580 C.3    45  ILE45       0.0252
     35  CG1       18.4880   52.3670   32.3170 C.3    45  ILE45       0.0019
     36  CG2       18.8810   50.1340   31.2370 C.3    45  ILE45       0.0019
     37  CD1       19.0090   53.2070   31.1650 C.3    45  ILE45       0.0001
     38  N         20.5280   47.1100   29.0330 N.3    48  HIS48      -0.1241
     39  CA        20.3970   48.0400   27.9210 C.3    48  HIS48       0.1621
     40  C         20.9250   47.3090   26.6870 C.2    48  HIS48       0.2264
     41  O         22.1150   47.0120   26.6010 O.2    48  HIS48      -0.2867
     42  CB        21.2380   49.2940   28.2320 C.3    48  HIS48       0.0745
     43  CG        21.3260   50.2930   27.1140 C.ar   48  HIS48       0.0817
     44  ND1       20.2370   50.9940   26.6500 N.ar   48  HIS48      -0.2268
     45  CD2       22.4020   50.7820   26.4470 C.ar   48  HIS48       0.1154
     46  CE1       20.6340   51.8790   25.7490 C.ar   48  HIS48       0.1986
     47  NE2       21.9420   51.7720   25.6080 N.ar   48  HIS48      -0.2212
     48  N         21.4370   47.7610   22.9210 N.3    50  ASN50      -0.1240
     49  CA        21.5470   48.8910   22.0100 C.3    50  ASN50       0.1653
     50  C         22.2340   48.6270   20.6590 C.2    50  ASN50       0.2266
     51  O         23.4550   48.7660   20.5360 O.2    50  ASN50      -0.2867
     52  CB        22.2850   49.9880   22.7960 C.3    50  ASN50       0.1155
     53  CG        22.5120   51.2590   22.0090 C.2    50  ASN50       0.2627
     54  OD1       23.4900   51.9680   22.2570 O.2    50  ASN50      -0.2716
     55  ND2       21.6100   51.5740   21.0860 N.am   50  ASN50      -0.0877
     56  N         23.5660   49.4240   17.0940 N.3    52  ARG52      -0.1245
     57  CA        23.9920   50.6750   16.4780 C.3    52  ARG52       0.1563
     58  C         24.4000   50.4490   15.0270 C.2    52  ARG52       0.2260
     59  O         25.3320   49.7020   14.7390 O.2    52  ARG52      -0.2867
     60  CB        25.1690   51.2720   17.2550 C.3    52  ARG52       0.0307
     61  CG        24.8670   51.5440   18.7250 C.3    52  ARG52       0.0489
     62  CD        26.0620   52.1850   19.4290 C.3    52  ARG52       0.2205
     63  NE        25.7880   52.4400   20.8420 N.pl3  52  ARG52      -0.0865
     64  CZ        26.6750   52.9430   21.6970 C.cat  52  ARG52       0.5346
     65  NH1       27.9020   53.2500   21.2870 N.pl3  52  ARG52       0.1354
     66  NH2       26.3400   53.1280   22.9630 N.pl3  52  ARG52       0.1354
     67  N         27.7360   52.4340   14.0380 N.3    55  GLU55      -0.1245
     68  CA        28.9690   51.7840   14.4810 C.3    55  GLU55       0.1567
     69  C         28.9590   50.3060   14.1050 C.2    55  GLU55       0.2260
     70  O         29.9530   49.6070   14.2850 O.2    55  GLU55      -0.2867
     71  CB        29.1460   51.9080   15.9980 C.3    55  GLU55       0.0388
     72  CG        29.0710   53.3220   16.5410 C.3    55  GLU55       0.1160
     73  CD        29.5890   53.4290   17.9700 C.2    55  GLU55       0.3649
     74  OE1       29.4190   52.4670   18.7490 O.co2  55  GLU55      -0.2457
     75  OE2       30.1600   54.4860   18.3170 O.co2  55  GLU55      -0.2457
     76  N         25.5930   46.9610   21.4200 N.3    59  VAL59      -0.1245
     77  CA        26.1020   47.2980   22.7360 C.3    59  VAL59       0.1561
     78  C         25.1530   46.8610   23.8460 C.2    59  VAL59       0.2260
     79  O         23.9330   47.0110   23.7370 O.2    59  VAL59      -0.2867
     80  CB        26.3400   48.8290   22.8430 C.3    59  VAL59       0.0252
     81  CG1       26.8270   49.2010   24.2410 C.3    59  VAL59       0.0019
     82  CG2       27.3510   49.2610   21.7950 C.3    59  VAL59       0.0019
     83  N         24.7860   47.0040   28.1910 N.3    61  ASN61      -0.1240
     84  CA        25.3430   47.6090   29.3870 C.3    61  ASN61       0.1653
     85  C         24.2820   47.7400   30.4660 C.2    61  ASN61       0.2266
     86  O         23.1160   47.3880   30.2720 O.2    61  ASN61      -0.2867
     87  CB        25.9090   48.9970   29.0630 C.3    61  ASN61       0.1155
     88  CG        27.0520   49.4050   29.9910 C.2    61  ASN61       0.2627
     89  OD1       27.3410   48.7340   30.9890 O.2    61  ASN61      -0.2716
     90  ND2       27.7060   50.5150   29.6600 N.am   61  ASN61      -0.0877
     91  N         23.1210   50.5710   33.7270 N.3    63  GLN63      -0.1245
     92  CA        23.3090   51.9080   34.2720 C.3    63  GLN63       0.1566
     93  C         22.6620   52.0120   35.6440 C.2    63  GLN63       0.2260
     94  O         21.4880   51.6850   35.8230 O.2    63  GLN63      -0.2867
     95  CB        22.7130   52.9670   33.3360 C.3    63  GLN63       0.0367
     96  CG        22.9040   54.4090   33.8140 C.3    63  GLN63       0.0905
     97  CD        22.2100   55.4250   32.9200 C.2    63  GLN63       0.2608
     98  OE1       20.9920   55.3720   32.7260 O.2    63  GLN63      -0.2717
     99  NE2       22.9830   56.3590   32.3690 N.am   63  GLN63      -0.0878
    100  N         27.0700   54.5190   33.6530 N.3    68  TRP68      -0.1241
    101  CA        27.1070   53.3400   32.7940 C.3    68  TRP68       0.1605
    102  C         28.2740   52.4340   33.1800 C.2    68  TRP68       0.2264
    103  O         29.3670   52.9080   33.4900 O.2    68  TRP68      -0.2867
    104  CB        27.2510   53.7360   31.3180 C.3    68  TRP68       0.0550
    105  CG        25.9950   54.2660   30.6990 C.ar   68  TRP68       0.0003
    106  CD1       25.7120   55.5710   30.3930 C.ar   68  TRP68       0.0946
    107  CD2       24.8460   53.5030   30.3110 C.ar   68  TRP68       0.0152
    108  NE1       24.4560   55.6640   29.8360 N.ar   68  TRP68      -0.2442
    109  CE2       23.9020   54.4110   29.7740 C.ar   68  TRP68       0.0810
    110  CE3       24.5200   52.1380   30.3640 C.ar   68  TRP68       0.0012
    111  CZ2       22.6510   53.9980   29.2920 C.ar   68  TRP68       0.0191
    112  CZ3       23.2730   51.7260   29.8840 C.ar   68  TRP68       0.0001
    113  CH2       22.3570   52.6560   29.3560 C.ar   68  TRP68       0.0015
    114  N         30.7880   48.2860   28.8670 N.3    71  GLU71      -0.1245
    115  CA        30.0230   47.7500   27.7450 C.3    71  GLU71       0.1567
    116  C         30.4820   46.3770   27.2630 C.2    71  GLU71       0.2260
    117  O         31.6590   46.0340   27.3390 O.2    71  GLU71      -0.2867
    118  CB        30.0830   48.7190   26.5550 C.3    71  GLU71       0.0388
    119  CG        29.4250   50.0770   26.7830 C.3    71  GLU71       0.1160
    120  CD        29.6150   51.0210   25.5990 C.2    71  GLU71       0.3649
    121  OE1       29.0490   52.1330   25.6130 O.co2  71  GLU71      -0.2457
    122  OE2       30.3370   50.6480   24.6520 O.co2  71  GLU71      -0.2457
    123  N         30.3280   44.1440   23.8250 N.3    73  ARG73      -0.1245
    124  CA        30.0520   44.2500   22.3980 C.3    73  ARG73       0.1563
    125  C         30.3040   42.9850   21.5940 C.2    73  ARG73       0.2260
    126  O         29.9610   42.9320   20.4140 O.2    73  ARG73      -0.2867
    127  CB        30.8970   45.3690   21.7860 C.3    73  ARG73       0.0307
    128  CG        30.5540   46.7750   22.2580 C.3    73  ARG73       0.0489
    129  CD        31.5330   47.7960   21.6720 C.3    73  ARG73       0.2205
    130  NE        31.2160   49.1610   22.0830 N.pl3  73  ARG73      -0.0865
    131  CZ        30.8270   50.1190   21.2480 C.cat  73  ARG73       0.5346
    132  NH1       30.7080   49.8650   19.9530 N.pl3  73  ARG73       0.1354
    133  NH2       30.5490   51.3310   21.7080 N.pl3  73  ARG73       0.1354
@<TRIPOS>BOND
     1    67    68    1
     2    69    70    2
     3    69    68    1
     4    68    71    1
     5    59    58    2
     6    58    57    1
     7     1     2    1
     8    71    72    1
     9    57    56    1
    10    57    60    1
    11    72    73    1
    12     2     3    1
    13     2     5    1
    14     4     3    2
    15    60    61    1
    16     6     5    1
    17     6     7    1
    18    73    75   ar
    19    73    74   ar
    20     8     7    1
    21     8     9    2
    22    11     9    1
    23    61    62    1
    24     9    10    1
    25    62    63    1
    26   132   131    1
    27   126   125    2
    28    51    50    2
    29    50    49    1
    30    63    64    2
    31    55    53   am
    32    12    13    1
    33   131   133    1
    34   131   130    2
    35    65    64    1
    36    76    77    1
    37   125   124    1
    38   129   130    1
    39   129   128    1
    40    64    66    1
    41   127   128    1
    42   127   124    1
    43    82    80    1
    44    53    54    2
    45    53    52    1
    46    49    52    1
    47    49    48    1
    48    13    14    1
    49    13    16    1
    50   124   123    1
    51    15    14    2
    52    77    80    1
    53    77    78    1
    54    80    81    1
    55    18    20   ar
    56    18    17   ar
    57    16    17    1
    58    79    78    2
    59    20    21   ar
    60    17    19   ar
    61   122   120   ar
    62    21    19   ar
    63   120   121   ar
    64   120   119    1
    65    47    46   ar
    66    47    45   ar
    67    46    44   ar
    68    45    43   ar
    69   118   119    1
    70   118   115    1
    71    41    40    2
    72    44    43   ar
    73    40    39    1
    74    22    23    1
    75    43    42    1
    76   116   117    2
    77   116   115    1
    78    28    27    2
    79   115   114    1
    80    39    42    1
    81    39    38    1
    82    27    29   am
    83    27    26    1
    84    83    84    1
    85    23    26    1
    86    23    24    1
    87    25    24    2
    88    87    84    1
    89    87    88    1
    90   111   113   ar
    91   111   109   ar
    92   113   112   ar
    93    84    85    1
    94    90    88   am
    95   109   108   ar
    96   109   107   ar
    97   108   106   ar
    98   112   110   ar
    99    88    89    2
   100    86    85    2
   101   107   110   ar
   102   107   105   ar
   103   106   105   ar
   104   105   104    1
   105    37    35    1
   106    36    34    1
   107   104   101    1
   108    35    34    1
   109    99    97   am
   110    34    31    1
   111    98    97    2
   112   101   102    1
   113   101   100    1
   114    97    96    1
   115   102   103    2
   116    95    96    1
   117    95    92    1
   118    31    32    1
   119    31    30    1
   120    91    92    1
   121    33    32    2
   122    92    93    1
   123    93    94    2
