@<TRIPOS>MOLECULE
tmp/3nv6A01.pdb
 92 84 0 0 0
SMALL
GASTEIGER

@<TRIPOS>ATOM
      1  N          3.6570   17.9730   16.3540 N.3    77  ILE77      -0.1231
      2  CA         4.7680   18.9410   16.2200 C.3    77  ILE77       0.1692
      3  C          4.9550   19.8310   17.4270 C.2    77  ILE77       0.2592
      4  O          5.7210   20.8040   17.3760 O.2    77  ILE77      -0.2718
      5  CB         4.6460   19.8560   14.9680 C.3    77  ILE77       0.0266
      6  CG1        3.4060   20.7600   15.0680 C.3    77  ILE77       0.0019
      7  CG2        4.6890   19.0450   13.6780 C.3    77  ILE77       0.0020
      8  CD1        3.2420   21.7050   13.8950 C.3    77  ILE77       0.0001
      9  N          4.2560   19.5440   18.5190 N.am   78  PHE78      -0.1976
     10  CA         4.6250   20.2490   19.7100 C.3    78  PHE78       0.1639
     11  C          4.4930   19.5170   21.0320 C.2    78  PHE78       0.2290
     12  O          3.9430   18.4190   21.0890 O.2    78  PHE78      -0.2864
     13  CB         4.0420   21.6680   19.7150 C.3    78  PHE78       0.0560
     14  CG         2.5900   21.7500   20.0100 C.ar   78  PHE78      -0.0200
     15  CD1        1.6910   22.0390   18.9970 C.ar   78  PHE78      -0.0042
     16  CD2        2.1300   21.6510   21.3320 C.ar   78  PHE78      -0.0042
     17  CE1        0.3310   22.1550   19.2760 C.ar   78  PHE78      -0.0003
     18  CE2        0.7460   21.7870   21.6540 C.ar   78  PHE78      -0.0003
     19  CZ        -0.1540   22.0240   20.6300 C.ar   78  PHE78      -0.0000
     20  N         -3.2300   21.4110   13.0220 N.3    89  MET89      -0.1245
     21  CA        -3.7110   22.4570   12.1080 C.3    89  MET89       0.1570
     22  C         -3.3520   22.0280   10.6980 C.2    89  MET89       0.2261
     23  O         -2.5450   21.1160   10.5310 O.2    89  MET89      -0.2867
     24  CB        -2.9840   23.7750   12.3840 C.3    89  MET89       0.0387
     25  CG        -3.2500   24.3560   13.7630 C.3    89  MET89       0.0595
     26  SD        -1.7550   25.1180   14.4250 S.3    89  MET89      -0.1393
     27  CE        -1.8020   26.7440   13.6960 C.3    89  MET89       0.0692
     28  N          0.3380   21.8020    8.6400 N.3    92  THR92      -0.1218
     29  CA         1.4750   21.5620    9.5330 C.3    92  THR92       0.1862
     30  C          1.4550   20.1710   10.1800 C.2    92  THR92       0.2287
     31  O          2.4900   19.6850   10.6610 O.2    92  THR92      -0.2866
     32  CB         1.6120   22.6980   10.5960 C.3    92  THR92       0.1770
     33  OG1        0.4410   22.7440   11.4270 O.3    92  THR92      -0.2211
     34  CG2        1.8060   24.0510    9.9220 C.3    92  THR92       0.0375
     35  N         -4.1490   29.3010    9.4910 N.3   241  LEU241     -0.1245
     36  CA        -2.7190   29.0450    9.6100 C.3   241  LEU241      0.1561
     37  C         -1.9430   30.2180    9.0360 C.2   241  LEU241      0.2260
     38  O         -0.9210   30.6030    9.5840 O.2   241  LEU241     -0.2867
     39  CB        -2.3200   27.7320    8.9390 C.3   241  LEU241      0.0270
     40  CG        -0.8130   27.4650    9.1120 C.3   241  LEU241      0.0019
     41  CD1       -0.5110   26.8890   10.5030 C.3   241  LEU241      0.0001
     42  CD2       -0.3610   26.5130    8.0240 C.3   241  LEU241      0.0001
     43  N         -1.9650   32.8520   11.8030 N.3   244  LEU244     -0.1231
     44  CA        -1.1300   32.3330   12.8780 C.3   244  LEU244      0.1693
     45  C          0.3790   32.3740   12.5740 C.2   244  LEU244      0.2592
     46  O          1.1860   32.8020   13.3980 O.2   244  LEU244     -0.2718
     47  CB        -1.5490   30.8890   13.0510 C.3   244  LEU244      0.0284
     48  CG        -1.7770   30.2900   14.4120 C.3   244  LEU244      0.0019
     49  CD1       -1.8980   31.3550   15.5160 C.3   244  LEU244      0.0001
     50  CD2       -3.0890   29.5840   14.1970 C.3   244  LEU244      0.0001
     51  N          0.7430   31.9260   11.3800 N.am  245  GLY245     -0.1957
     52  CA         2.1330   31.7070   11.0450 C.3   245  GLY245      0.1869
     53  C          2.9050   32.9940   11.0680 C.2   245  GLY245      0.2309
     54  O          4.0890   33.0180   11.3850 O.2   245  GLY245     -0.2863
     55  N          5.6270   34.5820   15.6400 N.3   249  THR249     -0.1218
     56  CA         6.9930   34.5300   15.1650 C.3   249  THR249      0.1862
     57  C          7.5420   35.9350   14.8820 C.2   249  THR249      0.2287
     58  O          8.6070   36.2660   15.3610 O.2   249  THR249     -0.2866
     59  CB         7.1520   33.6440   13.9370 C.3   249  THR249      0.1770
     60  OG1        6.1700   34.0110   12.9650 O.3   249  THR249     -0.2211
     61  CG2        6.9720   32.1960   14.3160 C.3   249  THR249      0.0375
     62  N         11.6690   29.7360   17.0950 N.3   292  VAL292     -0.1245
     63  CA        10.8420   28.5400   17.1530 C.3   292  VAL292      0.1561
     64  C         11.5900   27.3780   17.8030 C.2   292  VAL292      0.2260
     65  O         12.7720   27.1360   17.5430 O.2   292  VAL292     -0.2867
     66  CB        10.2450   28.1620   15.7650 C.3   292  VAL292      0.0252
     67  CG1        9.1970   27.0060   15.8990 C.3   292  VAL292      0.0019
     68  CG2        9.5800   29.3620   15.1350 C.3   292  VAL292      0.0019
     69  N          9.6500   23.9920   18.0720 N.3   294  GLU294     -0.1245
     70  CA         8.6070   22.9980   17.9090 C.3   294  GLU294      0.1567
     71  C          9.2910   21.6330   17.8950 C.2   294  GLU294      0.2260
     72  O         10.4660   21.4990   18.2780 O.2   294  GLU294     -0.2867
     73  CB         7.8560   23.2260   16.6000 C.3   294  GLU294      0.0388
     74  CG         8.7380   23.0350   15.4040 C.3   294  GLU294      0.1160
     75  CD         8.0710   23.1860   14.0840 C.2   294  GLU294      0.3649
     76  OE1        6.8790   22.8450   13.9690 O.co2 294  GLU294     -0.2457
     77  OE2        8.7720   23.6070   13.1250 O.co2 294  GLU294     -0.2457
     78  N          7.0160   27.3580   22.6240 N.3   392  ILE392     -0.1231
     79  CA         7.0510   27.0280   21.2170 C.3   392  ILE392      0.1692
     80  C          7.6540   28.1900   20.4170 C.2   392  ILE392      0.2591
     81  O          8.5570   27.9960   19.5950 O.2   392  ILE392     -0.2718
     82  CB         5.6900   26.5700   20.6720 C.3   392  ILE392      0.0266
     83  CG1        5.1260   25.4320   21.5160 C.3   392  ILE392      0.0019
     84  CG2        5.8430   26.1160   19.2270 C.3   392  ILE392      0.0020
     85  CD1        6.1090   24.2680   21.7230 C.3   392  ILE392      0.0001
     86  N          7.1680   29.3970   20.6670 N.am  393  VAL393     -0.1980
     87  CA         7.7250   30.5980   20.0360 C.3   393  VAL393      0.1595
     88  C          8.2840   31.4980   21.1480 C.2   393  VAL393      0.2287
     89  O          7.5270   31.9040   22.0380 O.2   393  VAL393     -0.2864
     90  CB         6.6520   31.3620   19.2440 C.3   393  VAL393      0.0276
     91  CG1        7.1690   32.7550   18.7950 C.3   393  VAL393      0.0022
     92  CG2        6.1480   30.5150   18.0300 C.3   393  VAL393      0.0022
@<TRIPOS>BOND
     1    42    40    1
     2    28    29    1
     3    39    40    1
     4    39    36    1
     5    37    38    2
     6    37    36    1
     7    40    41    1
     8    35    36    1
     9    29    30    1
    10    29    32    1
    11    34    32    1
    12    30    31    2
    13    23    22    2
    14    32    33    1
    15    22    21    1
    16    52    53    1
    17    52    51    1
    18    53    54    2
    19    51    45   am
    20    43    44    1
    21    21    24    1
    22    21    20    1
    23    24    25    1
    24    45    44    1
    25    45    46    2
    26    44    47    1
    27    60    59    1
    28    47    48    1
    29    77    75   ar
    30     7     5    1
    31    27    26    1
    32    25    26    1
    33     8     6    1
    34    59    61    1
    35    59    56    1
    36    76    75   ar
    37    75    74    1
    38    50    48    1
    39    48    49    1
    40    57    56    1
    41    57    58    2
    42     5     6    1
    43     5     2    1
    44    68    66    1
    45    56    55    1
    46    74    73    1
    47    66    67    1
    48    66    63    1
    49     2     1    1
    50     2     3    1
    51    73    70    1
    52    62    63    1
    53    63    64    1
    54     4     3    2
    55     3     9   am
    56    65    64    2
    57    71    70    1
    58    71    72    2
    59    70    69    1
    60    92    90    1
    61     9    10    1
    62    91    90    1
    63    15    17   ar
    64    15    14   ar
    65    84    82    1
    66    90    87    1
    67    17    19   ar
    68    81    80    2
    69    10    13    1
    70    10    11    1
    71    13    14    1
    72    14    16   ar
    73    87    86    1
    74    87    88    1
    75    80    86   am
    76    80    79    1
    77    19    18   ar
    78    82    79    1
    79    82    83    1
    80    11    12    2
    81    88    89    2
    82    79    78    1
    83    16    18   ar
    84    83    85    1
