@<TRIPOS>MOLECULE
tmp/3nvdA00.pdb
 214 204 0 0 0
SMALL
GASTEIGER

@<TRIPOS>ATOM
      1  N         66.3900   49.5960  101.6180 N.3    32  ARG32      -0.1245
      2  CA        67.4110   50.6260  101.5160 C.3    32  ARG32       0.1563
      3  C         68.1300   50.8450  102.8790 C.2    32  ARG32       0.2260
      4  O         69.3570   50.7360  102.9750 O.2    32  ARG32      -0.2867
      5  CB        66.7490   51.9320  101.0330 C.3    32  ARG32       0.0307
      6  CG        67.7150   53.0130  100.8260 C.3    32  ARG32       0.0489
      7  CD        67.0330   54.3230  100.7690 C.3    32  ARG32       0.2205
      8  NE        65.9730   54.4550   99.7730 N.pl3  32  ARG32      -0.0865
      9  CZ        66.0990   55.0650   98.5930 C.cat  32  ARG32       0.5346
     10  NH1       67.2720   55.5510   98.1920 N.pl3  32  ARG32       0.1354
     11  NH2       65.0490   55.1780   97.8040 N.pl3  32  ARG32       0.1354
     12  N         65.1320   45.4010   95.1960 N.3    65  ILE65      -0.1245
     13  CA        65.7810   46.5200   94.5040 C.3    65  ILE65       0.1561
     14  C         66.7760   47.1820   95.4210 C.2    65  ILE65       0.2260
     15  O         66.4600   47.4580   96.5910 O.2    65  ILE65      -0.2867
     16  CB        64.7310   47.5760   94.0080 C.3    65  ILE65       0.0252
     17  CG1       65.4250   48.7090   93.2690 C.3    65  ILE65       0.0019
     18  CG2       63.9020   48.1340   95.1630 C.3    65  ILE65       0.0019
     19  CD1       64.4390   49.7490   92.5900 C.3    65  ILE65       0.0001
     20  N         69.5200   50.3210   96.3290 N.3    67  PHE67      -0.1241
     21  CA        69.7600   51.7410   96.0940 C.3    67  PHE67       0.1605
     22  C         71.1990   52.0740   96.4560 C.2    67  PHE67       0.2264
     23  O         71.9250   51.2360   96.9730 O.2    67  PHE67      -0.2867
     24  CB        68.7830   52.5830   96.8730 C.3    67  PHE67       0.0534
     25  CG        67.3860   52.5070   96.3430 C.ar   67  PHE67      -0.0203
     26  CD1       66.5310   51.5690   96.8050 C.ar   67  PHE67      -0.0042
     27  CD2       66.9510   53.3660   95.3680 C.ar   67  PHE67      -0.0042
     28  CE1       65.3110   51.4530   96.3140 C.ar   67  PHE67      -0.0003
     29  CE2       65.6670   53.2560   94.8600 C.ar   67  PHE67      -0.0003
     30  CZ        64.8430   52.2900   95.3550 C.ar   67  PHE67      -0.0000
     31  N         68.6490   50.8550   89.6490 N.3    98  ASP98      -0.1239
     32  CA        68.5420   51.8940   88.6070 C.3    98  ASP98       0.1674
     33  C         69.9650   52.3660   88.2030 C.2    98  ASP98       0.2266
     34  O         70.3720   53.4740   88.5590 O.2    98  ASP98      -0.2867
     35  CB        67.7240   53.1130   89.0930 C.3    98  ASP98       0.1410
     36  CG        66.3440   52.7210   89.6520 C.2    98  ASP98       0.3668
     37  OD1       65.5060   52.2530   88.8680 O.co2  98  ASP98      -0.2456
     38  OD2       66.0930   52.8740   90.8660 O.co2  98  ASP98      -0.2456
     39  N         71.1390   53.6280   85.3260 N.3   100  GLU100     -0.1245
     40  CA        70.7360   54.2020   84.0560 C.3   100  GLU100      0.1567
     41  C         71.9260   54.7870   83.3420 C.2   100  GLU100      0.2260
     42  O         72.0050   54.7530   82.0860 O.2   100  GLU100     -0.2867
     43  CB        69.6870   55.2930   84.2670 C.3   100  GLU100      0.0388
     44  CG        68.3380   54.7250   84.6410 C.3   100  GLU100      0.1160
     45  CD        67.3630   55.7960   85.0790 C.2   100  GLU100      0.3649
     46  OE1       67.3250   56.8830   84.4380 O.co2 100  GLU100     -0.2457
     47  OE2       66.6460   55.5620   86.0660 O.co2 100  GLU100     -0.2457
     48  N         73.7660   54.3620   90.9320 N.3   106  ARG106     -0.1245
     49  CA        73.7360   53.9340   92.3250 C.3   106  ARG106      0.1563
     50  C         75.0990   53.4270   92.7680 C.2   106  ARG106      0.2260
     51  O         75.4530   53.5460   93.9350 O.2   106  ARG106     -0.2867
     52  CB        72.6850   52.8020   92.5800 C.3   106  ARG106      0.0307
     53  CG        71.1610   53.0390   92.1980 C.3   106  ARG106      0.0489
     54  CD        70.5560   54.3550   92.5920 C.3   106  ARG106      0.2205
     55  NE        69.1040   54.4330   92.3700 N.pl3 106  ARG106     -0.0865
     56  CZ        68.4240   55.5720   92.1170 C.cat 106  ARG106      0.5346
     57  NH1       69.0420   56.7420   92.0100 N.pl3 106  ARG106      0.1354
     58  NH2       67.1090   55.5670   91.9450 N.pl3 106  ARG106      0.1354
     59  N         66.9150   48.4000   85.7640 N.3   148  PHE148     -0.1241
     60  CA        65.7120   49.1080   85.3150 C.3   148  PHE148      0.1605
     61  C         66.1620   50.1950   84.3830 C.2   148  PHE148      0.2264
     62  O         66.1580   51.3890   84.7010 O.2   148  PHE148     -0.2867
     63  CB        64.8820   49.6430   86.4740 C.3   148  PHE148      0.0534
     64  CG        64.2830   48.5700   87.3260 C.ar  148  PHE148     -0.0203
     65  CD1       63.9870   48.8030   88.6870 C.ar  148  PHE148     -0.0042
     66  CD2       64.0000   47.3200   86.7730 C.ar  148  PHE148     -0.0042
     67  CE1       63.4170   47.8070   89.4690 C.ar  148  PHE148     -0.0003
     68  CE2       63.4300   46.3080   87.5510 C.ar  148  PHE148     -0.0003
     69  CZ        63.1480   46.5600   88.9130 C.ar  148  PHE148     -0.0000
     70  N         60.9020   65.2040   85.9430 N.3   162  VAL162     -0.1231
     71  CA        61.4050   63.9040   86.3830 C.3   162  VAL162      0.1692
     72  C         62.2440   63.1490   85.3010 C.2   162  VAL162      0.2591
     73  O         63.1540   62.4070   85.6390 O.2   162  VAL162     -0.2718
     74  CB        60.2440   63.0340   86.9260 C.3   162  VAL162      0.0266
     75  CG1       59.1210   62.8880   85.9350 C.3   162  VAL162      0.0020
     76  CG2       60.7420   61.6910   87.3400 C.3   162  VAL162      0.0020
     77  N         61.9310   63.3200   84.0120 N.am  163  ILE163     -0.1980
     78  CA        62.6770   62.6290   82.9190 C.3   163  ILE163      0.1595
     79  C         63.8120   63.5450   82.4600 C.2   163  ILE163      0.2287
     80  O         64.9100   63.3180   82.8740 O.2   163  ILE163     -0.2864
     81  CB        61.7090   62.1100   81.7960 C.3   163  ILE163      0.0276
     82  CG1       60.7300   61.0910   82.4220 C.3   163  ILE163      0.0022
     83  CG2       62.4210   61.6080   80.5560 C.3   163  ILE163      0.0022
     84  CD1       61.3680   60.1270   83.3900 C.3   163  ILE163      0.0001
     85  N         67.3210   62.1710   81.4170 N.3   166  ARG166     -0.1245
     86  CA        67.2370   60.7320   81.4700 C.3   166  ARG166      0.1563
     87  C         66.7090   60.1770   80.1190 C.2   166  ARG166      0.2260
     88  O         66.8530   59.0190   79.8340 O.2   166  ARG166     -0.2867
     89  CB        66.3660   60.2920   82.6390 C.3   166  ARG166      0.0307
     90  CG        66.9810   60.5480   84.0190 C.3   166  ARG166      0.0489
     91  CD        65.9060   60.3920   85.1480 C.3   166  ARG166      0.2205
     92  NE        65.5400   58.9950   85.3920 N.pl3 166  ARG166     -0.0865
     93  CZ        64.3980   58.5660   85.9190 C.cat 166  ARG166      0.5346
     94  NH1       63.4540   59.4120   86.2890 N.pl3 166  ARG166      0.1354
     95  NH2       64.2080   57.2630   86.0820 N.pl3 166  ARG166      0.1354
     96  N         61.2890   51.6790   80.4960 N.3   196  LYS196     -0.1231
     97  CA        60.4400   52.5060   81.3240 C.3   196  LYS196      0.1693
     98  C         60.2460   53.8770   80.6940 C.2   196  LYS196      0.2592
     99  O         61.1430   54.3360   80.0050 O.2   196  LYS196     -0.2718
    100  CB        61.0160   52.6060   82.7380 C.3   196  LYS196      0.0285
    101  CG        62.5260   52.6150   82.7860 C.3   196  LYS196      0.0035
    102  CD        63.0510   52.4830   84.2110 C.3   196  LYS196      0.0206
    103  CE        63.8460   53.7170   84.6120 C.3   196  LYS196      0.1093
    104  NZ        64.5410   53.5100   85.8860 N.3   196  LYS196     -0.1314
    105  N         59.0990   54.5360   80.9460 N.am  197  HIS197     -0.1976
    106  CA        58.0360   54.0630   81.8830 C.3   197  HIS197      0.1656
    107  C         56.7410   53.9940   81.1190 C.2   197  HIS197      0.2291
    108  O         56.2570   54.9680   80.6190 O.2   197  HIS197     -0.2864
    109  CB        57.8470   55.0030   83.1100 C.3   197  HIS197      0.0771
    110  CG        59.1060   55.2790   83.8810 C.ar  197  HIS197      0.0820
    111  ND1       60.0790   56.1510   83.4310 N.ar  197  HIS197     -0.2267
    112  CD2       59.5480   54.8080   85.0720 C.ar  197  HIS197      0.1154
    113  CE1       61.0670   56.1990   84.3120 C.ar  197  HIS197      0.1986
    114  NE2       60.7740   55.3970   85.3160 N.ar  197  HIS197     -0.2212
    115  N         56.2750   58.4920   79.8800 N.3   201  HIS201     -0.1241
    116  CA        56.2870   59.5500   80.8810 C.3   201  HIS201      0.1621
    117  C         56.9270   60.8660   80.4010 C.2   201  HIS201      0.2264
    118  O         57.1790   61.7600   81.2090 O.2   201  HIS201     -0.2867
    119  CB        57.0870   59.0330   82.0800 C.3   201  HIS201      0.0745
    120  CG        56.6950   59.6340   83.4040 C.ar  201  HIS201      0.0817
    121  ND1       56.4390   60.9790   83.5890 N.ar  201  HIS201     -0.2268
    122  CD2       56.5110   59.0520   84.6120 C.ar  201  HIS201      0.1154
    123  CE1       56.1290   61.1920   84.8510 C.ar  201  HIS201      0.1986
    124  NE2       56.1920   60.0430   85.4930 N.ar  201  HIS201     -0.2212
    125  N         55.9040   62.2150   89.1400 N.3   208  SER208     -0.1202
    126  CA        55.0580   61.1920   89.7440 C.3   208  SER208      0.2020
    127  C         55.6140   60.7130   91.1060 C.2   208  SER208      0.2619
    128  O         54.9470   59.9890   91.8330 O.2   208  SER208     -0.2717
    129  CB        54.8500   60.0250   88.7570 C.3   208  SER208      0.2103
    130  OG        56.0830   59.5480   88.2290 O.3   208  SER208     -0.2182
    131  N         56.8400   61.1360   91.4400 N.am  209  HIS209     -0.1961
    132  CA        57.3180   61.0250   92.8330 C.3   209  HIS209      0.1787
    133  C         56.4590   61.8640   93.8190 C.2   209  HIS209      0.2620
    134  O         56.3360   61.5090   94.9950 O.2   209  HIS209     -0.2715
    135  CB        58.7720   61.4970   92.9630 C.3   209  HIS209      0.0785
    136  CG        59.7720   60.5910   92.3230 C.ar  209  HIS209      0.0821
    137  ND1       60.1600   60.7350   91.0180 N.ar  209  HIS209     -0.2267
    138  CD2       60.4930   59.5610   92.8240 C.ar  209  HIS209      0.1154
    139  CE1       61.0700   59.8210   90.7280 C.ar  209  HIS209      0.1986
    140  NE2       61.2770   59.0840   91.8010 N.ar  209  HIS209     -0.2212
    141  N         55.8900   62.9610   93.3200 N.am  210  TYR210     -0.1974
    142  CA        55.3170   64.0500   94.1420 C.3   210  TYR210      0.1639
    143  C         53.8100   64.2540   93.9210 C.2   210  TYR210      0.2290
    144  O         53.1200   64.8470   94.7530 O.2   210  TYR210     -0.2864
    145  CB        56.0890   65.3620   93.9020 C.3   210  TYR210      0.0560
    146  CG        57.5110   65.2700   94.4240 C.ar  210  TYR210     -0.0198
    147  CD1       57.7500   65.1370   95.7940 C.ar  210  TYR210     -0.0009
    148  CD2       58.6170   65.2480   93.5590 C.ar  210  TYR210     -0.0009
    149  CE1       59.0510   64.9960   96.2930 C.ar  210  TYR210      0.0417
    150  CE2       59.9320   65.1030   94.0580 C.ar  210  TYR210      0.0417
    151  CZ        60.1270   64.9850   95.4240 C.ar  210  TYR210      0.1957
    152  OH        61.3870   64.8640   95.9650 O.3   210  TYR210     -0.2866
    153  N         58.6120   48.4700   82.7560 N.3   242  MET242     -0.1245
    154  CA        58.1880   49.1930   83.9410 C.3   242  MET242      0.1570
    155  C         57.0350   50.1430   83.5870 C.2   242  MET242      0.2261
    156  O         57.0320   50.7790   82.5060 O.2   242  MET242     -0.2867
    157  CB        59.3410   49.9590   84.5840 C.3   242  MET242      0.0387
    158  CG        58.9510   50.5910   85.9350 C.3   242  MET242      0.0595
    159  SD        60.3170   51.3440   86.7870 S.3   242  MET242     -0.1393
    160  CE        61.0950   49.9290   87.5570 C.3   242  MET242      0.0692
    161  N         56.2980   50.7890   88.4620 N.3   293  ASP293     -0.1225
    162  CA        57.1810   51.7610   89.1120 C.3   293  ASP293      0.1805
    163  C         56.9620   51.6800   90.6530 C.2   293  ASP293      0.2597
    164  O         56.0230   51.0250   91.1270 O.2   293  ASP293     -0.2718
    165  CB        56.8510   53.1480   88.6040 C.3   293  ASP293      0.1424
    166  CG        57.9660   54.1130   88.7730 C.2   293  ASP293      0.3668
    167  OD1       58.9330   53.8150   89.4330 O.co2 293  ASP293     -0.2456
    168  OD2       57.8710   55.2090   88.2330 O.co2 293  ASP293     -0.2456
    169  N         57.8230   52.3050   91.4440 N.am  294  ALA294     -0.1979
    170  CA        57.7350   52.2040   92.9190 C.3   294  ALA294      0.1597
    171  C         56.3480   52.6210   93.4640 C.2   294  ALA294      0.2287
    172  O         55.8330   53.6760   93.1470 O.2   294  ALA294     -0.2864
    173  CB        58.8480   53.0380   93.5500 C.3   294  ALA294      0.0319
    174  N         55.5880   53.3440   96.4070 N.3   296  ASN296     -0.1225
    175  CA        55.7180   54.3360   97.4720 C.3   296  ASN296      0.1785
    176  C         55.5710   55.7650   96.9460 C.2   296  ASN296      0.2597
    177  O         55.3810   56.6860   97.7310 O.2   296  ASN296     -0.2718
    178  CB        57.0660   54.2150   98.1700 C.3   296  ASN296      0.1169
    179  CG        58.2150   54.5960   97.2750 C.2   296  ASN296      0.2627
    180  OD1       58.4950   53.9160   96.2890 O.2   296  ASN296     -0.2716
    181  ND2       58.9230   55.6620   97.6340 N.am  296  ASN296     -0.0877
    182  N         55.7120   55.9570   95.6430 N.am  297  MET297     -0.1965
    183  CA        55.5760   57.2910   95.0570 C.3   297  MET297      0.1736
    184  C         54.1800   57.8790   95.3250 C.2   297  MET297      0.2616
    185  O         53.1790   57.1640   95.3770 O.2   297  MET297     -0.2715
    186  CB        55.8510   57.2650   93.5450 C.3   297  MET297      0.0427
    187  CG        57.2350   56.7340   93.1800 C.3   297  MET297      0.0599
    188  SD        57.4160   56.1160   91.4450 S.3   297  MET297     -0.1393
    189  CE        57.5390   57.6940   90.5650 C.3   297  MET297      0.0692
    190  N         54.1270   59.2000   95.4890 N.am  298  LYS298     -0.1977
    191  CA        52.8900   59.8930   95.8400 C.3   298  LYS298      0.1596
    192  C         51.7900   59.8620   94.7610 C.2   298  LYS298      0.2287
    193  O         50.5750   59.9980   95.0860 O.2   298  LYS298     -0.2864
    194  CB        53.2160   61.3380   96.2370 C.3   298  LYS298      0.0298
    195  CG        53.9040   61.4440   97.6060 C.3   298  LYS298      0.0038
    196  CD        54.3270   62.8790   97.8730 C.3   298  LYS298      0.0206
    197  CE        53.6890   63.3800   99.1730 C.3   298  LYS298      0.1093
    198  NZ        52.6560   64.4670   98.9850 N.3   298  LYS298     -0.1314
    199  N         56.4970   46.5270   92.6710 N.3   322  LEU322     -0.1231
    200  CA        57.7980   47.0150   93.0960 C.3   322  LEU322      0.1693
    201  C         57.6660   47.9520   94.3160 C.2   322  LEU322      0.2591
    202  O         56.8740   48.8720   94.2780 O.2   322  LEU322     -0.2718
    203  CB        58.4370   47.7750   91.9500 C.3   322  LEU322      0.0284
    204  CG        59.8080   48.4190   92.1950 C.3   322  LEU322      0.0019
    205  CD1       60.8850   47.3460   92.4630 C.3   322  LEU322      0.0001
    206  CD2       60.1490   49.3410   91.0040 C.3   322  LEU322      0.0001
    207  N         58.4700   47.7310   95.3550 N.am  323  MET323     -0.1979
    208  CA        58.3890   48.5210   96.6050 C.3   323  MET323      0.1605
    209  C         56.9460   48.7060   97.1420 C.2   323  MET323      0.2287
    210  O         56.4440   49.8270   97.2590 O.2   323  MET323     -0.2864
    211  CB        59.0950   49.8680   96.4040 C.3   323  MET323      0.0413
    212  CG        60.5450   49.6930   96.0180 C.3   323  MET323      0.0598
    213  SD        61.3250   51.1550   95.3800 S.3   323  MET323     -0.1393
    214  CE        61.1940   52.3200   96.7180 C.3   323  MET323      0.0692
@<TRIPOS>BOND
     1    88    87    2
     2   115   116    1
     3    99    98    2
     4    87    86    1
     5   117   116    1
     6   117   118    2
     7    96    97    1
     8    83    81    1
     9   108   107    2
    10    98   105   am
    11    98    97    1
    12   116   119    1
    13   105   106    1
    14   107   106    1
    15    97   100    1
    16    85    86    1
    17    86    89    1
    18    81    82    1
    19    81    78    1
    20   106   109    1
    21   119   120    1
    22    42    41    2
    23    82    84    1
    24    79    80    2
    25    79    78    1
    26   156   155    2
    27    89    90    1
    28   100   101    1
    29   153   154    1
    30   101   102    1
    31    78    77    1
    32   109   110    1
    33    41    40    1
    34   120   121   ar
    35   120   122   ar
    36   111   110   ar
    37   111   113   ar
    38   155   154    1
    39   121   123   ar
    40   110   112   ar
    41   154   157    1
    42    77    72   am
    43    90    91    1
    44    40    43    1
    45    40    39    1
    46   102   103    1
    47    43    44    1
    48   113   114   ar
    49    61    62    2
    50    61    60    1
    51    46    45   ar
    52   157   158    1
    53   122   124   ar
    54   103   104    1
    55    44    45    1
    56   123   124   ar
    57   112   114   ar
    58    45    47   ar
    59    91    92    1
    60    72    73    2
    61    72    71    1
    62    60    59    1
    63    60    63    1
    64    92    93    2
    65    93    95    1
    66    93    94    1
    67   158   159    1
    68    75    74    1
    69    70    71    1
    70    71    74    1
    71    63    64    1
    72    66    64   ar
    73    66    68   ar
    74   159   160    1
    75    74    76    1
    76    64    65   ar
    77    68    69   ar
    78    33    34    2
    79    33    32    1
    80   130   129    1
    81   168   166   ar
    82   161   162    1
    83   165   166    1
    84   165   162    1
    85    32    35    1
    86    32    31    1
    87    65    67   ar
    88   129   126    1
    89   166   167   ar
    90    37    36   ar
    91    69    67   ar
    92    35    36    1
    93   162   163    1
    94   125   126    1
    95    36    38   ar
    96   126   127    1
    97   189   188    1
    98   163   164    2
    99   163   169   am
   100   139   137   ar
   101   139   140   ar
   102    48    49    1
   103   206   204    1
   104   137   136   ar
   105   127   131   am
   106   127   128    2
   107   131   132    1
   108   169   170    1
   109   188   187    1
   110   140   138   ar
   111    58    56    1
   112   203   204    1
   113   203   200    1
   114    57    56    1
   115    56    55    2
   116   204   205    1
   117    53    52    1
   118    53    54    1
   119   136   138   ar
   120   136   135    1
   121    49    52    1
   122    49    50    1
   123    55    54    1
   124    19    17    1
   125   199   200    1
   126    50    51    2
   127   132   135    1
   128   132   133    1
   129   170   171    1
   130   170   173    1
   131   200   201    1
   132   172   171    2
   133   187   186    1
   134    17    16    1
   135   141   133   am
   136   141   142    1
   137   186   183    1
   138   148   150   ar
   139   148   146   ar
   140   133   134    2
   141   145   142    1
   142   145   146    1
   143   143   142    1
   144   143   144    2
   145    16    13    1
   146    16    18    1
   147   150   151   ar
   148   202   201    2
   149   201   207   am
   150   146   147   ar
   151    13    12    1
   152    13    14    1
   153   192   193    2
   154   192   191    1
   155    29    30   ar
   156    29    27   ar
   157   183   184    1
   158   183   182    1
   159   184   185    2
   160   184   190   am
   161    30    28   ar
   162   207   208    1
   163    27    25   ar
   164   213   212    1
   165   213   214    1
   166    14    15    2
   167   151   152    1
   168   151   149   ar
   169   190   191    1
   170   182   176   am
   171   147   149   ar
   172   191   194    1
   173   212   211    1
   174    21    20    1
   175    21    22    1
   176    21    24    1
   177   194   195    1
   178   180   179    2
   179    28    26   ar
   180    25    26   ar
   181    25    24    1
   182   211   208    1
   183   174   175    1
   184    22    23    2
   185   208   209    1
   186   176   175    1
   187   176   177    2
   188   209   210    2
   189   179   181   am
   190   179   178    1
   191   175   178    1
   192   195   196    1
   193    11     9    1
   194   196   197    1
   195    10     9    1
   196     9     8    2
   197   198   197    1
   198     8     7    1
   199     7     6    1
   200     6     5    1
   201     5     2    1
   202     2     1    1
   203     2     3    1
   204     3     4    2
