@<TRIPOS>MOLECULE
tmp/3nvkE00.pdb
 164 154 0 0 0
SMALL
GASTEIGER

@<TRIPOS>ATOM
      1  N        -45.3990  -53.6930    4.6620 N.3    55  ARG55      -0.1245
      2  CA       -46.1140  -52.9490    3.6420 C.3    55  ARG55       0.1563
      3  C        -47.2970  -52.1640    4.2580 C.2    55  ARG55       0.2260
      4  O        -47.3840  -50.9290    4.1220 O.2    55  ARG55      -0.2867
      5  CB       -46.5580  -53.9050    2.5250 C.3    55  ARG55       0.0307
      6  CG       -46.8840  -53.2250    1.1940 C.3    55  ARG55       0.0489
      7  CD       -45.6570  -52.5690    0.5660 C.3    55  ARG55       0.2205
      8  NE       -44.5200  -53.4830    0.5260 N.pl3  55  ARG55      -0.0865
      9  CZ       -44.3920  -54.4720   -0.3510 C.cat  55  ARG55       0.5346
     10  NH1      -43.3210  -55.2520   -0.3020 N.pl3  55  ARG55       0.1354
     11  NH2      -45.3350  -54.6820   -1.2700 N.pl3  55  ARG55       0.1354
     12  N        -49.0240  -50.8020    7.5170 N.3    57  LYS57      -0.1245
     13  CA       -48.8060  -50.4870    8.9420 C.3    57  LYS57       0.1561
     14  C        -49.7570  -51.2770    9.8410 C.2    57  LYS57       0.2260
     15  O        -49.3240  -51.9670   10.7520 O.2    57  LYS57      -0.2867
     16  CB       -48.9570  -48.9790    9.2190 C.3    57  LYS57       0.0271
     17  CG       -47.6630  -48.1710    9.1400 C.3    57  LYS57       0.0035
     18  CD       -47.9280  -46.7330    8.7120 C.3    57  LYS57       0.0206
     19  CE       -48.0880  -46.5940    7.1810 C.3    57  LYS57       0.1093
     20  NZ       -49.2190  -47.4010    6.6150 N.3    57  LYS57      -0.1314
     21  N        -56.8320  -41.4280    3.3830 N.3    81  GLY81      -0.1225
     22  CA       -55.4720  -41.7220    2.9560 C.3    81  GLY81       0.1811
     23  C        -55.2510  -43.1070    2.3880 C.2    81  GLY81       0.2280
     24  O        -54.2920  -43.7910    2.7380 O.2    81  GLY81      -0.2866
     25  N        -54.4940  -44.3120   -0.6870 N.3    83  ALA83      -0.1245
     26  CA       -53.3480  -44.5970   -1.5660 C.3    83  ALA83       0.1562
     27  C        -53.6270  -45.5390   -2.7270 C.2    83  ALA83       0.2260
     28  O        -54.7240  -45.5580   -3.2620 O.2    83  ALA83      -0.2867
     29  CB       -52.1820  -45.1450   -0.7460 C.3    83  ALA83       0.0290
     30  N        -52.9610  -50.8380   -1.4200 N.3    86  THR86      -0.1203
     31  CA       -52.2900  -51.9420   -0.7420 C.3    86  THR86       0.1994
     32  C        -52.8110  -52.0480    0.6830 C.2    86  THR86       0.2618
     33  O        -53.0690  -53.1410    1.1810 O.2    86  THR86      -0.2717
     34  CB       -50.7440  -51.7860   -0.7160 C.3    86  THR86       0.1784
     35  OG1      -50.3530  -50.9110    0.3480 O.3    86  THR86      -0.2211
     36  CG2      -50.2230  -51.2380   -2.0420 C.3    86  THR86       0.0376
     37  N        -52.9890  -50.8950    1.3210 N.am   87  THR87      -0.1952
     38  CA       -53.2640  -50.8370    2.7590 C.3    87  THR87       0.1897
     39  C        -54.7250  -51.0490    3.2100 C.2    87  THR87       0.2313
     40  O        -54.9650  -51.4890    4.3340 O.2    87  THR87      -0.2863
     41  CB       -52.6270  -49.5600    3.3960 C.3    87  THR87       0.1794
     42  OG1      -53.0470  -49.4300    4.7670 O.3    87  THR87      -0.2208
     43  CG2      -52.9680  -48.2910    2.5730 C.3    87  THR87       0.0378
     44  N        -60.2230  -42.1380    0.5520 N.3   104  ILE104     -0.1231
     45  CA       -59.9480  -40.7960    0.1200 C.3   104  ILE104      0.1692
     46  C        -58.4590  -40.5760   -0.0980 C.2   104  ILE104      0.2592
     47  O        -57.7430  -40.3290    0.8740 O.2   104  ILE104     -0.2718
     48  CB       -60.3810  -39.8810    1.2520 C.3   104  ILE104      0.0266
     49  CG1      -61.8930  -39.9660    1.3860 C.3   104  ILE104      0.0019
     50  CG2      -59.8220  -38.5020    1.0450 C.3   104  ILE104      0.0020
     51  CD1      -62.5590  -38.6470    1.5680 C.3   104  ILE104      0.0001
     52  N        -58.0060  -40.6120   -1.3580 N.am  105  GLU105     -0.1966
     53  CA       -56.7220  -40.0240   -1.7650 C.3   105  GLU105      0.1733
     54  C        -56.7830  -38.5540   -2.1810 C.2   105  GLU105      0.2616
     55  O        -57.8160  -38.0270   -2.6170 O.2   105  GLU105     -0.2715
     56  CB       -55.9920  -40.8520   -2.8190 C.3   105  GLU105      0.0429
     57  CG       -54.7560  -41.5920   -2.3060 C.3   105  GLU105      0.1163
     58  CD       -53.8260  -40.7330   -1.4690 C.2   105  GLU105      0.3649
     59  OE1      -52.9700  -40.0210   -2.0110 O.co2 105  GLU105     -0.2457
     60  OE2      -53.9320  -40.7770   -0.2420 O.co2 105  GLU105     -0.2457
     61  N        -55.6390  -37.9120   -2.0820 N.am  106  PHE106     -0.1960
     62  CA       -55.5030  -36.5360   -2.4880 C.3   106  PHE106      0.1771
     63  C        -54.7680  -36.4910   -3.8440 C.2   106  PHE106      0.2620
     64  O        -55.3010  -35.9840   -4.8570 O.2   106  PHE106     -0.2715
     65  CB       -54.7640  -35.8120   -1.3870 C.3   106  PHE106      0.0574
     66  CG       -54.2840  -34.4580   -1.7520 C.ar  106  PHE106     -0.0200
     67  CD1      -53.1420  -34.3040   -2.5140 C.ar  106  PHE106     -0.0042
     68  CD2      -54.9260  -33.3300   -1.2760 C.ar  106  PHE106     -0.0042
     69  CE1      -52.6680  -33.0540   -2.8220 C.ar  106  PHE106     -0.0003
     70  CE2      -54.4540  -32.0720   -1.5770 C.ar  106  PHE106     -0.0003
     71  CZ       -53.3220  -31.9340   -2.3460 C.ar  106  PHE106     -0.0000
     72  N        -53.5400  -37.0140   -3.8550 N.am  107  SER107     -0.1950
     73  CA       -52.7700  -37.1560   -5.0880 C.3   107  SER107      0.1924
     74  C        -53.5620  -38.0320   -6.0390 C.2   107  SER107      0.2314
     75  O        -53.8060  -39.2050   -5.7390 O.2   107  SER107     -0.2863
     76  CB       -51.4220  -37.8130   -4.7970 C.3   107  SER107      0.2116
     77  OG       -50.5640  -37.7560   -5.9190 O.3   107  SER107     -0.2180
     78  N        -51.9160  -41.5490   -7.6870 N.3   110  VAL110     -0.1245
     79  CA       -51.9730  -42.7760   -6.8990 C.3   110  VAL110      0.1561
     80  C        -53.3910  -43.3270   -6.8550 C.2   110  VAL110      0.2260
     81  O        -53.6070  -44.4860   -7.1430 O.2   110  VAL110     -0.2867
     82  CB       -51.4430  -42.5400   -5.4880 C.3   110  VAL110      0.0252
     83  CG1      -49.9370  -42.5620   -5.4880 C.3   110  VAL110      0.0019
     84  CG2      -51.8900  -41.2110   -5.0180 C.3   110  VAL110      0.0019
     85  N        -60.1830  -36.3540   -2.9400 N.3   129  GLY129     -0.1210
     86  CA       -60.5540  -35.3770   -1.9220 C.3   129  GLY129      0.1956
     87  C        -59.4620  -34.9720   -0.9400 C.2   129  GLY129      0.2612
     88  O        -58.3880  -35.5830   -0.9110 O.2   129  GLY129     -0.2717
     89  N        -59.7180  -33.9330   -0.1470 N.am  130  ASP130     -0.1959
     90  CA       -58.7200  -33.5170    0.8220 C.3   130  ASP130      0.1840
     91  C        -59.2690  -33.6190    2.2140 C.2   130  ASP130      0.2622
     92  O        -60.1920  -32.8830    2.5680 O.2   130  ASP130     -0.2715
     93  CB       -58.2490  -32.0870    0.5960 C.3   130  ASP130      0.1450
     94  CG       -57.1230  -31.7040    1.5460 C.2   130  ASP130      0.3671
     95  OD1      -57.1100  -32.2310    2.6790 O.co2 130  ASP130     -0.2456
     96  OD2      -56.2400  -30.9060    1.1680 O.co2 130  ASP130     -0.2456
     97  N        -58.6730  -34.5060    3.0090 N.am  131  ALA131     -0.1963
     98  CA       -59.1460  -34.7730    4.3650 C.3   131  ALA131      0.1728
     99  C        -59.2750  -33.4930    5.2020 C.2   131  ALA131      0.2616
    100  O        -60.2110  -33.3580    6.0000 O.2   131  ALA131     -0.2715
    101  CB       -58.2490  -35.7830    5.0430 C.3   131  ALA131      0.0334
    102  N        -58.3490  -32.5560    4.9870 N.am  132  THR132     -0.1951
    103  CA       -58.4040  -31.2280    5.5960 C.3   132  THR132      0.1897
    104  C        -59.7990  -30.6390    5.4850 C.2   132  THR132      0.2313
    105  O        -60.3220  -30.0680    6.4480 O.2   132  THR132     -0.2863
    106  CB       -57.4910  -30.2550    4.8490 C.3   132  THR132      0.1794
    107  OG1      -56.1350  -30.6800    4.9650 O.3   132  THR132     -0.2208
    108  CG2      -57.6220  -28.8530    5.3970 C.3   132  THR132      0.0378
    109  N        -54.5440  -42.3650    7.7940 N.3   150  ASP150     -0.1225
    110  CA       -53.1050  -42.6130    7.6240 C.3   150  ASP150      0.1805
    111  C        -52.2980  -41.3390    7.3170 C.2   150  ASP150      0.2598
    112  O        -51.6630  -40.7920    8.2250 O.2   150  ASP150     -0.2718
    113  CB       -52.8710  -43.6500    6.5330 C.3   150  ASP150      0.1424
    114  CG       -51.4690  -44.2260    6.5730 C.2   150  ASP150      0.3668
    115  OD1      -50.5530  -43.5350    7.0800 O.co2 150  ASP150     -0.2456
    116  OD2      -51.2850  -45.3740    6.0980 O.co2 150  ASP150     -0.2456
    117  N        -52.3190  -40.8820    6.0600 N.am  151  VAL151     -0.1966
    118  CA       -52.0270  -39.4830    5.6940 C.3   151  VAL151      0.1727
    119  C        -50.8710  -38.7430    6.3880 C.2   151  VAL151      0.2616
    120  O        -51.1410  -37.8370    7.1720 O.2   151  VAL151     -0.2715
    121  CB       -53.3050  -38.5990    5.8700 C.3   151  VAL151      0.0290
    122  CG1      -54.4810  -39.1790    5.1140 C.3   151  VAL151      0.0023
    123  CG2      -53.6850  -38.4590    7.3330 C.3   151  VAL151      0.0023
    124  N        -49.6010  -39.0490    6.1180 N.am  152  ALA152     -0.1963
    125  CA       -48.5970  -38.4390    6.9950 C.3   152  ALA152      0.1728
    126  C        -48.6750  -36.9460    6.7570 C.2   152  ALA152      0.2616
    127  O        -48.2290  -36.4350    5.7220 O.2   152  ALA152     -0.2715
    128  CB       -47.2050  -38.9390    6.6560 C.3   152  ALA152      0.0334
    129  N        -49.2190  -36.2540    7.7560 N.am  153  GLN153     -0.1977
    130  CA       -49.4870  -34.8260    7.6620 C.3   153  GLN153      0.1601
    131  C        -49.5050  -34.2060    9.0400 C.2   153  GLN153      0.2287
    132  O        -49.9620  -34.8350    9.9880 O.2   153  GLN153     -0.2864
    133  CB       -50.8160  -34.5930    6.9590 C.3   153  GLN153      0.0394
    134  CG       -50.8000  -35.0500    5.5200 C.3   153  GLN153      0.0908
    135  CD       -51.1100  -33.9250    4.6020 C.2   153  GLN153      0.2608
    136  OE1      -52.0760  -33.1960    4.8220 O.2   153  GLN153     -0.2717
    137  NE2      -50.2820  -33.7410    3.5760 N.am  153  GLN153     -0.0878
    138  N        -57.1310  -33.7560   11.8590 N.3   159  ILE159     -0.1245
    139  CA       -57.8430  -34.2550   10.7120 C.3   159  ILE159      0.1561
    140  C        -58.9130  -35.2080   11.2250 C.2   159  ILE159      0.2260
    141  O        -60.0830  -35.1190   10.8330 O.2   159  ILE159     -0.2867
    142  CB       -56.8840  -34.9730    9.7670 C.3   159  ILE159      0.0252
    143  CG1      -56.0500  -33.9540    8.9600 C.3   159  ILE159      0.0019
    144  CG2      -57.6330  -35.9440    8.8690 C.3   159  ILE159      0.0019
    145  CD1      -55.0570  -34.5900    7.9910 C.3   159  ILE159      0.0001
    146  N        -42.0690  -50.5050   11.0380 N.3   216  GLU216     -0.1245
    147  CA       -41.9280  -49.0930   10.7570 C.3   216  GLU216      0.1567
    148  C        -41.2380  -48.4270   11.9560 C.2   216  GLU216      0.2260
    149  O        -41.5040  -48.7540   13.1100 O.2   216  GLU216     -0.2867
    150  CB       -43.2950  -48.4600   10.4340 C.3   216  GLU216      0.0388
    151  CG       -43.9580  -48.9850    9.1530 C.3   216  GLU216      0.1160
    152  CD       -43.2500  -48.5090    7.8760 C.2   216  GLU216      0.3649
    153  OE1      -43.7520  -48.7800    6.7540 O.co2 216  GLU216     -0.2457
    154  OE2      -42.1900  -47.8560    7.9930 O.co2 216  GLU216     -0.2457
    155  N        -43.2870  -44.8710   14.3450 N.3   219  HIS219     -0.1241
    156  CA       -44.6880  -44.6120   14.0830 C.3   219  HIS219      0.1621
    157  C        -45.3950  -45.1930   15.2690 C.2   219  HIS219      0.2264
    158  O        -44.7880  -45.9060   16.0370 O.2   219  HIS219     -0.2867
    159  CB       -45.1830  -45.4420   12.9040 C.3   219  HIS219      0.0745
    160  CG       -44.6670  -45.0200   11.5630 C.ar  219  HIS219      0.0817
    161  ND1      -43.3460  -44.7050   11.3300 N.ar  219  HIS219     -0.2268
    162  CD2      -45.2940  -44.9300   10.3710 C.ar  219  HIS219      0.1154
    163  CE1      -43.1890  -44.4070   10.0550 C.ar  219  HIS219      0.1986
    164  NE2      -44.3520  -44.5380    9.4500 N.ar  219  HIS219     -0.2212
@<TRIPOS>BOND
     1    78    79    1
     2    81    80    2
     3    79    80    1
     4    79    82    1
     5    74    75    2
     6    74    73    1
     7    77    76    1
     8    83    82    1
     9    82    84    1
    10    73    76    1
    11    73    72    1
    12    64    63    2
    13    72    63   am
    14    63    62    1
    15    28    27    2
    16    85    86    1
    17    69    67   ar
    18    69    71   ar
    19    56    57    1
    20    56    53    1
    21    27    26    1
    22    55    54    2
    23    67    66   ar
    24    62    61    1
    25    62    65    1
    26    71    70   ar
    27    57    58    1
    28    54    61   am
    29    54    53    1
    30    36    34    1
    31    59    58   ar
    32    86    87    1
    33    53    52    1
    34    66    65    1
    35    66    68   ar
    36    70    68   ar
    37    26    29    1
    38    26    25    1
    39    58    60   ar
    40    30    31    1
    41    52    46   am
    42    11     9    1
    43    87    88    2
    44    87    89   am
    45    31    34    1
    46    31    32    1
    47    34    35    1
    48     9    10    1
    49     9     8    2
    50    89    90    1
    51    46    45    1
    52    46    47    2
    53    45    44    1
    54    45    48    1
    55     8     7    1
    56     7     6    1
    57    93    90    1
    58    93    94    1
    59    32    33    2
    60    32    37   am
    61    90    91    1
    62    50    48    1
    63    96    94   ar
    64     6     5    1
    65    48    49    1
    66    37    38    1
    67    49    51    1
    68    94    95   ar
    69    91    92    2
    70    91    97   am
    71    23    24    2
    72    23    22    1
    73     5     2    1
    74    43    41    1
    75    38    39    1
    76    38    41    1
    77    22    21    1
    78    97    98    1
    79    39    40    2
    80    41    42    1
    81   137   135   am
    82     2     3    1
    83     2     1    1
    84     4     3    2
    85    98   101    1
    86    98    99    1
    87   135   136    2
    88   135   134    1
    89   106   107    1
    90   106   108    1
    91   106   103    1
    92   102    99   am
    93   102   103    1
    94   122   121    1
    95    99   100    2
    96   104   103    1
    97   104   105    2
    98   134   133    1
    99   118   121    1
   100   118   117    1
   101   118   119    1
   102   127   126    2
   103   121   123    1
   104   117   111   am
   105   116   114   ar
   106   124   119   am
   107   124   125    1
   108   119   120    2
   109   113   114    1
   110   113   110    1
   111   114   115   ar
   112    20    19    1
   113   128   125    1
   114   153   152   ar
   115   126   125    1
   116   126   129   am
   117   133   130    1
   118    19    18    1
   119   111   110    1
   120   111   112    2
   121    12    13    1
   122   110   109    1
   123   130   129    1
   124   130   131    1
   125   152   154   ar
   126   152   151    1
   127   145   143    1
   128    18    17    1
   129   144   142    1
   130    13    16    1
   131    13    14    1
   132   143   142    1
   133   131   132    2
   134    17    16    1
   135   151   150    1
   136   164   163   ar
   137   164   162   ar
   138   142   139    1
   139    14    15    2
   140   163   161   ar
   141   162   160   ar
   142   150   147    1
   143   139   140    1
   144   139   138    1
   145   147   146    1
   146   147   148    1
   147   141   140    2
   148   161   160   ar
   149   160   159    1
   150   148   149    2
   151   159   156    1
   152   156   155    1
   153   156   157    1
   154   157   158    2
