@<TRIPOS>MOLECULE
tmp/3nvsA01.pdb
 142 132 0 0 0
SMALL
GASTEIGER

@<TRIPOS>ATOM
      1  N          3.1780   11.6810   15.4050 N.3    22  LYS22      -0.1231
      2  CA         3.8340   12.8460   14.8180 C.3    22  LYS22       0.1693
      3  C          3.6670   12.8870   13.2860 C.2    22  LYS22       0.2592
      4  O          3.3270   13.9220   12.7130 O.2    22  LYS22      -0.2718
      5  CB         5.3200   12.8550   15.1910 C.3    22  LYS22       0.0285
      6  CG         6.1440   13.9760   14.5530 C.3    22  LYS22       0.0035
      7  CD         7.1790   13.4810   13.5490 C.3    22  LYS22       0.0206
      8  CE         8.3920   12.8840   14.2740 C.3    22  LYS22       0.1093
      9  NZ         9.2490   12.0980   13.3320 N.3    22  LYS22      -0.1314
     10  N          3.8950   11.7540   12.6440 N.am   23  SER23      -0.1952
     11  CA         3.7920   11.6580   11.2050 C.3    23  SER23       0.1924
     12  C          2.4170   12.0050   10.6820 C.2    23  SER23       0.2314
     13  O          2.2450   12.7380    9.7110 O.2    23  SER23      -0.2863
     14  CB         4.2060   10.2620   10.7430 C.3    23  SER23       0.2116
     15  OG         5.5980   10.0320   10.9610 O.3    23  SER23      -0.2180
     16  N          1.1260   15.8070    8.7390 N.3    27  ARG27      -0.1245
     17  CA         0.4650   15.7110    7.4350 C.3    27  ARG27       0.1563
     18  C         -0.9670   16.2830    7.5040 C.2    27  ARG27       0.2260
     19  O         -1.3770   17.0450    6.6350 O.2    27  ARG27      -0.2867
     20  CB         0.3780   14.2750    6.9660 C.3    27  ARG27       0.0307
     21  CG         1.6800   13.6840    6.4560 C.3    27  ARG27       0.0489
     22  CD         1.5550   12.1840    6.3190 C.3    27  ARG27       0.2205
     23  NE         2.6970   11.5240    5.7090 N.pl3  27  ARG27      -0.0865
     24  CZ         3.8590   11.3020    6.3260 C.cat  27  ARG27       0.5346
     25  NH1        4.0790   11.7710    7.5370 N.pl3  27  ARG27       0.1354
     26  NH2        4.8040   10.6470    5.6830 N.pl3  27  ARG27       0.1354
     27  N          9.2830   16.7450    9.2090 N.3    97  THR97      -0.1218
     28  CA         7.8920   16.6670    8.7330 C.3    97  THR97       0.1862
     29  C          7.1990   18.0310    8.6380 C.2    97  THR97       0.2287
     30  O          6.0690   18.0990    8.1570 O.2    97  THR97      -0.2866
     31  CB         7.0390   15.7130    9.5890 C.3    97  THR97       0.1770
     32  OG1        6.9270   16.2290   10.9220 O.3    97  THR97      -0.2211
     33  CG2        7.5750   14.2860    9.5620 C.3    97  THR97       0.0375
     34  N         10.3640   19.6370    5.2330 N.3   100  ARG100     -0.1245
     35  CA        10.2390   19.0650    3.8980 C.3   100  ARG100      0.1563
     36  C          8.8780   19.4000    3.2510 C.2   100  ARG100      0.2260
     37  O          8.8340   19.9640    2.1630 O.2   100  ARG100     -0.2867
     38  CB        10.6320   17.5760    3.8420 C.3   100  ARG100      0.0307
     39  CG        12.1660   17.3110    3.8460 C.3   100  ARG100      0.0489
     40  CD        12.8380   17.6100    5.1680 C.3   100  ARG100      0.2205
     41  NE        14.2390   17.1660    5.1980 N.pl3 100  ARG100     -0.0865
     42  CZ        14.6710   15.9950    5.6560 C.cat 100  ARG100      0.5346
     43  NH1       13.8350   15.0870    6.1380 N.pl3 100  ARG100      0.1354
     44  NH2       15.9760   15.7270    5.6360 N.pl3 100  ARG100      0.1354
     45  N         20.8960   18.7400    7.6990 N.3   124  ARG124     -0.1245
     46  CA        20.0630   17.6230    7.2160 C.3   124  ARG124      0.1563
     47  C         19.6820   17.9180    5.7660 C.2   124  ARG124      0.2260
     48  O         19.2420   19.0120    5.4380 O.2   124  ARG124     -0.2867
     49  CB        18.8570   17.4010    8.1200 C.3   124  ARG124      0.0307
     50  CG        19.2400   16.9160    9.4900 C.3   124  ARG124      0.0489
     51  CD        18.0540   16.6950   10.3780 C.3   124  ARG124      0.2205
     52  NE        17.2170   15.6230    9.8420 N.pl3 124  ARG124     -0.0865
     53  CZ        15.9340   15.4270   10.1290 C.cat 124  ARG124      0.5346
     54  NH1       15.3020   16.1780   11.0290 N.pl3 124  ARG124      0.1354
     55  NH2       15.2970   14.4370    9.5350 N.pl3 124  ARG124      0.1354
     56  N         15.7720   10.0980    1.8170 N.3   170  SER170     -0.1202
     57  CA        14.5640   10.2940    2.6260 C.3   170  SER170      0.2020
     58  C         13.3250   10.1130    1.7990 C.2   170  SER170      0.2619
     59  O         13.2360   10.6130    0.6810 O.2   170  SER170     -0.2717
     60  CB        14.5050   11.6990    3.2070 C.3   170  SER170      0.2103
     61  OG        13.3550   11.8640    4.0220 O.3   170  SER170     -0.2182
     62  N         12.3480    9.4150    2.3460 N.am  171  SER171     -0.1937
     63  CA        11.0300    9.3440    1.7320 C.3   171  SER171      0.2055
     64  C         10.3040   10.6790    1.8220 C.2   171  SER171      0.2642
     65  O          9.2960   10.8840    1.1340 O.2   171  SER171     -0.2714
     66  CB        10.1640    8.2640    2.4250 C.3   171  SER171      0.2130
     67  OG         9.7720    8.6250    3.7410 O.3   171  SER171     -0.2179
     68  N         10.7730   11.5740    2.6770 N.am  172  GLN172     -0.1976
     69  CA        10.0340   12.7990    2.9360 C.3   172  GLN172      0.1601
     70  C         10.0450   13.7270    1.7330 C.2   172  GLN172      0.2287
     71  O          9.1790   14.5970    1.6170 O.2   172  GLN172     -0.2864
     72  CB        10.5830   13.5470    4.1440 C.3   172  GLN172      0.0394
     73  CG        10.3480   12.8370    5.4230 C.3   172  GLN172      0.0908
     74  CD        10.7010   13.6750    6.6320 C.2   172  GLN172      0.2608
     75  OE1       11.0290   14.8500    6.5250 O.2   172  GLN172     -0.2717
     76  NE2       10.5850   13.0760    7.8140 N.am  172  GLN172     -0.0878
     77  N          7.1470   12.4590   -0.1830 N.3   175  THR175     -0.1218
     78  CA         5.9560   12.8680    0.5610 C.3   175  THR175      0.1862
     79  C          5.6190   14.3250    0.3300 C.2   175  THR175      0.2287
     80  O          4.4870   14.6970    0.0880 O.2   175  THR175     -0.2866
     81  CB         6.1020   12.5620    2.0570 C.3   175  THR175      0.1770
     82  OG1        5.8210   11.1730    2.2480 O.3   175  THR175     -0.2211
     83  CG2        5.1950   13.4210    2.9420 C.3   175  THR175      0.0375
     84  N         12.2510    3.8400    3.4920 N.3   198  SER198     -0.1217
     85  CA        11.1560    4.2340    4.4040 C.3   198  SER198      0.1889
     86  C          9.8030    4.1880    3.6880 C.2   198  SER198      0.2288
     87  O          8.9290    5.0480    3.8870 O.2   198  SER198     -0.2866
     88  CB        11.4300    5.6280    4.9760 C.3   198  SER198      0.2089
     89  OG        12.4830    5.5630    5.8950 O.3   198  SER198     -0.2183
     90  N          6.1110    5.1460    5.0190 N.3   201  TYR201     -0.1241
     91  CA         5.7210    6.5400    5.1640 C.3   201  TYR201      0.1605
     92  C          5.0500    7.0980    3.9040 C.2   201  TYR201      0.2264
     93  O          4.2210    8.0040    3.9820 O.2   201  TYR201     -0.2867
     94  CB         6.8900    7.4050    5.6080 C.3   201  TYR201      0.0534
     95  CG         7.3190    7.0860    7.0210 C.ar  201  TYR201     -0.0201
     96  CD1        6.6690    7.6310    8.1080 C.ar  201  TYR201     -0.0009
     97  CD2        8.3690    6.2200    7.2590 C.ar  201  TYR201     -0.0009
     98  CE1        7.0530    7.3310    9.4030 C.ar  201  TYR201      0.0417
     99  CE2        8.7660    5.9150    8.5520 C.ar  201  TYR201      0.0417
    100  CZ         8.1140    6.4780    9.6220 C.ar  201  TYR201      0.1957
    101  OH         8.5450    6.1700   10.8970 O.3   201  TYR201     -0.2866
    102  N         12.7060    2.4520   10.3270 N.3   313  PRO313     -0.2102
    103  CA        13.9880    2.9460   10.8440 C.3   313  PRO313      0.1504
    104  C         13.9360    3.6000   12.2150 C.2   313  PRO313      0.2575
    105  O         14.9480    3.5920   12.9140 O.2   313  PRO313     -0.2718
    106  CB        14.4030    3.9690    9.7760 C.3   313  PRO313      0.0282
    107  CG        13.0910    4.4300    9.2010 C.3   313  PRO313      0.0208
    108  CD        12.3190    3.1650    9.0910 C.3   313  PRO313      0.0893
    109  N         12.8220    4.2060   12.5840 N.am  314  ASP314     -0.1974
    110  CA        12.7100    4.9090   13.8650 C.3   314  ASP314      0.1708
    111  C         12.5430    3.9030   15.0060 C.2   314  ASP314      0.2293
    112  O         13.3340    3.8630   15.9680 O.2   314  ASP314     -0.2864
    113  CB        11.5740    5.9090   13.8550 C.3   314  ASP314      0.1436
    114  CG        11.7690    7.0760   12.9050 C.2   314  ASP314      0.3671
    115  OD1       12.8250    7.1950   12.2260 O.co2 314  ASP314     -0.2456
    116  OD2       10.8330    7.9040   12.8320 O.co2 314  ASP314     -0.2456
    117  N         20.0770    5.9100    6.6190 N.3   337  ASN337     -0.1240
    118  CA        19.5790    7.2450    6.9170 C.3   337  ASN337      0.1653
    119  C         19.4590    7.5770    8.3880 C.2   337  ASN337      0.2266
    120  O         19.2300    8.7220    8.7260 O.2   337  ASN337     -0.2867
    121  CB        18.4200    7.6950    6.0780 C.3   337  ASN337      0.1155
    122  CG        17.1360    7.1360    6.4910 C.2   337  ASN337      0.2627
    123  OD1       17.0140    6.5070    7.5330 O.2   337  ASN337     -0.2716
    124  ND2       16.1070    7.3770    5.6760 N.am  337  ASN337     -0.0877
    125  N         19.5620   11.9880   10.4200 N.3   341  LYS341     -0.1231
    126  CA        18.3990   12.3160   11.2270 C.3   341  LYS341      0.1693
    127  C         18.7800   13.2340   12.3870 C.2   341  LYS341      0.2591
    128  O         19.6450   14.1110   12.2130 O.2   341  LYS341     -0.2718
    129  CB        17.6270   11.0700   11.5310 C.3   341  LYS341      0.0285
    130  CG        16.8420   10.6320   10.2490 C.3   341  LYS341      0.0035
    131  CD        16.1910    9.3240   10.3780 C.3   341  LYS341      0.0206
    132  CE        15.3900    9.0210    9.1430 C.3   341  LYS341      0.1093
    133  NZ        14.7740    7.6760    9.0810 N.3   341  LYS341     -0.1314
    134  N         18.1370   13.1100   13.5380 N.am  342  GLU342     -0.1979
    135  CA        18.3250   14.0870   14.6280 C.3   342  GLU342      0.1602
    136  C         19.8020   14.2170   15.0170 C.2   342  GLU342      0.2287
    137  O         20.2410   15.2790   15.3990 O.2   342  GLU342     -0.2864
    138  CB        17.4420   13.7650   15.8210 C.3   342  GLU342      0.0415
    139  CG        15.9660   14.1290   15.6370 C.3   342  GLU342      0.1163
    140  CD        15.1030   13.1670   14.8150 C.2   342  GLU342      0.3649
    141  OE1       15.6470   12.3620   14.0340 O.co2 342  GLU342     -0.2457
    142  OE2       13.8510   13.2480   14.9780 O.co2 342  GLU342     -0.2457
@<TRIPOS>BOND
     1    77    78    1
     2    80    79    2
     3    79    78    1
     4    78    81    1
     5    59    58    2
     6    65    64    2
     7    71    70    2
     8    63    64    1
     9    63    62    1
    10    63    66    1
    11    70    69    1
    12    58    62   am
    13    58    57    1
    14    56    57    1
    15    64    68   am
    16    81    82    1
    17    81    83    1
    18    37    36    2
    19    66    67    1
    20    57    60    1
    21    68    69    1
    22    69    72    1
    23    60    61    1
    24    36    35    1
    25    84    85    1
    26    86    87    2
    27    86    85    1
    28    38    39    1
    29    38    35    1
    30    39    40    1
    31    35    34    1
    32    92    93    2
    33    92    91    1
    34    72    73    1
    35    85    88    1
    36    88    89    1
    37    90    91    1
    38    91    94    1
    39    40    41    1
    40    41    42    2
    41    73    74    1
    42    48    47    2
    43    94    95    1
    44    44    42    1
    45    42    43    1
    46   124   122   am
    47    26    24    1
    48    23    22    1
    49    23    24    2
    50    47    46    1
    51   121   122    1
    52   121   118    1
    53    22    21    1
    54    24    25    1
    55    21    20    1
    56   122   123    2
    57    75    74    2
    58   117   118    1
    59    74    76   am
    60    19    18    2
    61   118   119    1
    62    20    17    1
    63    95    97   ar
    64    95    96   ar
    65    46    45    1
    66    46    49    1
    67    97    99   ar
    68    17    18    1
    69    17    16    1
    70    96    98   ar
    71    49    50    1
    72    30    29    2
    73   119   120    2
    74    99   100   ar
    75    29    28    1
    76    28    27    1
    77    28    31    1
    78   133   132    1
    79   108   107    1
    80   108   102    1
    81   132   131    1
    82   107   106    1
    83    98   100   ar
    84    50    51    1
    85    55    53    1
    86    33    31    1
    87    31    32    1
    88   100   101    1
    89    13    12    2
    90   106   103    1
    91    52    53    2
    92    52    51    1
    93    53    54    1
    94   130   131    1
    95   130   129    1
    96   102   103    1
    97   125   126    1
    98    12    11    1
    99    14    15    1
   100    14    11    1
   101   103   104    1
   102    11    10    1
   103   126   129    1
   104   126   127    1
   105   128   127    2
   106   104   109   am
   107   104   105    2
   108   115   114   ar
   109   127   134   am
   110   109   110    1
   111    10     3   am
   112     4     3    2
   113   116   114   ar
   114   114   113    1
   115     3     2    1
   116     9     8    1
   117   134   135    1
   118     7     8    1
   119     7     6    1
   120   113   110    1
   121   110   111    1
   122   141   140   ar
   123     6     5    1
   124   135   136    1
   125   135   138    1
   126   140   142   ar
   127   140   139    1
   128     2     5    1
   129     2     1    1
   130   111   112    2
   131   136   137    2
   132   139   138    1
