@<TRIPOS>MOLECULE
tmp/3nvsA02.pdb
 126 116 0 0 0
SMALL
GASTEIGER

@<TRIPOS>ATOM
      1  N          3.1780   11.6810   15.4050 N.3    22  LYS22      -0.1245
      2  CA         3.8340   12.8460   14.8180 C.3    22  LYS22       0.1561
      3  C          3.6670   12.8870   13.2860 C.2    22  LYS22       0.2260
      4  O          3.3270   13.9220   12.7130 O.2    22  LYS22      -0.2867
      5  CB         5.3200   12.8550   15.1910 C.3    22  LYS22       0.0271
      6  CG         6.1440   13.9760   14.5530 C.3    22  LYS22       0.0035
      7  CD         7.1790   13.4810   13.5490 C.3    22  LYS22       0.0206
      8  CE         8.3920   12.8840   14.2740 C.3    22  LYS22       0.1093
      9  NZ         9.2490   12.0980   13.3320 N.3    22  LYS22      -0.1314
     10  N          7.6950   19.1220   17.3080 N.3    49  ASP49      -0.1239
     11  CA         7.5570   19.0650   15.8530 C.3    49  ASP49       0.1674
     12  C          6.2060   19.6020   15.4000 C.2    49  ASP49       0.2266
     13  O          6.1010   20.2060   14.3330 O.2    49  ASP49      -0.2867
     14  CB         7.8130   17.6520   15.3140 C.3    49  ASP49       0.1410
     15  CG         9.2900   17.2660   15.2580 C.2    49  ASP49       0.3668
     16  OD1       10.1470   18.1080   15.5890 O.co2  49  ASP49      -0.2456
     17  OD2        9.5570   16.1220   14.8140 O.co2  49  ASP49      -0.2456
     18  N         11.6700   17.5310   10.4260 N.3    96  GLY96      -0.1210
     19  CA        11.6520   17.2040    9.0130 C.3    96  GLY96       0.1956
     20  C         10.2600   17.1920    8.4190 C.2    96  GLY96       0.2612
     21  O         10.0550   17.6120    7.2770 O.2    96  GLY96      -0.2717
     22  N          9.2830   16.7450    9.2090 N.am   97  THR97      -0.1952
     23  CA         7.8920   16.6670    8.7330 C.3    97  THR97       0.1897
     24  C          7.1990   18.0310    8.6380 C.2    97  THR97       0.2313
     25  O          6.0690   18.0990    8.1570 O.2    97  THR97      -0.2863
     26  CB         7.0390   15.7130    9.5890 C.3    97  THR97       0.1794
     27  OG1        6.9270   16.2290   10.9220 O.3    97  THR97      -0.2208
     28  CG2        7.5750   14.2860    9.5620 C.3    97  THR97       0.0378
     29  N         10.3640   19.6370    5.2330 N.3   100  ARG100     -0.1245
     30  CA        10.2390   19.0650    3.8980 C.3   100  ARG100      0.1563
     31  C          8.8780   19.4000    3.2510 C.2   100  ARG100      0.2260
     32  O          8.8340   19.9640    2.1630 O.2   100  ARG100     -0.2867
     33  CB        10.6320   17.5760    3.8420 C.3   100  ARG100      0.0307
     34  CG        12.1660   17.3110    3.8460 C.3   100  ARG100      0.0489
     35  CD        12.8380   17.6100    5.1680 C.3   100  ARG100      0.2205
     36  NE        14.2390   17.1660    5.1980 N.pl3 100  ARG100     -0.0865
     37  CZ        14.6710   15.9950    5.6560 C.cat 100  ARG100      0.5346
     38  NH1       13.8350   15.0870    6.1380 N.pl3 100  ARG100      0.1354
     39  NH2       15.9760   15.7270    5.6360 N.pl3 100  ARG100      0.1354
     40  N         20.8960   18.7400    7.6990 N.3   124  ARG124     -0.1245
     41  CA        20.0630   17.6230    7.2160 C.3   124  ARG124      0.1563
     42  C         19.6820   17.9180    5.7660 C.2   124  ARG124      0.2260
     43  O         19.2420   19.0120    5.4380 O.2   124  ARG124     -0.2867
     44  CB        18.8570   17.4010    8.1200 C.3   124  ARG124      0.0307
     45  CG        19.2400   16.9160    9.4900 C.3   124  ARG124      0.0489
     46  CD        18.0540   16.6950   10.3780 C.3   124  ARG124      0.2205
     47  NE        17.2170   15.6230    9.8420 N.pl3 124  ARG124     -0.0865
     48  CZ        15.9340   15.4270   10.1290 C.cat 124  ARG124      0.5346
     49  NH1       15.3020   16.1780   11.0290 N.pl3 124  ARG124      0.1354
     50  NH2       15.2970   14.4370    9.5350 N.pl3 124  ARG124      0.1354
     51  N         10.7730   11.5740    2.6770 N.3   172  GLN172     -0.1245
     52  CA        10.0340   12.7990    2.9360 C.3   172  GLN172      0.1566
     53  C         10.0450   13.7270    1.7330 C.2   172  GLN172      0.2260
     54  O          9.1790   14.5970    1.6170 O.2   172  GLN172     -0.2867
     55  CB        10.5830   13.5470    4.1440 C.3   172  GLN172      0.0367
     56  CG        10.3480   12.8370    5.4230 C.3   172  GLN172      0.0905
     57  CD        10.7010   13.6750    6.6320 C.2   172  GLN172      0.2608
     58  OE1       11.0290   14.8500    6.5250 O.2   172  GLN172     -0.2717
     59  NE2       10.5850   13.0760    7.8140 N.am  172  GLN172     -0.0878
     60  N         12.8220    4.2060   12.5840 N.3   314  ASP314     -0.1239
     61  CA        12.7100    4.9090   13.8650 C.3   314  ASP314      0.1674
     62  C         12.5430    3.9030   15.0060 C.2   314  ASP314      0.2266
     63  O         13.3340    3.8630   15.9680 O.2   314  ASP314     -0.2867
     64  CB        11.5740    5.9090   13.8550 C.3   314  ASP314      0.1410
     65  CG        11.7690    7.0760   12.9050 C.2   314  ASP314      0.3668
     66  OD1       12.8250    7.1950   12.2260 O.co2 314  ASP314     -0.2456
     67  OD2       10.8330    7.9040   12.8320 O.co2 314  ASP314     -0.2456
     68  N         19.5620   11.9880   10.4200 N.3   341  LYS341     -0.1231
     69  CA        18.3990   12.3160   11.2270 C.3   341  LYS341      0.1693
     70  C         18.7800   13.2340   12.3870 C.2   341  LYS341      0.2591
     71  O         19.6450   14.1110   12.2130 O.2   341  LYS341     -0.2718
     72  CB        17.6270   11.0700   11.5310 C.3   341  LYS341      0.0285
     73  CG        16.8420   10.6320   10.2490 C.3   341  LYS341      0.0035
     74  CD        16.1910    9.3240   10.3780 C.3   341  LYS341      0.0206
     75  CE        15.3900    9.0210    9.1430 C.3   341  LYS341      0.1093
     76  NZ        14.7740    7.6760    9.0810 N.3   341  LYS341     -0.1314
     77  N         18.1370   13.1100   13.5380 N.am  342  GLU342     -0.1979
     78  CA        18.3250   14.0870   14.6280 C.3   342  GLU342      0.1602
     79  C         19.8020   14.2170   15.0170 C.2   342  GLU342      0.2287
     80  O         20.2410   15.2790   15.3990 O.2   342  GLU342     -0.2864
     81  CB        17.4420   13.7650   15.8210 C.3   342  GLU342      0.0415
     82  CG        15.9660   14.1290   15.6370 C.3   342  GLU342      0.1163
     83  CD        15.1030   13.1670   14.8150 C.2   342  GLU342      0.3649
     84  OE1       15.6470   12.3620   14.0340 O.co2 342  GLU342     -0.2457
     85  OE2       13.8510   13.2480   14.9780 O.co2 342  GLU342     -0.2457
     86  N         22.7910    8.6540   13.9820 N.3   345  ARG345     -0.1245
     87  CA        22.3650    7.6700   14.9530 C.3   345  ARG345      0.1563
     88  C         23.1920    6.4050   14.9230 C.2   345  ARG345      0.2260
     89  O         23.2530    5.6990   15.9250 O.2   345  ARG345     -0.2867
     90  CB        20.8770    7.3690   14.7850 C.3   345  ARG345      0.0307
     91  CG        19.9940    8.5390   15.1770 C.3   345  ARG345      0.0489
     92  CD        18.5840    8.3780   14.6580 C.3   345  ARG345      0.2205
     93  NE        17.6720    9.1830   15.4440 N.pl3 345  ARG345     -0.0865
     94  CZ        16.3610    9.2150   15.2710 C.cat 345  ARG345      0.5346
     95  NH1       15.7830    8.5930   14.2360 N.pl3 345  ARG345      0.1354
     96  NH2       15.6120    9.8640   16.1500 N.pl3 345  ARG345      0.1354
     97  N         15.5480   12.8480   20.8500 N.3   386  HIS386     -0.1226
     98  CA        14.5030   12.2170   21.6340 C.3   386  HIS386      0.1752
     99  C         14.6520   10.7170   21.7230 C.2   386  HIS386      0.2595
    100  O         14.4520   10.1490   22.8030 O.2   386  HIS386     -0.2718
    101  CB        13.1110   12.6010   21.0440 C.3   386  HIS386      0.0759
    102  CG        12.9100   12.2560   19.5920 C.ar  386  HIS386      0.0818
    103  ND1       11.7320   11.7050   19.1360 N.ar  386  HIS386     -0.2268
    104  CD2       13.6870   12.4760   18.5050 C.ar  386  HIS386      0.1154
    105  CE1       11.8290   11.5590   17.8310 C.ar  386  HIS386      0.1986
    106  NE2       12.9980   12.0130   17.4200 N.ar  386  HIS386     -0.2212
    107  N         14.9350   10.0450   20.6140 N.am  387  ARG387     -0.1980
    108  CA        14.9740    8.5900   20.6470 C.3   387  ARG387      0.1597
    109  C         16.1880    8.0300   21.3460 C.2   387  ARG387      0.2287
    110  O         16.1310    6.9220   21.8470 O.2   387  ARG387     -0.2864
    111  CB        14.7820    7.9580   19.2730 C.3   387  ARG387      0.0334
    112  CG        13.4800    8.3670   18.6490 C.3   387  ARG387      0.0492
    113  CD        13.0130    7.3740   17.5910 C.3   387  ARG387      0.2205
    114  NE        11.8770    7.9160   16.8530 N.pl3 387  ARG387     -0.0865
    115  CZ        10.6520    8.1090   17.3310 C.cat 387  ARG387      0.5346
    116  NH1       10.2400    7.5700   18.4690 N.pl3 387  ARG387      0.1354
    117  NH2        9.8220    8.8420   16.6130 N.pl3 387  ARG387      0.1354
    118  N         10.6250   16.3960   21.4640 N.3   412  LYS412     -0.1245
    119  CA        10.4460   16.4860   20.0220 C.3   412  LYS412      0.1561
    120  C          9.1790   15.7600   19.5630 C.2   412  LYS412      0.2260
    121  O          8.4580   16.2530   18.6910 O.2   412  LYS412     -0.2867
    122  CB        11.6800   15.9520   19.2680 C.3   412  LYS412      0.0271
    123  CG        11.6410   16.2500   17.7660 C.3   412  LYS412      0.0035
    124  CD        12.9840   16.0470   17.1230 C.3   412  LYS412      0.0206
    125  CE        13.0960   16.5260   15.6870 C.3   412  LYS412      0.1093
    126  NZ        12.3230   15.6860   14.7430 N.3   412  LYS412     -0.1314
@<TRIPOS>BOND
     1    54    53    2
     2    53    52    1
     3    32    31    2
     4    51    52    1
     5    52    55    1
     6    31    30    1
     7    33    34    1
     8    33    30    1
     9    34    35    1
    10    30    29    1
    11    55    56    1
    12    35    36    1
    13    36    37    2
    14    56    57    1
    15    43    42    2
    16    39    37    1
    17    37    38    1
    18    42    41    1
    19    58    57    2
    20    57    59   am
    21    41    40    1
    22    41    44    1
    23    21    20    2
    24    44    45    1
    25    25    24    2
    26    20    19    1
    27    20    22   am
    28    24    23    1
    29    23    22    1
    30    23    26    1
    31    19    18    1
    32    76    75    1
    33    75    74    1
    34    45    46    1
    35    50    48    1
    36    28    26    1
    37    26    27    1
    38    47    48    2
    39    47    46    1
    40    48    49    1
    41    73    74    1
    42    73    72    1
    43    68    69    1
    44    69    72    1
    45    69    70    1
    46    71    70    2
    47    66    65   ar
    48    70    77   am
    49    60    61    1
    50     4     3    2
    51    67    65   ar
    52    65    64    1
    53     3     2    1
    54     9     8    1
    55    77    78    1
    56     7     8    1
    57     7     6    1
    58    64    61    1
    59    61    62    1
    60    86    87    1
    61    84    83   ar
    62    95    94    1
    63    13    12    2
    64     6     5    1
    65    78    79    1
    66    78    81    1
    67    92    91    1
    68    92    93    1
    69   126   125    1
    70    90    87    1
    71    90    91    1
    72    17    15   ar
    73    83    85   ar
    74    83    82    1
    75     2     5    1
    76     2     1    1
    77    88    87    1
    78    88    89    2
    79    62    63    2
    80    79    80    2
    81    15    14    1
    82    15    16   ar
    83    94    93    2
    84    94    96    1
    85    14    11    1
    86    12    11    1
    87    82    81    1
    88   125   124    1
    89    11    10    1
    90   117   115    1
    91   114   115    2
    92   114   113    1
    93   124   123    1
    94   115   116    1
    95   106   105   ar
    96   106   104   ar
    97   113   112    1
    98   123   122    1
    99   105   103   ar
   100   104   102   ar
   101   112   111    1
   102   121   120    2
   103   103   102   ar
   104   122   119    1
   105   111   108    1
   106   120   119    1
   107   102   101    1
   108   119   118    1
   109   107   108    1
   110   107    99   am
   111   108   109    1
   112    97    98    1
   113   101    98    1
   114   109   110    2
   115    98    99    1
   116    99   100    2
