@<TRIPOS>MOLECULE
tmp/3nvsA00.pdb
 168 157 0 0 0
SMALL
GASTEIGER

@<TRIPOS>ATOM
      1  N          3.1780   11.6810   15.4050 N.3    22  LYS22      -0.1231
      2  CA         3.8340   12.8460   14.8180 C.3    22  LYS22       0.1693
      3  C          3.6670   12.8870   13.2860 C.2    22  LYS22       0.2592
      4  O          3.3270   13.9220   12.7130 O.2    22  LYS22      -0.2718
      5  CB         5.3200   12.8550   15.1910 C.3    22  LYS22       0.0285
      6  CG         6.1440   13.9760   14.5530 C.3    22  LYS22       0.0035
      7  CD         7.1790   13.4810   13.5490 C.3    22  LYS22       0.0206
      8  CE         8.3920   12.8840   14.2740 C.3    22  LYS22       0.1093
      9  NZ         9.2490   12.0980   13.3320 N.3    22  LYS22      -0.1314
     10  N          3.8950   11.7540   12.6440 N.am   23  SER23      -0.1952
     11  CA         3.7920   11.6580   11.2050 C.3    23  SER23       0.1924
     12  C          2.4170   12.0050   10.6820 C.2    23  SER23       0.2314
     13  O          2.2450   12.7380    9.7110 O.2    23  SER23      -0.2863
     14  CB         4.2060   10.2620   10.7430 C.3    23  SER23       0.2116
     15  OG         5.5980   10.0320   10.9610 O.3    23  SER23      -0.2180
     16  N          1.1260   15.8070    8.7390 N.3    27  ARG27      -0.1245
     17  CA         0.4650   15.7110    7.4350 C.3    27  ARG27       0.1563
     18  C         -0.9670   16.2830    7.5040 C.2    27  ARG27       0.2260
     19  O         -1.3770   17.0450    6.6350 O.2    27  ARG27      -0.2867
     20  CB         0.3780   14.2750    6.9660 C.3    27  ARG27       0.0307
     21  CG         1.6800   13.6840    6.4560 C.3    27  ARG27       0.0489
     22  CD         1.5550   12.1840    6.3190 C.3    27  ARG27       0.2205
     23  NE         2.6970   11.5240    5.7090 N.pl3  27  ARG27      -0.0865
     24  CZ         3.8590   11.3020    6.3260 C.cat  27  ARG27       0.5346
     25  NH1        4.0790   11.7710    7.5370 N.pl3  27  ARG27       0.1354
     26  NH2        4.8040   10.6470    5.6830 N.pl3  27  ARG27       0.1354
     27  N          9.2830   16.7450    9.2090 N.3    97  THR97      -0.1218
     28  CA         7.8920   16.6670    8.7330 C.3    97  THR97       0.1862
     29  C          7.1990   18.0310    8.6380 C.2    97  THR97       0.2287
     30  O          6.0690   18.0990    8.1570 O.2    97  THR97      -0.2866
     31  CB         7.0390   15.7130    9.5890 C.3    97  THR97       0.1770
     32  OG1        6.9270   16.2290   10.9220 O.3    97  THR97      -0.2211
     33  CG2        7.5750   14.2860    9.5620 C.3    97  THR97       0.0375
     34  N         10.3640   19.6370    5.2330 N.3   100  ARG100     -0.1245
     35  CA        10.2390   19.0650    3.8980 C.3   100  ARG100      0.1563
     36  C          8.8780   19.4000    3.2510 C.2   100  ARG100      0.2260
     37  O          8.8340   19.9640    2.1630 O.2   100  ARG100     -0.2867
     38  CB        10.6320   17.5760    3.8420 C.3   100  ARG100      0.0307
     39  CG        12.1660   17.3110    3.8460 C.3   100  ARG100      0.0489
     40  CD        12.8380   17.6100    5.1680 C.3   100  ARG100      0.2205
     41  NE        14.2390   17.1660    5.1980 N.pl3 100  ARG100     -0.0865
     42  CZ        14.6710   15.9950    5.6560 C.cat 100  ARG100      0.5346
     43  NH1       13.8350   15.0870    6.1380 N.pl3 100  ARG100      0.1354
     44  NH2       15.9760   15.7270    5.6360 N.pl3 100  ARG100      0.1354
     45  N         20.8960   18.7400    7.6990 N.3   124  ARG124     -0.1245
     46  CA        20.0630   17.6230    7.2160 C.3   124  ARG124      0.1563
     47  C         19.6820   17.9180    5.7660 C.2   124  ARG124      0.2260
     48  O         19.2420   19.0120    5.4380 O.2   124  ARG124     -0.2867
     49  CB        18.8570   17.4010    8.1200 C.3   124  ARG124      0.0307
     50  CG        19.2400   16.9160    9.4900 C.3   124  ARG124      0.0489
     51  CD        18.0540   16.6950   10.3780 C.3   124  ARG124      0.2205
     52  NE        17.2170   15.6230    9.8420 N.pl3 124  ARG124     -0.0865
     53  CZ        15.9340   15.4270   10.1290 C.cat 124  ARG124      0.5346
     54  NH1       15.3020   16.1780   11.0290 N.pl3 124  ARG124      0.1354
     55  NH2       15.2970   14.4370    9.5350 N.pl3 124  ARG124      0.1354
     56  N         17.5990    8.6850    0.1410 N.3   169  ILE169     -0.1231
     57  CA        18.0390    9.3020    1.4060 C.3   169  ILE169      0.1692
     58  C         16.8570    9.5610    2.3440 C.2   169  ILE169      0.2593
     59  O         16.9470    9.2980    3.5390 O.2   169  ILE169     -0.2718
     60  CB        18.8610   10.6040    1.1430 C.3   169  ILE169      0.0266
     61  CG1       20.2120   10.2510    0.4830 C.3   169  ILE169      0.0019
     62  CG2       19.0390   11.4160    2.4130 C.3   169  ILE169      0.0020
     63  CD1       21.1670    9.4790    1.3960 C.3   169  ILE169      0.0001
     64  N         15.7720   10.0980    1.8170 N.am  170  SER170     -0.1938
     65  CA        14.5640   10.2940    2.6260 C.3   170  SER170      0.2055
     66  C         13.3250   10.1130    1.7990 C.2   170  SER170      0.2644
     67  O         13.2360   10.6130    0.6810 O.2   170  SER170     -0.2714
     68  CB        14.5050   11.6990    3.2070 C.3   170  SER170      0.2130
     69  OG        13.3550   11.8640    4.0220 O.3   170  SER170     -0.2179
     70  N         12.3480    9.4150    2.3460 N.am  171  SER171     -0.1935
     71  CA        11.0300    9.3440    1.7320 C.3   171  SER171      0.2055
     72  C         10.3040   10.6790    1.8220 C.2   171  SER171      0.2642
     73  O          9.2960   10.8840    1.1340 O.2   171  SER171     -0.2714
     74  CB        10.1640    8.2640    2.4250 C.3   171  SER171      0.2130
     75  OG         9.7720    8.6250    3.7410 O.3   171  SER171     -0.2179
     76  N         10.7730   11.5740    2.6770 N.am  172  GLN172     -0.1976
     77  CA        10.0340   12.7990    2.9360 C.3   172  GLN172      0.1601
     78  C         10.0450   13.7270    1.7330 C.2   172  GLN172      0.2287
     79  O          9.1790   14.5970    1.6170 O.2   172  GLN172     -0.2864
     80  CB        10.5830   13.5470    4.1440 C.3   172  GLN172      0.0394
     81  CG        10.3480   12.8370    5.4230 C.3   172  GLN172      0.0908
     82  CD        10.7010   13.6750    6.6320 C.2   172  GLN172      0.2608
     83  OE1       11.0290   14.8500    6.5250 O.2   172  GLN172     -0.2717
     84  NE2       10.5850   13.0760    7.8140 N.am  172  GLN172     -0.0878
     85  N          7.1470   12.4590   -0.1830 N.3   175  THR175     -0.1218
     86  CA         5.9560   12.8680    0.5610 C.3   175  THR175      0.1862
     87  C          5.6190   14.3250    0.3300 C.2   175  THR175      0.2287
     88  O          4.4870   14.6970    0.0880 O.2   175  THR175     -0.2866
     89  CB         6.1020   12.5620    2.0570 C.3   175  THR175      0.1770
     90  OG1        5.8210   11.1730    2.2480 O.3   175  THR175     -0.2211
     91  CG2        5.1950   13.4210    2.9420 C.3   175  THR175      0.0375
     92  N         12.2510    3.8400    3.4920 N.3   198  SER198     -0.1217
     93  CA        11.1560    4.2340    4.4040 C.3   198  SER198      0.1889
     94  C          9.8030    4.1880    3.6880 C.2   198  SER198      0.2288
     95  O          8.9290    5.0480    3.8870 O.2   198  SER198     -0.2866
     96  CB        11.4300    5.6280    4.9760 C.3   198  SER198      0.2089
     97  OG        12.4830    5.5630    5.8950 O.3   198  SER198     -0.2183
     98  N          6.1110    5.1460    5.0190 N.3   201  TYR201     -0.1241
     99  CA         5.7210    6.5400    5.1640 C.3   201  TYR201      0.1605
    100  C          5.0500    7.0980    3.9040 C.2   201  TYR201      0.2264
    101  O          4.2210    8.0040    3.9820 O.2   201  TYR201     -0.2867
    102  CB         6.8900    7.4050    5.6080 C.3   201  TYR201      0.0534
    103  CG         7.3190    7.0860    7.0210 C.ar  201  TYR201     -0.0201
    104  CD1        6.6690    7.6310    8.1080 C.ar  201  TYR201     -0.0009
    105  CD2        8.3690    6.2200    7.2590 C.ar  201  TYR201     -0.0009
    106  CE1        7.0530    7.3310    9.4030 C.ar  201  TYR201      0.0417
    107  CE2        8.7660    5.9150    8.5520 C.ar  201  TYR201      0.0417
    108  CZ         8.1140    6.4780    9.6220 C.ar  201  TYR201      0.1957
    109  OH         8.5450    6.1700   10.8970 O.3   201  TYR201     -0.2866
    110  N         12.7060    2.4520   10.3270 N.3   313  PRO313     -0.2102
    111  CA        13.9880    2.9460   10.8440 C.3   313  PRO313      0.1504
    112  C         13.9360    3.6000   12.2150 C.2   313  PRO313      0.2575
    113  O         14.9480    3.5920   12.9140 O.2   313  PRO313     -0.2718
    114  CB        14.4030    3.9690    9.7760 C.3   313  PRO313      0.0282
    115  CG        13.0910    4.4300    9.2010 C.3   313  PRO313      0.0208
    116  CD        12.3190    3.1650    9.0910 C.3   313  PRO313      0.0893
    117  N         12.8220    4.2060   12.5840 N.am  314  ASP314     -0.1974
    118  CA        12.7100    4.9090   13.8650 C.3   314  ASP314      0.1708
    119  C         12.5430    3.9030   15.0060 C.2   314  ASP314      0.2293
    120  O         13.3340    3.8630   15.9680 O.2   314  ASP314     -0.2864
    121  CB        11.5740    5.9090   13.8550 C.3   314  ASP314      0.1436
    122  CG        11.7690    7.0760   12.9050 C.2   314  ASP314      0.3671
    123  OD1       12.8250    7.1950   12.2260 O.co2 314  ASP314     -0.2456
    124  OD2       10.8330    7.9040   12.8320 O.co2 314  ASP314     -0.2456
    125  N         20.0770    5.9100    6.6190 N.3   337  ASN337     -0.1240
    126  CA        19.5790    7.2450    6.9170 C.3   337  ASN337      0.1653
    127  C         19.4590    7.5770    8.3880 C.2   337  ASN337      0.2266
    128  O         19.2300    8.7220    8.7260 O.2   337  ASN337     -0.2867
    129  CB        18.4200    7.6950    6.0780 C.3   337  ASN337      0.1155
    130  CG        17.1360    7.1360    6.4910 C.2   337  ASN337      0.2627
    131  OD1       17.0140    6.5070    7.5330 O.2   337  ASN337     -0.2716
    132  ND2       16.1070    7.3770    5.6760 N.am  337  ASN337     -0.0877
    133  N         21.4850   10.7290    8.9410 N.3   340  VAL340     -0.1231
    134  CA        21.0430   12.0670    8.5160 C.3   340  VAL340      0.1692
    135  C         19.7880   12.5410    9.2380 C.2   340  VAL340      0.2592
    136  O         19.1080   13.4460    8.7770 O.2   340  VAL340     -0.2718
    137  CB        20.8740   12.1530    6.9790 C.3   340  VAL340      0.0266
    138  CG1       22.2400   11.9360    6.2790 C.3   340  VAL340      0.0020
    139  CG2       19.8340   11.1700    6.4260 C.3   340  VAL340      0.0020
    140  N         19.5620   11.9880   10.4200 N.am  341  LYS341     -0.1966
    141  CA        18.3990   12.3160   11.2270 C.3   341  LYS341      0.1728
    142  C         18.7800   13.2340   12.3870 C.2   341  LYS341      0.2616
    143  O         19.6450   14.1110   12.2130 O.2   341  LYS341     -0.2715
    144  CB        17.6270   11.0700   11.5310 C.3   341  LYS341      0.0311
    145  CG        16.8420   10.6320   10.2490 C.3   341  LYS341      0.0038
    146  CD        16.1910    9.3240   10.3780 C.3   341  LYS341      0.0206
    147  CE        15.3900    9.0210    9.1430 C.3   341  LYS341      0.1093
    148  NZ        14.7740    7.6760    9.0810 N.3   341  LYS341     -0.1314
    149  N         18.1370   13.1100   13.5380 N.am  342  GLU342     -0.1977
    150  CA        18.3250   14.0870   14.6280 C.3   342  GLU342      0.1602
    151  C         19.8020   14.2170   15.0170 C.2   342  GLU342      0.2287
    152  O         20.2410   15.2790   15.3990 O.2   342  GLU342     -0.2864
    153  CB        17.4420   13.7650   15.8210 C.3   342  GLU342      0.0415
    154  CG        15.9660   14.1290   15.6370 C.3   342  GLU342      0.1163
    155  CD        15.1030   13.1670   14.8150 C.2   342  GLU342      0.3649
    156  OE1       15.6470   12.3620   14.0340 O.co2 342  GLU342     -0.2457
    157  OE2       13.8510   13.2480   14.9780 O.co2 342  GLU342     -0.2457
    158  N         14.9350   10.0450   20.6140 N.3   387  ARG387     -0.1245
    159  CA        14.9740    8.5900   20.6470 C.3   387  ARG387      0.1563
    160  C         16.1880    8.0300   21.3460 C.2   387  ARG387      0.2260
    161  O         16.1310    6.9220   21.8470 O.2   387  ARG387     -0.2867
    162  CB        14.7820    7.9580   19.2730 C.3   387  ARG387      0.0307
    163  CG        13.4800    8.3670   18.6490 C.3   387  ARG387      0.0489
    164  CD        13.0130    7.3740   17.5910 C.3   387  ARG387      0.2205
    165  NE        11.8770    7.9160   16.8530 N.pl3 387  ARG387     -0.0865
    166  CZ        10.6520    8.1090   17.3310 C.cat 387  ARG387      0.5346
    167  NH1       10.2400    7.5700   18.4690 N.pl3 387  ARG387      0.1354
    168  NH2        9.8220    8.8420   16.6130 N.pl3 387  ARG387      0.1354
@<TRIPOS>BOND
     1    85    86    1
     2    88    87    2
     3    56    57    1
     4    87    86    1
     5    61    60    1
     6    61    63    1
     7    86    89    1
     8    67    66    2
     9    73    72    2
    10    60    57    1
    11    60    62    1
    12    57    58    1
    13    79    78    2
    14    71    72    1
    15    71    70    1
    16    71    74    1
    17    78    77    1
    18    66    70   am
    19    66    65    1
    20    64    58   am
    21    64    65    1
    22    72    76   am
    23    89    90    1
    24    89    91    1
    25    37    36    2
    26    58    59    2
    27    74    75    1
    28    65    68    1
    29    76    77    1
    30    77    80    1
    31    68    69    1
    32    36    35    1
    33    92    93    1
    34    94    95    2
    35    94    93    1
    36    38    39    1
    37    38    35    1
    38    39    40    1
    39    35    34    1
    40   100   101    2
    41   100    99    1
    42    80    81    1
    43    93    96    1
    44    96    97    1
    45    98    99    1
    46    99   102    1
    47    40    41    1
    48    41    42    2
    49    81    82    1
    50    48    47    2
    51   102   103    1
    52    44    42    1
    53    42    43    1
    54   132   130   am
    55    26    24    1
    56    23    22    1
    57    23    24    2
    58    47    46    1
    59   129   130    1
    60   129   126    1
    61   138   137    1
    62    22    21    1
    63    24    25    1
    64   139   137    1
    65    21    20    1
    66   130   131    2
    67    83    82    2
    68   125   126    1
    69    82    84   am
    70    19    18    2
    71   126   127    1
    72    20    17    1
    73   137   134    1
    74   103   105   ar
    75   103   104   ar
    76    46    45    1
    77    46    49    1
    78   105   107   ar
    79    17    18    1
    80    17    16    1
    81   104   106   ar
    82    49    50    1
    83    30    29    2
    84   127   128    2
    85   134   133    1
    86   134   135    1
    87   107   108   ar
    88    29    28    1
    89    28    27    1
    90    28    31    1
    91   136   135    2
    92   148   147    1
    93   116   115    1
    94   116   110    1
    95   147   146    1
    96   115   114    1
    97   135   140   am
    98   106   108   ar
    99    50    51    1
   100    55    53    1
   101    33    31    1
   102    31    32    1
   103   108   109    1
   104    13    12    2
   105   114   111    1
   106    52    53    2
   107    52    51    1
   108    53    54    1
   109   145   146    1
   110   145   144    1
   111   110   111    1
   112   140   141    1
   113    12    11    1
   114    14    15    1
   115    14    11    1
   116   111   112    1
   117    11    10    1
   118   141   144    1
   119   141   142    1
   120   143   142    2
   121   112   117   am
   122   112   113    2
   123   123   122   ar
   124   142   149   am
   125   117   118    1
   126    10     3   am
   127     4     3    2
   128   124   122   ar
   129   122   121    1
   130     3     2    1
   131     9     8    1
   132   149   150    1
   133     7     8    1
   134     7     6    1
   135   121   118    1
   136   118   119    1
   137   156   155   ar
   138     6     5    1
   139   150   151    1
   140   150   153    1
   141   155   157   ar
   142   155   154    1
   143     2     5    1
   144     2     1    1
   145   119   120    2
   146   151   152    2
   147   154   153    1
   148   168   166    1
   149   165   166    2
   150   165   164    1
   151   166   167    1
   152   164   163    1
   153   163   162    1
   154   162   159    1
   155   158   159    1
   156   159   160    1
   157   160   161    2
