@<TRIPOS>MOLECULE
tmp/3nvwF01.pdb
 102 94 0 0 0
SMALL
GASTEIGER

@<TRIPOS>ATOM
      1  N         83.6260    4.1570   24.5940 N.3   232  GLU232     -0.1245
      2  CA        83.4670    4.6490   23.2220 C.3   232  GLU232      0.1567
      3  C         82.9970    3.5420   22.2830 C.2   232  GLU232      0.2260
      4  O         82.2070    3.7910   21.3700 O.2   232  GLU232     -0.2867
      5  CB        84.7740    5.2610   22.6890 C.3   232  GLU232      0.0388
      6  CG        84.6490    5.7520   21.2310 C.3   232  GLU232      0.1160
      7  CD        85.8420    6.5650   20.7200 C.2   232  GLU232      0.3649
      8  OE1       85.8680    6.8500   19.5030 O.co2 232  GLU232     -0.2457
      9  OE2       86.7430    6.9310   21.4990 O.co2 232  GLU232     -0.2457
     10  N         89.6560    0.5860   17.7120 N.3   303  LEU303     -0.1245
     11  CA        90.1270    1.9400   17.3870 C.3   303  LEU303      0.1561
     12  C         91.6490    2.0440   17.1990 C.2   303  LEU303      0.2260
     13  O         92.2060    3.1490   17.1010 O.2   303  LEU303     -0.2867
     14  CB        89.6720    2.9040   18.4810 C.3   303  LEU303      0.0270
     15  CG        88.1620    3.1510   18.4960 C.3   303  LEU303      0.0019
     16  CD1       87.7140    3.6030   19.8970 C.3   303  LEU303      0.0001
     17  CD2       87.7660    4.1320   17.4070 C.3   303  LEU303      0.0001
     18  N         93.2550    4.4390   14.2910 N.3   306  SER306     -0.1217
     19  CA        93.1490    5.8750   14.5510 C.3   306  SER306      0.1889
     20  C         93.9830    6.3220   15.7490 C.2   306  SER306      0.2288
     21  O         94.4820    7.4440   15.7720 O.2   306  SER306     -0.2866
     22  CB        91.6860    6.2940   14.7080 C.3   306  SER306      0.2089
     23  OG        91.0120    6.1020   13.4750 O.3   306  SER306     -0.2183
     24  N         96.8860    9.1690   15.6360 N.3   310  ARG310     -0.1245
     25  CA        97.0550   10.2420   16.6090 C.3   310  ARG310      0.1563
     26  C         98.4430   10.2110   17.2590 C.2   310  ARG310      0.2260
     27  O         99.0520   11.2650   17.4610 O.2   310  ARG310     -0.2867
     28  CB        95.9500   10.2350   17.6660 C.3   310  ARG310      0.0307
     29  CG        96.0530   11.4330   18.6090 C.3   310  ARG310      0.0489
     30  CD        94.8460   11.5640   19.5120 C.3   310  ARG310      0.2205
     31  NE        93.6730   12.0340   18.7790 N.pl3 310  ARG310     -0.0865
     32  CZ        93.3700   13.3110   18.5560 C.cat 310  ARG310      0.5346
     33  NH1       94.1380   14.2990   19.0070 N.pl3 310  ARG310      0.1354
     34  NH2       92.2760   13.6010   17.8710 N.pl3 310  ARG310      0.1354
     35  N         90.1490    3.1190   22.9670 N.3   340  ALA340     -0.1245
     36  CA        90.3590    4.5170   23.3240 C.3   340  ALA340      0.1562
     37  C         90.5640    4.6580   24.8160 C.2   340  ALA340      0.2260
     38  O         89.8770    4.0160   25.6150 O.2   340  ALA340     -0.2867
     39  CB        89.1560    5.3680   22.9020 C.3   340  ALA340      0.0290
     40  N         94.2560    8.9540   23.6010 N.3   344  PHE344     -0.1241
     41  CA        94.0190    8.2630   22.3230 C.3   344  PHE344      0.1605
     42  C         95.2990    8.1440   21.4770 C.2   344  PHE344      0.2264
     43  O         95.3290    8.5160   20.3010 O.2   344  PHE344     -0.2867
     44  CB        92.9120    9.0130   21.5580 C.3   344  PHE344      0.0534
     45  CG        92.2360    8.2160   20.4720 C.ar  344  PHE344     -0.0203
     46  CD1       91.2100    7.3270   20.7710 C.ar  344  PHE344     -0.0042
     47  CD2       92.5920    8.4070   19.1340 C.ar  344  PHE344     -0.0042
     48  CE1       90.5530    6.6280   19.7500 C.ar  344  PHE344     -0.0003
     49  CE2       91.9450    7.7090   18.1090 C.ar  344  PHE344     -0.0003
     50  CZ        90.9190    6.8110   18.4250 C.ar  344  PHE344     -0.0000
     51  N         88.2830   14.7660   15.6820 N.3   439  PHE439     -0.1227
     52  CA        88.4260   13.3490   15.3570 C.3   439  PHE439      0.1736
     53  C         89.3670   13.2160   14.1660 C.2   439  PHE439      0.2596
     54  O         89.2400   13.9610   13.1840 O.2   439  PHE439     -0.2718
     55  CB        87.0810   12.7340   14.9560 C.3   439  PHE439      0.0547
     56  CG        86.1210   12.5270   16.1070 C.ar  439  PHE439     -0.0202
     57  CD1       85.1550   13.4850   16.3930 C.ar  439  PHE439     -0.0042
     58  CD2       86.1360   11.3470   16.8540 C.ar  439  PHE439     -0.0042
     59  CE1       84.2530   13.2920   17.4370 C.ar  439  PHE439     -0.0003
     60  CE2       85.2310   11.1430   17.9000 C.ar  439  PHE439     -0.0003
     61  CZ        84.2860   12.1080   18.1820 C.ar  439  PHE439     -0.0000
     62  N         90.2790   12.2460   14.2410 N.am  440  THR440     -0.1939
     63  CA        91.1830   11.9490   13.1240 C.3   440  THR440      0.2028
     64  C         90.4460   11.5420   11.8490 C.2   440  THR440      0.2642
     65  O         90.9620   11.7260   10.7430 O.2   440  THR440     -0.2714
     66  CB        92.2410   10.8590   13.4800 C.3   440  THR440      0.1808
     67  OG1       91.6000    9.5950   13.6710 O.3   440  THR440     -0.2208
     68  CG2       93.0310   11.2390   14.7430 C.3   440  THR440      0.0379
     69  N         89.2470   10.9790   12.0150 N.am  441  VAL441     -0.1977
     70  CA        88.3870   10.6200   10.8970 C.3   441  VAL441      0.1596
     71  C         87.4900   11.8250   10.5970 C.2   441  VAL441      0.2287
     72  O         86.6540   12.1860   11.4190 O.2   441  VAL441     -0.2864
     73  CB        87.5310    9.3720   11.2300 C.3   441  VAL441      0.0276
     74  CG1       86.5300    9.0980   10.1160 C.3   441  VAL441      0.0022
     75  CG2       88.4250    8.1590   11.4380 C.3   441  VAL441      0.0022
     76  N         83.5180   11.9980   11.4560 N.3   444  LEU444     -0.1245
     77  CA        83.0310   11.9960   12.8330 C.3   444  LEU444      0.1561
     78  C         82.8130   13.4120   13.3730 C.2   444  LEU444      0.2260
     79  O         82.1640   13.6000   14.4050 O.2   444  LEU444     -0.2867
     80  CB        83.9700   11.1850   13.7320 C.3   444  LEU444      0.0270
     81  CG        83.9480    9.6700   13.4790 C.3   444  LEU444      0.0019
     82  CD1       85.0240    8.9660   14.2940 C.3   444  LEU444      0.0001
     83  CD2       82.5850    9.0440   13.7740 C.3   444  LEU444      0.0001
     84  N         83.6020   11.8960   22.3630 N.3   508  ALA508     -0.1231
     85  CA        85.0250   11.5840   22.3970 C.3   508  ALA508      0.1694
     86  C         85.8530   12.6570   21.6870 C.2   508  ALA508      0.2591
     87  O         85.3140   13.6470   21.1770 O.2   508  ALA508     -0.2718
     88  CB        85.2730   10.1970   21.7760 C.3   508  ALA508      0.0304
     89  N         87.1710   12.4600   21.6800 N.am  509  ALA509     -0.1980
     90  CA        88.1150   13.3740   21.0370 C.3   509  ALA509      0.1597
     91  C         88.1480   14.7740   21.6470 C.2   509  ALA509      0.2287
     92  O         88.7030   15.6880   21.0430 O.2   509  ALA509     -0.2864
     93  CB        87.8800   13.4480   19.5140 C.3   509  ALA509      0.0319
     94  N         91.0580   15.7740   27.1200 N.3   691  GLU691     -0.1245
     95  CA        92.2770   14.9490   27.0090 C.3   691  GLU691      0.1567
     96  C         93.6210   15.7090   27.0460 C.2   691  GLU691      0.2260
     97  O         94.6110   15.1580   27.5570 O.2   691  GLU691     -0.2867
     98  CB        92.2560   14.1290   25.7080 C.3   691  GLU691      0.0388
     99  CG        91.0650   13.1780   25.5270 C.3   691  GLU691      0.1160
    100  CD        90.9520   12.7430   24.0760 C.2   691  GLU691      0.3649
    101  OE1       90.5820   13.5930   23.2280 O.co2 691  GLU691     -0.2457
    102  OE2       91.2590   11.5600   23.7880 O.co2 691  GLU691     -0.2457
@<TRIPOS>BOND
     1    74    73    1
     2    71    70    1
     3    71    72    2
     4    65    64    2
     5    70    73    1
     6    70    69    1
     7    73    75    1
     8    76    77    1
     9    64    69   am
    10    64    63    1
    11    77    78    1
    12    77    80    1
    13    63    66    1
    14    63    62    1
    15    54    53    2
    16    78    79    2
    17    23    22    1
    18    81    80    1
    19    81    83    1
    20    81    82    1
    21    66    67    1
    22    66    68    1
    23    53    62   am
    24    53    52    1
    25    18    19    1
    26    19    22    1
    27    19    20    1
    28    55    52    1
    29    55    56    1
    30    52    51    1
    31    24    25    1
    32    20    21    2
    33    56    57   ar
    34    56    58   ar
    35    57    59   ar
    36    25    26    1
    37    25    28    1
    38    58    60   ar
    39    13    12    2
    40    12    11    1
    41    26    27    2
    42    11    10    1
    43    11    14    1
    44    17    15    1
    45    59    61   ar
    46    28    29    1
    47    34    32    1
    48    60    61   ar
    49    49    50   ar
    50    49    47   ar
    51    50    48   ar
    52    14    15    1
    53    15    16    1
    54    32    31    2
    55    32    33    1
    56    29    30    1
    57    31    30    1
    58    47    45   ar
    59     8     7   ar
    60    93    90    1
    61    48    46   ar
    62    43    42    2
    63    45    46   ar
    64    45    44    1
    65     7     6    1
    66     7     9   ar
    67    90    91    1
    68    90    89    1
    69    92    91    2
    70    87    86    2
    71     6     5    1
    72     4     3    2
    73    42    41    1
    74    44    41    1
    75    89    86   am
    76    86    85    1
    77    88    85    1
    78     3     2    1
    79    41    40    1
    80    84    85    1
    81     5     2    1
    82    39    36    1
    83    35    36    1
    84     2     1    1
    85   101   100   ar
    86    36    37    1
    87   102   100   ar
    88   100    99    1
    89    37    38    2
    90    99    98    1
    91    98    95    1
    92    95    96    1
    93    95    94    1
    94    96    97    2
