@<TRIPOS>MOLECULE
tmp/3nvyC01.pdb
 158 150 0 0 0
SMALL
GASTEIGER

@<TRIPOS>ATOM
      1  N         40.4360   22.2050   31.1710 N.3    78  LEU78      -0.1231
      2  CA        40.7680   23.0530   30.0320 C.3    78  LEU78       0.1693
      3  C         40.5760   24.5310   30.3080 C.2    78  LEU78       0.2592
      4  O         41.3670   25.3630   29.8430 O.2    78  LEU78      -0.2718
      5  CB        39.9360   22.6300   28.8120 C.3    78  LEU78       0.0284
      6  CG        40.2980   23.1140   27.4140 C.3    78  LEU78       0.0019
      7  CD1       41.7870   22.8470   27.0470 C.3    78  LEU78       0.0001
      8  CD2       39.3590   22.4660   26.3990 C.3    78  LEU78       0.0001
      9  N         39.5320   24.8820   31.0610 N.am   79  PHE79      -0.1976
     10  CA        39.2930   26.2920   31.4510 C.3    79  PHE79       0.1639
     11  C         39.5340   26.5140   32.9310 C.2    79  PHE79       0.2290
     12  O         39.0240   27.4410   33.5430 O.2    79  PHE79      -0.2864
     13  CB        37.8720   26.7490   31.0330 C.3    79  PHE79       0.0560
     14  CG        37.7150   26.8000   29.5380 C.ar   79  PHE79      -0.0200
     15  CD1       37.3370   25.6890   28.8330 C.ar   79  PHE79      -0.0042
     16  CD2       38.0510   27.9390   28.8440 C.ar   79  PHE79      -0.0042
     17  CE1       37.2490   25.7090   27.4390 C.ar   79  PHE79      -0.0003
     18  CE2       37.9590   27.9760   27.4300 C.ar   79  PHE79      -0.0003
     19  CZ        37.5740   26.8560   26.7410 C.ar   79  PHE79      -0.0000
     20  N         45.7600   13.1950   23.8390 N.3   198  ASN198     -0.1240
     21  CA        46.2920   14.5350   24.0650 C.3   198  ASN198      0.1653
     22  C         47.4620   14.4820   25.0340 C.2   198  ASN198      0.2266
     23  O         47.3390   14.8520   26.2230 O.2   198  ASN198     -0.2867
     24  CB        45.1390   15.4320   24.5700 C.3   198  ASN198      0.1155
     25  CG        45.4240   16.9240   24.4490 C.2   198  ASN198      0.2627
     26  OD1       46.5530   17.3630   24.1650 O.2   198  ASN198     -0.2716
     27  ND2       44.3810   17.7180   24.6860 N.am  198  ASN198     -0.0877
     28  N         48.4000   18.1050   26.6210 N.3   201  LYS201     -0.1245
     29  CA        47.6460   18.5450   27.8150 C.3   201  LYS201      0.1561
     30  C         47.9280   17.6970   28.9940 C.2   201  LYS201      0.2260
     31  O         47.9660   18.2060   30.0900 O.2   201  LYS201     -0.2867
     32  CB        46.1130   18.5730   27.6430 C.3   201  LYS201      0.0271
     33  CG        45.5290   19.8770   27.1060 C.3   201  LYS201      0.0035
     34  CD        46.0240   21.1800   27.7610 C.3   201  LYS201      0.0206
     35  CE        45.6160   22.3480   26.8670 C.3   201  LYS201      0.1093
     36  NZ        45.7120   23.6800   27.5140 N.3   201  LYS201     -0.1314
     37  N         40.5030   12.7370   24.6850 N.3   232  GLU232     -0.1231
     38  CA        41.0510   14.0040   24.2230 C.3   232  GLU232      0.1699
     39  C         41.3450   14.9140   25.4160 C.2   232  GLU232      0.2592
     40  O         42.3580   15.6150   25.4030 O.2   232  GLU232     -0.2718
     41  CB        40.1360   14.6870   23.1900 C.3   232  GLU232      0.0402
     42  CG        40.3890   16.1740   23.0770 C.3   232  GLU232      0.1161
     43  CD        39.7570   16.8250   21.8920 C.2   232  GLU232      0.3649
     44  OE1       40.1390   17.9790   21.6320 O.co2 232  GLU232     -0.2457
     45  OE2       38.8620   16.2290   21.2360 O.co2 232  GLU232     -0.2457
     46  N         40.5010   14.9190   26.4420 N.am  233  THR233     -0.1953
     47  CA        40.8240   15.7010   27.6480 C.3   233  THR233      0.1897
     48  C         40.5660   14.9800   28.9550 C.2   233  THR233      0.2313
     49  O         41.1790   15.2910   29.9870 O.2   233  THR233     -0.2863
     50  CB        40.0520   17.0690   27.7490 C.3   233  THR233      0.1794
     51  OG1       38.6310   16.8490   27.7540 O.3   233  THR233     -0.2208
     52  CG2       40.4550   18.0490   26.6160 C.3   233  THR233      0.0378
     53  N         35.3250   20.9240   26.7080 N.3   303  LEU303     -0.1245
     54  CA        35.1650   21.3180   25.2720 C.3   303  LEU303      0.1561
     55  C         33.7920   21.8000   24.8450 C.2   303  LEU303      0.2260
     56  O         33.5390   21.9680   23.6310 O.2   303  LEU303     -0.2867
     57  CB        35.6190   20.1730   24.3490 C.3   303  LEU303      0.0270
     58  CG        37.1120   19.8340   24.5420 C.3   303  LEU303      0.0019
     59  CD1       37.4270   18.3950   24.1960 C.3   303  LEU303      0.0001
     60  CD2       37.9920   20.7970   23.8500 C.3   303  LEU303      0.0001
     61  N         33.2460   24.7130   22.2260 N.3   306  SER306     -0.1217
     62  CA        33.6390   24.3890   20.8590 C.3   306  SER306      0.1889
     63  C         32.6970   23.4000   20.1930 C.2   306  SER306      0.2288
     64  O         32.5360   23.3930   18.9540 O.2   306  SER306     -0.2866
     65  CB        35.0410   23.7960   20.8920 C.3   306  SER306      0.2089
     66  OG        35.9270   24.8770   20.9180 O.3   306  SER306     -0.2183
     67  N         30.5810   24.0560   16.7740 N.3   310  ARG310     -0.1245
     68  CA        30.4930   23.0830   15.6890 C.3   310  ARG310      0.1563
     69  C         29.0240   22.7160   15.4220 C.2   310  ARG310      0.2260
     70  O         28.6010   22.6400   14.2520 O.2   310  ARG310     -0.2867
     71  CB        31.3170   21.8160   15.9740 C.3   310  ARG310      0.0307
     72  CG        31.2110   20.8260   14.8190 C.3   310  ARG310      0.0489
     73  CD        32.3070   19.7080   14.8400 C.3   310  ARG310      0.2205
     74  NE        33.6480   20.2340   14.6080 N.pl3 310  ARG310     -0.0865
     75  CZ        34.2430   20.2940   13.4050 C.cat 310  ARG310      0.5346
     76  NH1       33.6050   19.8740   12.3330 N.pl3 310  ARG310      0.1354
     77  NH2       35.4730   20.8070   13.2900 N.pl3 310  ARG310      0.1354
     78  N         31.4280   15.6380   17.5380 N.3   344  PHE344     -0.1241
     79  CA        31.8080   16.8780   18.2580 C.3   344  PHE344      0.1605
     80  C         30.7390   17.9440   18.0880 C.2   344  PHE344      0.2264
     81  O         31.0390   19.1010   17.7180 O.2   344  PHE344     -0.2867
     82  CB        33.2310   17.3460   17.8090 C.3   344  PHE344      0.0534
     83  CG        33.9290   18.3460   18.7320 C.ar  344  PHE344     -0.0203
     84  CD1       34.7480   17.9100   19.7650 C.ar  344  PHE344     -0.0042
     85  CD2       33.8460   19.7140   18.4950 C.ar  344  PHE344     -0.0042
     86  CE1       35.4410   18.7950   20.5820 C.ar  344  PHE344     -0.0003
     87  CE2       34.5510   20.6350   19.2920 C.ar  344  PHE344     -0.0003
     88  CZ        35.3650   20.1620   20.3560 C.ar  344  PHE344     -0.0000
     89  N         39.9150   22.2400   12.9380 N.3   439  PHE439     -0.1227
     90  CA        39.5050   22.6200   14.2850 C.3   439  PHE439      0.1736
     91  C         38.8980   24.0050   14.1460 C.2   439  PHE439      0.2596
     92  O         39.4230   24.8600   13.4070 O.2   439  PHE439     -0.2718
     93  CB        40.6850   22.7120   15.2580 C.3   439  PHE439      0.0547
     94  CG        41.2990   21.3950   15.6490 C.ar  439  PHE439     -0.0202
     95  CD1       42.4440   20.9250   14.9990 C.ar  439  PHE439     -0.0042
     96  CD2       40.8270   20.6980   16.7510 C.ar  439  PHE439     -0.0042
     97  CE1       43.0650   19.7210   15.3900 C.ar  439  PHE439     -0.0003
     98  CE2       41.4300   19.5100   17.1340 C.ar  439  PHE439     -0.0003
     99  CZ        42.5660   19.0230   16.4410 C.ar  439  PHE439     -0.0000
    100  N         37.7950   24.2440   14.8410 N.am  440  THR440     -0.1939
    101  CA        37.1670   25.5650   14.7110 C.3   440  THR440      0.2028
    102  C         37.8490   26.5840   15.5650 C.2   440  THR440      0.2642
    103  O         37.5370   27.7670   15.4600 O.2   440  THR440     -0.2714
    104  CB        35.6730   25.5530   15.0360 C.3   440  THR440      0.1808
    105  OG1       35.4800   24.9650   16.3460 O.3   440  THR440     -0.2208
    106  CG2       34.9480   24.7670   13.9560 C.3   440  THR440      0.0379
    107  N         38.7620   26.1170   16.4230 N.am  441  VAL441     -0.1977
    108  CA        39.7590   26.9730   17.0780 C.3   441  VAL441      0.1596
    109  C         40.9980   27.0230   16.1430 C.2   441  VAL441      0.2287
    110  O         41.6710   25.9910   15.9230 O.2   441  VAL441     -0.2864
    111  CB        40.0610   26.4460   18.4840 C.3   441  VAL441      0.0276
    112  CG1       41.1820   27.1960   19.1250 C.3   441  VAL441      0.0022
    113  CG2       38.7920   26.5370   19.3920 C.3   441  VAL441      0.0022
    114  N         44.0980   28.0480   16.2160 N.3   443  PHE443     -0.1227
    115  CA        45.4600   27.6840   16.6420 C.3   443  PHE443      0.1736
    116  C         45.7470   26.1780   16.7600 C.2   443  PHE443      0.2595
    117  O         46.9000   25.7810   16.8450 O.2   443  PHE443     -0.2718
    118  CB        45.9140   28.4230   17.9100 C.3   443  PHE443      0.0547
    119  CG        45.2820   27.9340   19.1780 C.ar  443  PHE443     -0.0202
    120  CD1       45.6300   26.6980   19.7270 C.ar  443  PHE443     -0.0042
    121  CD2       44.3740   28.7280   19.8460 C.ar  443  PHE443     -0.0042
    122  CE1       45.0640   26.2550   20.9250 C.ar  443  PHE443     -0.0003
    123  CE2       43.7870   28.2840   21.0390 C.ar  443  PHE443     -0.0003
    124  CZ        44.1360   27.0410   21.5640 C.ar  443  PHE443     -0.0000
    125  N         44.7190   25.3380   16.7610 N.am  444  LEU444     -0.1980
    126  CA        44.9640   23.8930   16.8720 C.3   444  LEU444      0.1596
    127  C         45.3230   23.2940   15.5240 C.2   444  LEU444      0.2287
    128  O         45.7310   22.1310   15.4200 O.2   444  LEU444     -0.2864
    129  CB        43.7530   23.1950   17.4680 C.3   444  LEU444      0.0297
    130  CG        43.5800   23.4510   18.9830 C.3   444  LEU444      0.0022
    131  CD1       42.3620   22.7550   19.4400 C.3   444  LEU444      0.0001
    132  CD2       44.7860   22.9130   19.6680 C.3   444  LEU444      0.0001
    133  N         45.5380   17.9200   20.1630 N.3   506  PRO506     -0.2116
    134  CA        45.0230   16.5600   20.3580 C.3   506  PRO506      0.1372
    135  C         44.7150   15.8810   19.0120 C.2   506  PRO506      0.2244
    136  O         44.3940   16.5570   18.0160 O.2   506  PRO506     -0.2868
    137  CB        43.7290   16.8070   21.1130 C.3   506  PRO506      0.0268
    138  CG        43.3390   18.2600   20.7720 C.3   506  PRO506      0.0207
    139  CD        44.6290   18.9570   20.7110 C.3   506  PRO506      0.0892
    140  N         42.3320   14.6940   16.9250 N.3   508  ALA508     -0.1231
    141  CA        40.9090   15.0070   16.9530 C.3   508  ALA508      0.1694
    142  C         40.5060   15.7940   15.6780 C.2   508  ALA508      0.2591
    143  O         41.3560   16.0670   14.8300 O.2   508  ALA508     -0.2718
    144  CB        40.5830   15.7950   18.2470 C.3   508  ALA508      0.0304
    145  N         39.2070   16.0840   15.5290 N.am  509  ALA509     -0.1980
    146  CA        38.6490   16.8780   14.4390 C.3   509  ALA509      0.1597
    147  C         38.7580   16.2010   13.0820 C.2   509  ALA509      0.2287
    148  O         38.6010   16.8500   12.0200 O.2   509  ALA509     -0.2864
    149  CB        39.2580   18.3240   14.4120 C.3   509  ALA509      0.0319
    150  N         35.1040   11.1940   11.4600 N.3   691  GLU691     -0.1245
    151  CA        33.8560   11.6200   12.0710 C.3   691  GLU691      0.1567
    152  C         32.7190   11.8370   11.0940 C.2   691  GLU691      0.2260
    153  O         31.5640   11.5970   11.4700 O.2   691  GLU691     -0.2867
    154  CB        34.0500   12.9380   12.7870 C.3   691  GLU691      0.0388
    155  CG        35.0150   12.9270   13.9590 C.3   691  GLU691      0.1160
    156  CD        35.2310   14.3410   14.4940 C.2   691  GLU691      0.3649
    157  OE1       35.9270   15.1430   13.8220 O.co2 691  GLU691     -0.2457
    158  OE2       34.7210   14.6400   15.6110 O.co2 691  GLU691     -0.2457
@<TRIPOS>BOND
     1   152   153    2
     2   152   151    1
     3   150   151    1
     4   148   147    2
     5   151   154    1
     6    76    75    1
     7   154   155    1
     8    89    90    1
     9   147   146    1
    10    77    75    1
    11    75    74    2
    12    92    91    2
    13   157   156   ar
    14   106   104    1
    15   155   156    1
    16    91    90    1
    17    91   100   am
    18    70    69    2
    19    90    93    1
    20   149   146    1
    21   146   145    1
    22   156   158   ar
    23    74    73    1
    24   101   100    1
    25   101   104    1
    26   101   102    1
    27    72    73    1
    28    72    71    1
    29   143   142    2
    30    95    97   ar
    31    95    94   ar
    32   104   105    1
    33    93    94    1
    34    97    99   ar
    35   128   127    2
    36    69    68    1
    37   103   102    2
    38   127   126    1
    39   145   142   am
    40   102   107   am
    41    94    96   ar
    42   142   141    1
    43    68    71    1
    44    68    67    1
    45   110   109    2
    46   109   108    1
    47   114   115    1
    48   107   108    1
    49    99    98   ar
    50   115   116    1
    51   115   118    1
    52    96    98   ar
    53   116   125   am
    54   116   117    2
    55   125   126    1
    56   126   129    1
    57   140   141    1
    58   141   144    1
    59   108   111    1
    60   129   130    1
    61    78    79    1
    62    81    80    2
    63    82    79    1
    64    82    83    1
    65   118   119    1
    66   136   135    2
    67    80    79    1
    68   111   112    1
    69   111   113    1
    70    85    83   ar
    71    85    87   ar
    72    83    84   ar
    73    64    63    2
    74   130   131    1
    75   130   132    1
    76   135   134    1
    77   119   120   ar
    78   119   121   ar
    79    87    88   ar
    80   120   122   ar
    81    84    86   ar
    82   121   123   ar
    83   133   134    1
    84   133   139    1
    85    63    62    1
    86    88    86   ar
    87   134   137    1
    88   139   138    1
    89   138   137    1
    90    62    65    1
    91    62    61    1
    92    65    66    1
    93   122   124   ar
    94   123   124   ar
    95    45    43   ar
    96    44    43   ar
    97    43    42    1
    98    42    41    1
    99    41    38    1
   100    56    55    2
   101    20    21    1
   102    60    58    1
   103    21    24    1
   104    21    22    1
   105    26    25    2
   106    59    58    1
   107    38    37    1
   108    38    39    1
   109    57    58    1
   110    57    54    1
   111    25    24    1
   112    25    27   am
   113    55    54    1
   114    22    23    2
   115    54    53    1
   116    40    39    2
   117    39    46   am
   118     8     6    1
   119    46    47    1
   120    52    50    1
   121    28    29    1
   122    19    18   ar
   123    19    17   ar
   124    35    36    1
   125    35    34    1
   126     7     6    1
   127    33    32    1
   128    33    34    1
   129     6     5    1
   130    18    16   ar
   131    17    15   ar
   132    32    29    1
   133    47    50    1
   134    47    48    1
   135    50    51    1
   136    29    30    1
   137     5     2    1
   138    15    14   ar
   139    16    14   ar
   140    48    49    2
   141    30    31    2
   142    14    13    1
   143     4     3    2
   144     2     3    1
   145     2     1    1
   146     3     9   am
   147    13    10    1
   148     9    10    1
   149    10    11    1
   150    11    12    2
