@<TRIPOS>MOLECULE
tmp/3nvzC01.pdb
 104 97 0 0 0
SMALL
GASTEIGER

@<TRIPOS>ATOM
      1  N         40.6700   12.8890   24.6710 N.3   232  GLU232     -0.1245
      2  CA        41.2190   14.1460   24.1840 C.3   232  GLU232      0.1567
      3  C         41.5800   15.0500   25.3620 C.2   232  GLU232      0.2260
      4  O         42.5750   15.7790   25.3090 O.2   232  GLU232     -0.2867
      5  CB        40.2250   14.8630   23.2530 C.3   232  GLU232      0.0388
      6  CG        40.7390   16.2220   22.7630 C.3   232  GLU232      0.1160
      7  CD        39.8800   16.9030   21.7000 C.2   232  GLU232      0.3649
      8  OE1       40.0940   18.1210   21.4770 O.co2 232  GLU232     -0.2457
      9  OE2       39.0110   16.2460   21.0710 O.co2 232  GLU232     -0.2457
     10  N         35.4620   21.0390   26.7320 N.3   303  LEU303     -0.1245
     11  CA        35.3430   21.4140   25.2960 C.3   303  LEU303      0.1561
     12  C         33.9170   21.8480   24.8770 C.2   303  LEU303      0.2260
     13  O         33.6090   21.9650   23.6690 O.2   303  LEU303     -0.2867
     14  CB        35.8790   20.2760   24.4170 C.3   303  LEU303      0.0270
     15  CG        37.3860   20.0370   24.5930 C.3   303  LEU303      0.0019
     16  CD1       37.7960   18.6190   24.2490 C.3   303  LEU303      0.0001
     17  CD2       38.1700   21.0560   23.7530 C.3   303  LEU303      0.0001
     18  N         33.4200   24.8680   22.2360 N.3   306  SER306     -0.1217
     19  CA        33.7610   24.5060   20.8420 C.3   306  SER306      0.1889
     20  C         32.8030   23.4920   20.2350 C.2   306  SER306      0.2288
     21  O         32.5400   23.5080   19.0320 O.2   306  SER306     -0.2866
     22  CB        35.1970   23.9980   20.7590 C.3   306  SER306      0.2089
     23  OG        36.0820   25.0780   21.0140 O.3   306  SER306     -0.2183
     24  N         30.6670   24.0870   16.7660 N.3   310  ARG310     -0.1245
     25  CA        30.5210   23.0970   15.6800 C.3   310  ARG310      0.1563
     26  C         29.0470   22.7550   15.4020 C.2   310  ARG310      0.2260
     27  O         28.6280   22.6410   14.2350 O.2   310  ARG310     -0.2867
     28  CB        31.3160   21.8150   15.9490 C.3   310  ARG310      0.0307
     29  CG        31.2690   20.8520   14.7690 C.3   310  ARG310      0.0489
     30  CD        32.3300   19.7500   14.8520 C.3   310  ARG310      0.2205
     31  NE        33.6710   20.2660   14.5780 N.pl3 310  ARG310     -0.0865
     32  CZ        34.2060   20.3420   13.3570 C.cat 310  ARG310      0.5346
     33  NH1       33.5350   19.9140   12.2850 N.pl3 310  ARG310      0.1354
     34  NH2       35.4290   20.8350   13.2230 N.pl3 310  ARG310      0.1354
     35  N         31.6450   15.6670   17.5410 N.3   344  PHE344     -0.1241
     36  CA        31.9440   16.9070   18.2750 C.3   344  PHE344      0.1605
     37  C         30.8550   18.0030   18.1140 C.2   344  PHE344      0.2264
     38  O         31.1540   19.1340   17.7170 O.2   344  PHE344     -0.2867
     39  CB        33.3170   17.4180   17.8050 C.3   344  PHE344      0.0534
     40  CG        34.0040   18.3740   18.7510 C.ar  344  PHE344     -0.0203
     41  CD1       34.7730   17.8980   19.8220 C.ar  344  PHE344     -0.0042
     42  CD2       33.9610   19.7460   18.5170 C.ar  344  PHE344     -0.0042
     43  CE1       35.4670   18.7870   20.6650 C.ar  344  PHE344     -0.0003
     44  CE2       34.6640   20.6550   19.3490 C.ar  344  PHE344     -0.0003
     45  CZ        35.4070   20.1660   20.4350 C.ar  344  PHE344     -0.0000
     46  N         40.0120   22.1070   13.1570 N.3   439  PHE439     -0.1227
     47  CA        39.6490   22.5940   14.4930 C.3   439  PHE439      0.1736
     48  C         39.0110   23.9830   14.3460 C.2   439  PHE439      0.2596
     49  O         39.5490   24.8500   13.6350 O.2   439  PHE439     -0.2718
     50  CB        40.8770   22.7570   15.3840 C.3   439  PHE439      0.0547
     51  CG        41.5180   21.4760   15.8210 C.ar  439  PHE439     -0.0202
     52  CD1       42.6890   21.0240   15.1940 C.ar  439  PHE439     -0.0042
     53  CD2       41.0180   20.7640   16.9130 C.ar  439  PHE439     -0.0042
     54  CE1       43.3130   19.8480   15.6120 C.ar  439  PHE439     -0.0003
     55  CE2       41.6560   19.5900   17.3610 C.ar  439  PHE439     -0.0003
     56  CZ        42.8040   19.1360   16.7040 C.ar  439  PHE439     -0.0000
     57  N         37.8880   24.2060   15.0280 N.am  440  THR440     -0.1939
     58  CA        37.2620   25.5290   15.0120 C.3   440  THR440      0.2028
     59  C         38.0660   26.5740   15.8020 C.2   440  THR440      0.2642
     60  O         37.7900   27.7650   15.7070 O.2   440  THR440     -0.2714
     61  CB        35.8130   25.4960   15.5140 C.3   440  THR440      0.1808
     62  OG1       35.7910   24.9270   16.8220 O.3   440  THR440     -0.2208
     63  CG2       34.9290   24.6570   14.5820 C.3   440  THR440      0.0379
     64  N         39.0610   26.1160   16.5680 N.am  441  VAL441     -0.1977
     65  CA        40.0590   27.0050   17.1720 C.3   441  VAL441      0.1596
     66  C         41.2850   27.0690   16.2450 C.2   441  VAL441      0.2287
     67  O         41.9820   26.0630   16.0870 O.2   441  VAL441     -0.2864
     68  CB        40.4270   26.5370   18.5960 C.3   441  VAL441      0.0276
     69  CG1       41.6340   27.2930   19.1240 C.3   441  VAL441      0.0022
     70  CG2       39.2200   26.7400   19.5410 C.3   441  VAL441      0.0022
     71  N         45.0050   25.4180   16.8480 N.3   444  LEU444     -0.1245
     72  CA        45.2320   23.9750   16.9620 C.3   444  LEU444      0.1561
     73  C         45.5360   23.3300   15.6080 C.2   444  LEU444      0.2260
     74  O         45.9210   22.1540   15.5500 O.2   444  LEU444     -0.2867
     75  CB        44.0290   23.2990   17.5950 C.3   444  LEU444      0.0270
     76  CG        43.7120   23.6590   19.0520 C.3   444  LEU444      0.0019
     77  CD1       42.4560   22.9390   19.4150 C.3   444  LEU444      0.0001
     78  CD2       44.8570   23.1830   19.9490 C.3   444  LEU444      0.0001
     79  N         45.6950   17.9350   20.2420 N.3   506  PRO506     -0.2116
     80  CA        45.1450   16.5930   20.4630 C.3   506  PRO506      0.1372
     81  C         44.9360   15.8920   19.1210 C.2   506  PRO506      0.2244
     82  O         44.6950   16.5690   18.1120 O.2   506  PRO506     -0.2868
     83  CB        43.7710   16.8670   21.0950 C.3   506  PRO506      0.0268
     84  CG        43.4560   18.2720   20.8020 C.3   506  PRO506      0.0207
     85  CD        44.7730   18.9910   20.7160 C.3   506  PRO506      0.0892
     86  N         42.6670   14.7530   16.9470 N.3   508  ALA508     -0.1231
     87  CA        41.2300   15.0180   16.9380 C.3   508  ALA508      0.1694
     88  C         40.8170   15.7670   15.6660 C.2   508  ALA508      0.2591
     89  O         41.6540   16.0710   14.8280 O.2   508  ALA508     -0.2718
     90  CB        40.8640   15.8300   18.1590 C.3   508  ALA508      0.0304
     91  N         39.5160   16.0300   15.5520 N.am  509  ALA509     -0.1980
     92  CA        38.9240   16.8210   14.4710 C.3   509  ALA509      0.1597
     93  C         39.0250   16.1410   13.1080 C.2   509  ALA509      0.2287
     94  O         38.8140   16.7950   12.0810 O.2   509  ALA509     -0.2864
     95  CB        39.5240   18.2370   14.4240 C.3   509  ALA509      0.0319
     96  N         35.3420   11.2330   11.4810 N.3   691  GLU691     -0.1245
     97  CA        34.0680   11.6720   12.0700 C.3   691  GLU691      0.1567
     98  C         32.9090   11.8590   11.0700 C.2   691  GLU691      0.2260
     99  O         31.7660   11.5850   11.3980 O.2   691  GLU691     -0.2867
    100  CB        34.2630   13.0040   12.7900 C.3   691  GLU691      0.0388
    101  CG        35.1460   12.9760   14.0440 C.3   691  GLU691      0.1160
    102  CD        35.4370   14.3820   14.5350 C.2   691  GLU691      0.3649
    103  OE1       36.1440   15.1240   13.8040 O.co2 691  GLU691     -0.2457
    104  OE2       34.9420   14.7600   15.6260 O.co2 691  GLU691     -0.2457
@<TRIPOS>BOND
     1    98    99    2
     2    98    97    1
     3    96    97    1
     4    97   100    1
     5    94    93    2
     6    33    32    1
     7   100   101    1
     8    93    92    1
     9    46    47    1
    10    34    32    1
    11    32    31    2
    12    49    48    2
    13   103   102   ar
    14   101   102    1
    15    27    26    2
    16    48    47    1
    17    48    57   am
    18    95    92    1
    19    92    91    1
    20    47    50    1
    21   102   104   ar
    22    31    30    1
    23    63    61    1
    24    29    30    1
    25    29    28    1
    26    89    88    2
    27    58    57    1
    28    58    61    1
    29    58    59    1
    30    52    54   ar
    31    52    51   ar
    32    50    51    1
    33    26    25    1
    34    61    62    1
    35    74    73    2
    36    91    88   am
    37    73    72    1
    38    54    56   ar
    39    88    87    1
    40    25    28    1
    41    25    24    1
    42    60    59    2
    43    59    64   am
    44    51    53   ar
    45    67    66    2
    46    66    65    1
    47    64    65    1
    48    56    55   ar
    49    71    72    1
    50    53    55   ar
    51    87    86    1
    52    87    90    1
    53    72    75    1
    54    65    68    1
    55    35    36    1
    56    75    76    1
    57    38    37    2
    58    39    36    1
    59    39    40    1
    60    82    81    2
    61    37    36    1
    62    42    40   ar
    63    42    44   ar
    64    68    69    1
    65    68    70    1
    66    40    41   ar
    67    21    20    2
    68    76    77    1
    69    76    78    1
    70    81    80    1
    71    44    45   ar
    72    41    43   ar
    73    20    19    1
    74    79    80    1
    75    79    85    1
    76    45    43   ar
    77    80    83    1
    78    85    84    1
    79    22    19    1
    80    22    23    1
    81    84    83    1
    82    19    18    1
    83     9     7   ar
    84     8     7   ar
    85     7     6    1
    86     6     5    1
    87     5     2    1
    88    13    12    2
    89    17    15    1
    90     2     1    1
    91     2     3    1
    92    16    15    1
    93    14    15    1
    94    14    11    1
    95    12    11    1
    96    11    10    1
    97     4     3    2
