@<TRIPOS>MOLECULE
tmp/3nw2B02.pdb
 135 131 0 0 0
SMALL
GASTEIGER

@<TRIPOS>ATOM
      1  N        132.7230  111.6810   94.5950 N.3   111  CYS111     -0.1235
      2  CA       131.4390  112.3090   94.9450 C.3   111  CYS111      0.1677
      3  C        131.5190  113.1230   96.2340 C.2   111  CYS111      0.2270
      4  O        131.8060  112.5770   97.2990 O.2   111  CYS111     -0.2867
      5  CB       130.3360  111.2560   95.0950 C.3   111  CYS111      0.0956
      6  SG       128.7480  111.9090   95.6590 S.3   111  CYS111     -0.0801
      7  N        126.2380  109.5670   77.9990 N.3   173  SER173     -0.1202
      8  CA       127.1350  109.8650   79.1110 C.3   173  SER173      0.2020
      9  C        126.2140  109.9970   80.3190 C.2   173  SER173      0.2618
     10  O        126.4220  109.3950   81.3900 O.2   173  SER173     -0.2717
     11  CB       127.8410  111.2090   78.8940 C.3   173  SER173      0.2103
     12  OG       128.5720  111.2370   77.6810 O.3   173  SER173     -0.2182
     13  N        125.1800  110.8050   80.1260 N.am  174  GLN174     -0.1979
     14  CA       124.2060  111.0360   81.1690 C.3   174  GLN174      0.1601
     15  C        122.7910  110.7140   80.7060 C.2   174  GLN174      0.2287
     16  O        122.5400  110.4770   79.5210 O.2   174  GLN174     -0.2864
     17  CB       124.2270  112.4860   81.5800 C.3   174  GLN174      0.0394
     18  CG       125.5680  113.0780   81.8820 C.3   174  GLN174      0.0908
     19  CD       125.3680  114.5110   82.3060 C.2   174  GLN174      0.2608
     20  OE1      125.5060  115.4350   81.5050 O.2   174  GLN174     -0.2717
     21  NE2      124.9820  114.7110   83.5680 N.am  174  GLN174     -0.0878
     22  N        120.8330  115.3340   78.9000 N.3   177  ARG177     -0.1245
     23  CA       121.9190  116.2300   78.4940 C.3   177  ARG177      0.1563
     24  C        121.6390  116.8580   77.1240 C.2   177  ARG177      0.2260
     25  O        121.2760  116.1500   76.1910 O.2   177  ARG177     -0.2867
     26  CB       123.2210  115.4180   78.4550 C.3   177  ARG177      0.0307
     27  CG       124.4380  116.1180   77.9070 C.3   177  ARG177      0.0489
     28  CD       124.9780  117.1600   78.8540 C.3   177  ARG177      0.2205
     29  NE       126.3470  117.5170   78.4920 N.pl3 177  ARG177     -0.0865
     30  CZ       127.3830  116.6780   78.5340 C.cat 177  ARG177      0.5346
     31  NH1      127.2100  115.4130   78.9280 N.pl3 177  ARG177      0.1354
     32  NH2      128.5920  117.1040   78.1740 N.pl3 177  ARG177      0.1354
     33  N        118.8410  121.6440   82.9330 N.3   258  TYR258     -0.1241
     34  CA       118.0480  120.5940   83.5700 C.3   258  TYR258      0.1605
     35  C        118.2300  120.4850   85.0890 C.2   258  TYR258      0.2264
     36  O        119.2530  120.8830   85.6590 O.2   258  TYR258     -0.2867
     37  CB       118.3220  119.2170   82.9460 C.3   258  TYR258      0.0534
     38  CG       119.7650  118.9030   82.6380 C.ar  258  TYR258     -0.0201
     39  CD1      120.4140  119.4980   81.5540 C.ar  258  TYR258     -0.0009
     40  CD2      120.4790  117.9630   83.3920 C.ar  258  TYR258     -0.0009
     41  CE1      121.7340  119.1610   81.2230 C.ar  258  TYR258      0.0417
     42  CE2      121.7960  117.6230   83.0710 C.ar  258  TYR258      0.0417
     43  CZ       122.4160  118.2210   81.9900 C.ar  258  TYR258      0.1957
     44  OH       123.7130  117.8810   81.6730 O.3   258  TYR258     -0.2866
     45  N        120.8350  115.6350   87.4140 N.3   261  PRO261     -0.2116
     46  CA       122.1790  115.1990   87.0640 C.3   261  PRO261      0.1372
     47  C        122.1680  113.6870   87.2770 C.2   261  PRO261      0.2244
     48  O        122.0720  113.2060   88.4100 O.2   261  PRO261     -0.2868
     49  CB       123.0480  115.9370   88.0800 C.3   261  PRO261      0.0268
     50  CG       122.1990  115.9150   89.3130 C.3   261  PRO261      0.0207
     51  CD       120.7790  116.1260   88.8100 C.3   261  PRO261      0.0892
     52  N        124.1160  110.0290   86.0110 N.3   263  VAL263     -0.1245
     53  CA       125.2170  109.3610   85.3210 C.3   263  VAL263      0.1561
     54  C        124.7480  108.0860   84.6450 C.2   263  VAL263      0.2260
     55  O        124.3410  107.1270   85.3100 O.2   263  VAL263     -0.2867
     56  CB       126.3310  109.0160   86.3010 C.3   263  VAL263      0.0252
     57  CG1      127.5740  108.5740   85.5440 C.3   263  VAL263      0.0019
     58  CG2      126.6040  110.2100   87.1720 C.3   263  VAL263      0.0019
     59  N        122.5010  106.2950   87.6780 N.3   280  PHE280     -0.1227
     60  CA       122.1870  106.8070   88.9950 C.3   280  PHE280      0.1736
     61  C        122.1990  108.3250   88.9760 C.2   280  PHE280      0.2595
     62  O        122.8560  108.9580   88.1410 O.2   280  PHE280     -0.2718
     63  CB       123.1750  106.2470   90.0620 C.3   280  PHE280      0.0547
     64  CG       124.6540  106.3780   89.7020 C.ar  280  PHE280     -0.0202
     65  CD1      125.3070  107.5960   89.7950 C.ar  280  PHE280     -0.0042
     66  CD2      125.3800  105.2710   89.2760 C.ar  280  PHE280     -0.0042
     67  CE1      126.6580  107.7130   89.4700 C.ar  280  PHE280     -0.0003
     68  CE2      126.7360  105.3770   88.9470 C.ar  280  PHE280     -0.0003
     69  CZ       127.3710  106.6030   89.0460 C.ar  280  PHE280     -0.0000
     70  N        121.4400  108.9070   89.8910 N.am  281  ASN281     -0.1960
     71  CA       121.3710  110.3470   89.9960 C.3   281  ASN281      0.1819
     72  C        121.4090  110.7920   91.4560 C.2   281  ASN281      0.2622
     73  O        121.3920  109.9920   92.3910 O.2   281  ASN281     -0.2715
     74  CB       120.0880  110.8620   89.3630 C.3   281  ASN281      0.1195
     75  CG       118.8510  110.5030   90.1870 C.2   281  ASN281      0.2630
     76  OD1      118.6440  109.3410   90.5380 O.2   281  ASN281     -0.2716
     77  ND2      118.0190  111.5060   90.4890 N.am  281  ASN281     -0.0877
     78  N        121.4550  112.1010   91.6130 N.am  282  GLY282     -0.1940
     79  CA       121.4680  112.7480   92.8950 C.3   282  GLY282      0.2014
     80  C        121.1520  114.1690   92.4820 C.2   282  GLY282      0.2639
     81  O        120.6220  114.3880   91.3940 O.2   282  GLY282     -0.2714
     82  N        121.4730  115.1490   93.3130 N.am  283  TRP283     -0.1959
     83  CA       121.1710  116.4980   92.9140 C.3   283  TRP283      0.1771
     84  C        122.4080  117.3070   92.6050 C.2   283  TRP283      0.2619
     85  O        123.5180  116.8540   92.8060 O.2   283  TRP283     -0.2715
     86  CB       120.2990  117.1540   93.9660 C.3   283  TRP283      0.0590
     87  CG       120.8290  117.0850   95.3300 C.ar  283  TRP283      0.0006
     88  CD1      121.8190  117.8380   95.8520 C.ar  283  TRP283      0.0946
     89  CD2      120.3520  116.2540   96.3810 C.ar  283  TRP283      0.0152
     90  NE1      121.9880  117.5380   97.1800 N.ar  283  TRP283     -0.2442
     91  CE2      121.0960  116.5660   97.5290 C.ar  283  TRP283      0.0810
     92  CE3      119.3620  115.2710   96.4660 C.ar  283  TRP283      0.0012
     93  CZ2      120.8880  115.9390   98.7530 C.ar  283  TRP283      0.0191
     94  CZ3      119.1530  114.6380   97.6950 C.ar  283  TRP283      0.0001
     95  CH2      119.9160  114.9810   98.8180 C.ar  283  TRP283      0.0015
     96  N        122.2030  118.5130   92.1040 N.am  284  TYR284     -0.1974
     97  CA       123.2890  119.3710   91.6680 C.3   284  TYR284      0.1639
     98  C        124.0120  120.1910   92.6960 C.2   284  TYR284      0.2290
     99  O        123.5370  120.3870   93.7990 O.2   284  TYR284     -0.2864
    100  CB       122.7600  120.3380   90.6110 C.3   284  TYR284      0.0560
    101  CG       122.9790  119.8980   89.1860 C.ar  284  TYR284     -0.0198
    102  CD1      124.2520  119.8160   88.6600 C.ar  284  TYR284     -0.0009
    103  CD2      121.9080  119.6020   88.3600 C.ar  284  TYR284     -0.0009
    104  CE1      124.4670  119.4480   87.3320 C.ar  284  TYR284      0.0417
    105  CE2      122.1090  119.2320   87.0260 C.ar  284  TYR284      0.0417
    106  CZ       123.3930  119.1560   86.5210 C.ar  284  TYR284      0.1957
    107  OH       123.5950  118.7840   85.2120 O.3   284  TYR284     -0.2866
    108  N        128.5880  123.3670   89.5960 N.3   288  GLU288     -0.1245
    109  CA       128.6230  122.4610   88.4580 C.3   288  GLU288      0.1567
    110  C        128.0150  123.1450   87.2510 C.2   288  GLU288      0.2260
    111  O        128.6450  123.2670   86.2030 O.2   288  GLU288     -0.2867
    112  CB       127.8310  121.1940   88.7370 C.3   288  GLU288      0.0388
    113  CG       128.4140  120.2610   89.7520 C.3   288  GLU288      0.1160
    114  CD       127.6570  118.9650   89.7910 C.2   288  GLU288      0.3649
    115  OE1      127.7690  118.1860   88.8270 O.co2 288  GLU288     -0.2457
    116  OE2      126.9360  118.7400   90.7780 O.co2 288  GLU288     -0.2457
    117  N        129.5740  123.9320   83.3300 N.3   293  ASP293     -0.1239
    118  CA       128.6610  123.9380   82.1920 C.3   293  ASP293      0.1674
    119  C        128.4480  125.2540   81.4270 C.2   293  ASP293      0.2266
    120  O        128.4370  125.2600   80.2010 O.2   293  ASP293     -0.2867
    121  CB       127.2900  123.4110   82.6390 C.3   293  ASP293      0.1410
    122  CG       127.3840  122.0830   83.3670 C.2   293  ASP293      0.3668
    123  OD1      127.8320  121.0910   82.7650 O.co2 293  ASP293     -0.2456
    124  OD2      126.9930  122.0380   84.5470 O.co2 293  ASP293     -0.2456
    125  N        131.9810  124.2210   76.6010 N.3   299  ARG299     -0.1245
    126  CA       130.5480  124.0790   76.8550 C.3   299  ARG299      0.1563
    127  C        129.8020  125.2690   76.2370 C.2   299  ARG299      0.2260
    128  O        129.8150  125.4520   75.0160 O.2   299  ARG299     -0.2867
    129  CB       130.2700  124.0210   78.3620 C.3   299  ARG299      0.0307
    130  CG       131.1060  123.0230   79.1180 C.3   299  ARG299      0.0489
    131  CD       130.9940  121.6360   78.5230 C.3   299  ARG299      0.2205
    132  NE       129.7070  120.9980   78.7840 N.pl3 299  ARG299     -0.0865
    133  CZ       129.3330  120.5340   79.9700 C.cat 299  ARG299      0.5346
    134  NH1      130.1470  120.6410   81.0150 N.pl3 299  ARG299      0.1354
    135  NH2      128.1530  119.9440   80.1150 N.pl3 299  ARG299      0.1354
@<TRIPOS>BOND
     1   128   127    2
     2    25    24    2
     3   127   126    1
     4   125   126    1
     5   126   129    1
     6    24    23    1
     7    12    11    1
     8    27    26    1
     9    27    28    1
    10     7     8    1
    11    32    30    1
    12   129   130    1
    13    26    23    1
    14    29    30    2
    15    29    28    1
    16    23    22    1
    17   131   132    1
    18   131   130    1
    19    30    31    1
    20   132   133    2
    21    11     8    1
    22     8     9    1
    23    16    15    2
    24   133   135    1
    25   133   134    1
    26    13     9   am
    27    13    14    1
    28   120   119    2
    29     9    10    2
    30    15    14    1
    31    14    17    1
    32    41    39   ar
    33    41    43   ar
    34   119   118    1
    35    20    19    2
    36    39    38   ar
    37    17    18    1
    38    44    43    1
    39    18    19    1
    40    43    42   ar
    41   118   121    1
    42   118   117    1
    43    19    21   am
    44    38    37    1
    45    38    40   ar
    46   121   122    1
    47   123   122   ar
    48    33    34    1
    49    37    34    1
    50    42    40   ar
    51   122   124   ar
    52    34    35    1
    53    54    55    2
    54    54    53    1
    55    35    36    2
    56   107   106    1
    57    53    52    1
    58    53    56    1
    59    57    56    1
    60   111   110    2
    61    56    58    1
    62   106   105   ar
    63   106   104   ar
    64   105   103   ar
    65    46    47    1
    66    46    45    1
    67    46    49    1
    68   110   109    1
    69    47    48    2
    70   104   102   ar
    71    45    51    1
    72    59    60    1
    73    49    50    1
    74    62    61    2
    75   103   101   ar
    76   109   112    1
    77   109   108    1
    78   102   101   ar
    79   112   113    1
    80    51    50    1
    81   115   114   ar
    82    68    69   ar
    83    68    66   ar
    84    61    60    1
    85    61    70   am
    86    60    63    1
    87    69    67   ar
    88   101   100    1
    89    66    64   ar
    90    74    71    1
    91    74    75    1
    92    67    65   ar
    93    64    65   ar
    94    64    63    1
    95   113   114    1
    96   114   116   ar
    97    70    71    1
    98    71    72    1
    99    75    77   am
   100    75    76    2
   101   100    97    1
   102    81    80    2
   103    72    78   am
   104    72    73    2
   105    78    79    1
   106    97    96    1
   107    97    98    1
   108    96    84   am
   109    80    79    1
   110    80    82   am
   111    84    85    2
   112    84    83    1
   113    98    99    2
   114    83    82    1
   115    83    86    1
   116    86    87    1
   117     1     2    1
   118     2     5    1
   119     2     3    1
   120     5     6    1
   121    87    88   ar
   122    87    89   ar
   123    88    90   ar
   124     3     4    2
   125    89    92   ar
   126    89    91   ar
   127    92    94   ar
   128    90    91   ar
   129    91    93   ar
   130    94    95   ar
   131    93    95   ar
