@<TRIPOS>MOLECULE
tmp/3nw3C00.pdb
 117 115 0 0 0
SMALL
GASTEIGER

@<TRIPOS>ATOM
      1  N         -3.9880  -15.1760  -22.6860 N.3    63  ASN63      -0.1225
      2  CA        -3.7180  -16.6060  -22.6680 C.3    63  ASN63       0.1785
      3  C         -4.9050  -17.4790  -23.0760 C.2    63  ASN63       0.2597
      4  O         -4.7780  -18.3170  -23.9620 O.2    63  ASN63      -0.2718
      5  CB        -3.1910  -17.0290  -21.2930 C.3    63  ASN63       0.1169
      6  CG        -1.9010  -16.3140  -20.9180 C.2    63  ASN63       0.2627
      7  OD1       -1.1390  -15.8880  -21.7810 O.2    63  ASN63      -0.2716
      8  ND2       -1.6470  -16.1980  -19.6290 N.am   63  ASN63      -0.0877
      9  N         -6.0660  -17.2700  -22.4670 N.am   64  LEU64      -0.1966
     10  CA        -7.2350  -18.0850  -22.7950 C.3    64  LEU64       0.1728
     11  C         -8.0600  -17.6330  -24.0050 C.2    64  LEU64       0.2617
     12  O         -8.9060  -18.3910  -24.4960 O.2    64  LEU64      -0.2715
     13  CB        -8.1430  -18.2010  -21.5710 C.3    64  LEU64       0.0311
     14  CG        -7.4910  -18.8360  -20.3350 C.3    64  LEU64       0.0022
     15  CD1       -8.5360  -19.0020  -19.2380 C.3    64  LEU64       0.0001
     16  CD2       -6.8860  -20.1910  -20.7050 C.3    64  LEU64       0.0001
     17  N         -7.8210  -16.4100  -24.4770 N.am   65  GLY65      -0.1940
     18  CA        -8.5340  -15.9000  -25.6350 C.3    65  GLY65       0.2014
     19  C         -9.9910  -15.5060  -25.4640 C.2    65  GLY65       0.2639
     20  O        -10.7270  -15.3790  -26.4400 O.2    65  GLY65      -0.2714
     21  N        -10.4120  -15.3060  -24.2250 N.am   66  TRP66      -0.1959
     22  CA       -11.7810  -14.9160  -23.9180 C.3    66  TRP66       0.1771
     23  C        -12.1080  -13.4510  -24.2190 C.2    66  TRP66       0.2619
     24  O        -11.2190  -12.6050  -24.2790 O.2    66  TRP66      -0.2715
     25  CB       -12.0470  -15.1720  -22.4490 C.3    66  TRP66       0.0590
     26  CG       -12.1440  -16.6010  -22.0890 C.ar   66  TRP66       0.0006
     27  CD1      -12.1680  -17.6710  -22.9430 C.ar   66  TRP66       0.0946
     28  CD2      -12.3540  -17.1270  -20.7760 C.ar   66  TRP66       0.0152
     29  NE1      -12.3890  -18.8220  -22.2410 N.ar   66  TRP66      -0.2442
     30  CE2      -12.5110  -18.5200  -20.9080 C.ar   66  TRP66       0.0810
     31  CE3      -12.4310  -16.5550  -19.4980 C.ar   66  TRP66       0.0012
     32  CZ2      -12.7450  -19.3550  -19.8060 C.ar   66  TRP66       0.0191
     33  CZ3      -12.6620  -17.3850  -18.4040 C.ar   66  TRP66       0.0001
     34  CH2      -12.8170  -18.7680  -18.5680 C.ar   66  TRP66       0.0015
     35  N        -13.3990  -13.1560  -24.3630 N.am   67  CYS67      -0.1968
     36  CA       -13.8450  -11.7950  -24.6520 C.3    67  CYS67       0.1712
     37  C        -13.5270  -10.8080  -23.5210 C.2    67  CYS67       0.2296
     38  O        -13.3400   -9.6170  -23.7740 O.2    67  CYS67      -0.2864
     39  CB       -15.3390  -11.7840  -24.9410 C.3    67  CYS67       0.0983
     40  SG       -16.3180  -12.5210  -23.6040 S.3    67  CYS67      -0.0798
     41  N        -17.2750   -8.3020  -15.5280 N.3    85  ARG85      -0.1245
     42  CA       -18.2730   -8.2190  -16.5840 C.3    85  ARG85       0.1563
     43  C        -19.5240   -7.4810  -16.0950 C.2    85  ARG85       0.2260
     44  O        -20.4230   -7.1940  -16.8890 O.2    85  ARG85      -0.2867
     45  CB       -18.6580   -9.6160  -17.0470 C.3    85  ARG85       0.0307
     46  CG       -17.4850  -10.3870  -17.6010 C.3    85  ARG85       0.0489
     47  CD       -17.9400  -11.4820  -18.5230 C.3    85  ARG85       0.2205
     48  NE       -16.7710  -12.1610  -19.0510 N.pl3  85  ARG85      -0.0865
     49  CZ       -16.8140  -13.2400  -19.8260 C.cat  85  ARG85       0.5346
     50  NH1      -17.9760  -13.7720  -20.1730 N.pl3  85  ARG85       0.1354
     51  NH2      -15.6830  -13.7860  -20.2510 N.pl3  85  ARG85       0.1354
     52  N        -23.0860  -11.8950  -18.9770 N.3    90  LYS90      -0.1231
     53  CA       -22.8390  -13.2660  -18.5490 C.3    90  LYS90       0.1693
     54  C        -21.3610  -13.5650  -18.3860 C.2    90  LYS90       0.2593
     55  O        -20.5750  -13.3470  -19.3020 O.2    90  LYS90      -0.2718
     56  CB       -23.4420  -14.2310  -19.5630 C.3    90  LYS90       0.0285
     57  CG       -23.3250  -15.6730  -19.1890 C.3    90  LYS90       0.0035
     58  CD       -24.2890  -16.4920  -20.0030 C.3    90  LYS90       0.0206
     59  CE       -23.9670  -16.4210  -21.4950 C.3    90  LYS90       0.1093
     60  NZ       -22.6550  -17.0610  -21.7870 N.3    90  LYS90      -0.1314
     61  N        -20.9960  -14.0740  -17.2170 N.am   91  GLY91      -0.1942
     62  CA       -19.6120  -14.4000  -16.9460 C.3    91  GLY91       0.2014
     63  C        -19.2030  -15.7450  -17.5270 C.2    91  GLY91       0.2639
     64  O        -20.0010  -16.4620  -18.1300 O.2    91  GLY91      -0.2714
     65  N        -17.9310  -16.0710  -17.3600 N.am   92  ALA92      -0.1963
     66  CA       -17.3640  -17.3350  -17.8150 C.3    92  ALA92       0.1728
     67  C        -16.5660  -17.7690  -16.6010 C.2    92  ALA92       0.2616
     68  O        -15.3590  -17.6240  -16.5830 O.2    92  ALA92      -0.2715
     69  CB       -16.4530  -17.0890  -18.9810 C.3    92  ALA92       0.0334
     70  N        -17.2430  -18.3110  -15.5950 N.am   93  HIS93      -0.1973
     71  CA       -16.5780  -18.6580  -14.3530 C.3    93  HIS93       0.1656
     72  C        -17.0340  -19.9680  -13.7380 C.2    93  HIS93       0.2291
     73  O        -16.3220  -20.5390  -12.9150 O.2    93  HIS93      -0.2864
     74  CB       -16.8470  -17.5410  -13.3440 C.3    93  HIS93       0.0771
     75  CG       -18.3010  -17.2270  -13.2000 C.ar   93  HIS93       0.0820
     76  ND1      -19.1320  -17.9160  -12.3420 N.ar   93  HIS93      -0.2267
     77  CD2      -19.0920  -16.3550  -13.8710 C.ar   93  HIS93       0.1154
     78  CE1      -20.3720  -17.4830  -12.4910 C.ar   93  HIS93       0.1986
     79  NE2      -20.3750  -16.5360  -13.4140 N.ar   93  HIS93      -0.2212
     80  N        -19.2260  -22.5610  -15.7260 N.3    95  GLY95      -0.1210
     81  CA       -19.8830  -23.4970  -16.6280 C.3    95  GLY95       0.1940
     82  C        -21.1250  -23.0380  -17.3810 C.2    95  GLY95       0.2453
     83  O        -21.6940  -21.9780  -17.0820 O.2    95  GLY95      -0.2732
     84  N        -21.5850  -23.8450  -18.3660 N.am   96  PRO96      -0.2728
     85  CA       -22.7570  -23.5820  -19.2150 C.3    96  PRO96       0.1401
     86  C        -24.1050  -23.7190  -18.5340 C.2    96  PRO96       0.2269
     87  O        -25.1040  -23.2100  -19.0330 O.2    96  PRO96      -0.2865
     88  CB       -22.6060  -24.5760  -20.3610 C.3    96  PRO96       0.0296
     89  CG       -21.1680  -25.0640  -20.2540 C.3    96  PRO96       0.0237
     90  CD       -20.9220  -25.0860  -18.7860 C.3    96  PRO96       0.0939
     91  N        -23.2100  -20.3200  -15.5560 N.3    99  ASN99      -0.1240
     92  CA       -22.9260  -18.9270  -15.9280 C.3    99  ASN99       0.1653
     93  C        -24.1420  -18.0980  -16.3120 C.2    99  ASN99       0.2266
     94  O        -24.2430  -16.9230  -15.9540 O.2    99  ASN99      -0.2867
     95  CB       -21.9490  -18.8390  -17.0880 C.3    99  ASN99       0.1155
     96  CG       -20.6970  -19.6130  -16.8460 C.2    99  ASN99       0.2627
     97  OD1      -20.2400  -19.7910  -15.7140 O.2    99  ASN99      -0.2716
     98  ND2      -20.1250  -20.0730  -17.9120 N.am   99  ASN99      -0.0877
     99  N        -17.6320  -22.3220   -5.5460 N.3   146  HIS146     -0.1241
    100  CA       -17.2760  -22.8210   -6.8700 C.3   146  HIS146      0.1621
    101  C        -17.1790  -24.3590   -6.8720 C.2   146  HIS146      0.2264
    102  O        -17.5650  -25.0200   -7.8410 O.2   146  HIS146     -0.2867
    103  CB       -15.9350  -22.2120   -7.3080 C.3   146  HIS146      0.0745
    104  CG       -15.6320  -22.3970   -8.7580 C.ar  146  HIS146      0.0817
    105  ND1      -14.3720  -22.2050   -9.2900 N.ar  146  HIS146     -0.2268
    106  CD2      -16.4290  -22.7610   -9.7920 C.ar  146  HIS146      0.1154
    107  CE1      -14.4050  -22.4470  -10.5900 C.ar  146  HIS146      0.1986
    108  NE2      -15.6410  -22.7880  -10.9190 N.ar  146  HIS146     -0.2212
    109  N        -18.7120  -27.1350   -9.8290 N.3   150  GLN150     -0.1245
    110  CA       -17.6580  -27.5030  -10.7570 C.3   150  GLN150      0.1566
    111  C        -16.5830  -28.2020   -9.9530 C.2   150  GLN150      0.2260
    112  O        -16.4170  -27.9390   -8.7620 O.2   150  GLN150     -0.2867
    113  CB       -17.0670  -26.2720  -11.4510 C.3   150  GLN150      0.0367
    114  CG       -17.8910  -25.7220  -12.6030 C.3   150  GLN150      0.0905
    115  CD       -17.0270  -25.1800  -13.7240 C.2   150  GLN150      0.2608
    116  OE1      -16.1930  -24.2810  -13.5240 O.2   150  GLN150     -0.2717
    117  NE2      -17.2230  -25.7210  -14.9190 N.am  150  GLN150     -0.0878
@<TRIPOS>BOND
     1    20    19    2
     2    18    19    1
     3    18    17    1
     4    19    21   am
     5    39    36    1
     6    39    40    1
     7    36    35    1
     8    36    37    1
     9    12    11    2
    10    17    11   am
    11    35    23   am
    12    24    23    2
    13    21    22    1
    14    23    22    1
    15    11    10    1
    16     4     3    2
    17    22    25    1
    18    38    37    2
    19     3     2    1
    20     3     9   am
    21    27    29   ar
    22    27    26   ar
    23    10     9    1
    24    10    13    1
    25     1     2    1
    26     2     5    1
    27    25    26    1
    28    29    30   ar
    29    26    28   ar
    30    60    59    1
    31     7     6    2
    32    13    14    1
    33    59    58    1
    34     5     6    1
    35     6     8   am
    36    30    28   ar
    37    30    32   ar
    38    28    31   ar
    39    16    14    1
    40    88    89    1
    41    88    85    1
    42    14    15    1
    43    89    90    1
    44    51    49    1
    45    50    49    1
    46    58    57    1
    47    49    48    2
    48    32    34   ar
    49    56    57    1
    50    56    53    1
    51    31    33   ar
    52    55    54    2
    53    85    86    1
    54    85    84    1
    55    48    47    1
    56    87    86    2
    57    69    66    1
    58    52    53    1
    59    90    84    1
    60    34    33   ar
    61    53    54    1
    62    47    46    1
    63    54    61   am
    64    84    82   am
    65    64    63    2
    66    98    96   am
    67    66    65    1
    68    66    67    1
    69    46    45    1
    70    63    65   am
    71    63    62    1
    72    82    83    2
    73    82    81    1
    74    61    62    1
    75    95    96    1
    76    95    92    1
    77    45    42    1
    78    44    43    2
    79    96    97    2
    80    81    80    1
    81    67    68    2
    82    67    70   am
    83    42    43    1
    84    42    41    1
    85    93    94    2
    86    93    92    1
    87    92    91    1
    88    70    71    1
    89   117   115   am
    90    71    72    1
    91    71    74    1
    92    77    79   ar
    93    77    75   ar
    94    72    73    2
    95   115   116    2
    96   115   114    1
    97    79    78   ar
    98    74    75    1
    99    75    76   ar
   100   114   113    1
   101    78    76   ar
   102   113   110    1
   103   108   107   ar
   104   108   106   ar
   105   110   111    1
   106   110   109    1
   107   107   105   ar
   108   111   112    2
   109   106   104   ar
   110   105   104   ar
   111   104   103    1
   112   102   101    2
   113   103   100    1
   114   101   100    1
   115   100    99    1
