@<TRIPOS>MOLECULE
tmp/3nw3D01.pdb
 94 94 0 0 0
SMALL
GASTEIGER

@<TRIPOS>ATOM
      1  N         -7.8680  -33.5430  -29.8210 N.3    32  TYR32      -0.1241
      2  CA        -7.2740  -33.0290  -28.5900 C.3    32  TYR32       0.1605
      3  C         -7.3240  -33.8800  -27.3260 C.2    32  TYR32       0.2264
      4  O         -8.2270  -34.6880  -27.1240 O.2    32  TYR32      -0.2867
      5  CB        -7.8910  -31.6560  -28.2740 C.3    32  TYR32       0.0534
      6  CG        -7.7770  -30.6580  -29.4010 C.ar   32  TYR32      -0.0201
      7  CD1       -6.5660  -30.0220  -29.6820 C.ar   32  TYR32      -0.0009
      8  CD2       -8.8670  -30.3970  -30.2280 C.ar   32  TYR32      -0.0009
      9  CE1       -6.4510  -29.1490  -30.7620 C.ar   32  TYR32       0.0417
     10  CE2       -8.7600  -29.5370  -31.3110 C.ar   32  TYR32       0.0417
     11  CZ        -7.5510  -28.9160  -31.5740 C.ar   32  TYR32       0.1957
     12  OH        -7.4300  -28.0740  -32.6620 O.3    32  TYR32      -0.2866
     13  N        -13.0190  -29.8920  -19.3100 N.3    94  ALA94      -0.1231
     14  CA       -12.3890  -28.6680  -19.7970 C.3    94  ALA94       0.1694
     15  C        -13.3450  -27.5930  -20.3300 C.2    94  ALA94       0.2593
     16  O        -12.9300  -26.7000  -21.0760 O.2    94  ALA94      -0.2718
     17  CB       -11.3580  -29.0200  -20.8720 C.3    94  ALA94       0.0304
     18  N        -14.6180  -27.6700  -19.9630 N.am   95  GLY95      -0.1943
     19  CA       -15.5550  -26.6640  -20.4260 C.3    95  GLY95       0.1998
     20  C        -16.2750  -26.9850  -21.7210 C.2    95  GLY95       0.2481
     21  O        -15.9170  -27.9410  -22.4270 O.2    95  GLY95      -0.2729
     22  N        -17.2910  -26.1790  -22.0690 N.am   96  PRO96      -0.2715
     23  CA       -18.1410  -26.2840  -23.2580 C.3    96  PRO96       0.1536
     24  C        -17.4160  -26.3220  -24.6020 C.2    96  PRO96       0.2599
     25  O        -17.9210  -26.8830  -25.5700 O.2    96  PRO96      -0.2715
     26  CB       -19.0240  -25.0480  -23.1380 C.3    96  PRO96       0.0310
     27  CG       -18.0860  -24.0600  -22.5380 C.3    96  PRO96       0.0237
     28  CD       -17.5260  -24.8860  -21.4040 C.3    96  PRO96       0.0939
     29  N        -16.2350  -25.7230  -24.6670 N.am   97  THR97      -0.1937
     30  CA       -15.4900  -25.6810  -25.9210 C.3    97  THR97       0.2028
     31  C        -14.5690  -26.8680  -26.1950 C.2    97  THR97       0.2642
     32  O        -14.4340  -27.2950  -27.3440 O.2    97  THR97      -0.2714
     33  CB       -14.6520  -24.3950  -26.0060 C.3    97  THR97       0.1808
     34  OG1      -15.5290  -23.2640  -26.0070 O.3    97  THR97      -0.2208
     35  CG2      -13.8200  -24.3800  -27.2720 C.3    97  THR97       0.0379
     36  N        -13.9260  -27.3890  -25.1550 N.am   98  TRP98      -0.1973
     37  CA       -13.0260  -28.5170  -25.3360 C.3    98  TRP98       0.1640
     38  C        -13.6520  -29.8730  -25.0160 C.2    98  TRP98       0.2290
     39  O        -13.2480  -30.8890  -25.5790 O.2    98  TRP98      -0.2864
     40  CB       -11.7420  -28.2940  -24.5240 C.3    98  TRP98       0.0576
     41  CG       -11.0180  -27.0610  -24.9870 C.ar   98  TRP98       0.0006
     42  CD1      -11.2350  -25.7770  -24.5670 C.ar   98  TRP98       0.0946
     43  CD2      -10.0640  -26.9740  -26.0520 C.ar   98  TRP98       0.0152
     44  NE1      -10.4870  -24.9050  -25.3080 N.ar   98  TRP98      -0.2442
     45  CE2       -9.7590  -25.6120  -26.2280 C.ar   98  TRP98       0.0810
     46  CE3       -9.4400  -27.9160  -26.8800 C.ar   98  TRP98       0.0012
     47  CZ2       -8.8560  -25.1630  -27.2000 C.ar   98  TRP98       0.0191
     48  CZ3       -8.5390  -27.4680  -27.8480 C.ar   98  TRP98       0.0001
     49  CH2       -8.2580  -26.1030  -27.9990 C.ar   98  TRP98       0.0015
     50  N         -2.9480  -30.3920  -24.3540 N.3   144  LYS144     -0.1245
     51  CA        -2.9740  -29.0730  -23.7340 C.3   144  LYS144      0.1561
     52  C         -3.0480  -29.3420  -22.2440 C.2   144  LYS144      0.2260
     53  O         -3.6000  -30.3620  -21.8310 O.2   144  LYS144     -0.2867
     54  CB        -4.2460  -28.2800  -24.0970 C.3   144  LYS144      0.0271
     55  CG        -4.6640  -28.2680  -25.5440 C.3   144  LYS144      0.0035
     56  CD        -4.1090  -27.0830  -26.3140 C.3   144  LYS144      0.0206
     57  CE        -4.6980  -27.0550  -27.7150 C.3   144  LYS144      0.1093
     58  NZ        -3.7710  -26.3740  -28.6520 N.3   144  LYS144     -0.1314
     59  N         -4.2880  -24.2570  -19.7670 N.3   148  ASP148     -0.1225
     60  CA        -4.1310  -23.6300  -21.0790 C.3   148  ASP148      0.1805
     61  C         -5.4710  -23.3810  -21.7370 C.2   148  ASP148      0.2598
     62  O         -5.5310  -22.7290  -22.7840 O.2   148  ASP148     -0.2718
     63  CB        -3.3210  -24.5010  -22.0460 C.3   148  ASP148      0.1424
     64  CG        -1.8800  -24.6740  -21.6280 C.2   148  ASP148      0.3668
     65  OD1       -1.2520  -23.6840  -21.1940 O.co2 148  ASP148     -0.2456
     66  OD2       -1.3660  -25.8060  -21.7610 O.co2 148  ASP148     -0.2456
     67  N         -6.5440  -23.9000  -21.1430 N.am  149  VAL149     -0.1966
     68  CA        -7.8680  -23.7220  -21.7360 C.3   149  VAL149      0.1727
     69  C         -8.9590  -23.3640  -20.7440 C.2   149  VAL149      0.2616
     70  O        -10.0970  -23.1020  -21.1240 O.2   149  VAL149     -0.2715
     71  CB        -8.3110  -24.9830  -22.5270 C.3   149  VAL149      0.0290
     72  CG1       -7.1480  -25.4910  -23.3780 C.3   149  VAL149      0.0023
     73  CG2       -8.7950  -26.0640  -21.5740 C.3   149  VAL149      0.0023
     74  N         -8.6100  -23.3810  -19.4670 N.am  150  GLN150     -0.1964
     75  CA        -9.5360  -23.0370  -18.4070 C.3   150  GLN150      0.1718
     76  C         -8.7050  -22.3020  -17.4000 C.2   150  GLN150      0.2458
     77  O         -7.4750  -22.4310  -17.3770 O.2   150  GLN150     -0.2730
     78  CB       -10.1080  -24.2690  -17.6870 C.3   150  GLN150      0.0407
     79  CG       -11.0430  -25.1370  -18.4880 C.3   150  GLN150      0.0908
     80  CD       -12.2640  -24.3780  -18.9430 C.2   150  GLN150      0.2608
     81  OE1      -12.1590  -23.4410  -19.7450 O.2   150  GLN150     -0.2717
     82  NE2      -13.4380  -24.7690  -18.4330 N.am  150  GLN150     -0.0878
     83  N         -9.3650  -21.4720  -16.5850 N.am  151  PRO151     -0.2727
     84  CA        -8.6620  -20.7280  -15.5470 C.3   151  PRO151      0.1402
     85  C         -8.5840  -21.7340  -14.4020 C.2   151  PRO151      0.2269
     86  O         -9.5930  -22.0980  -13.8020 O.2   151  PRO151     -0.2865
     87  CB        -9.5920  -19.5410  -15.2800 C.3   151  PRO151      0.0296
     88  CG       -10.9340  -20.0980  -15.5860 C.3   151  PRO151      0.0237
     89  CD       -10.6920  -20.8860  -16.8440 C.3   151  PRO151      0.0939
     90  N          0.9280  -25.4580  -27.3720 N.3   171  ALA171     -0.1245
     91  CA         0.4490  -24.2550  -26.7180 C.3   171  ALA171      0.1562
     92  C         -0.2160  -23.4330  -27.8160 C.2   171  ALA171      0.2260
     93  O         -1.4430  -23.5800  -28.0320 O.2   171  ALA171     -0.2867
     94  CB         1.6040  -23.4870  -26.1370 C.3   171  ALA171      0.0290
@<TRIPOS>BOND
     1    12    11    1
     2    11    10   ar
     3    11     9   ar
     4    10     8   ar
     5     9     7   ar
     6     8     6   ar
     7     1     2    1
     8     7     6   ar
     9     6     5    1
    10    58    57    1
    11     2     5    1
    12     2     3    1
    13    93    92    2
    14    49    48   ar
    15    49    47   ar
    16    48    46   ar
    17    92    91    1
    18    57    56    1
    19    90    91    1
    20    32    31    2
    21     3     4    2
    22    35    33    1
    23    47    45   ar
    24    46    43   ar
    25    91    94    1
    26    56    55    1
    27    45    43   ar
    28    45    44   ar
    29    31    30    1
    30    31    36   am
    31    43    41   ar
    32    34    33    1
    33    33    30    1
    34    30    29    1
    35    39    38    2
    36    25    24    2
    37    55    54    1
    38    37    36    1
    39    37    38    1
    40    37    40    1
    41    44    42   ar
    42    41    42   ar
    43    41    40    1
    44    29    24   am
    45    24    23    1
    46    50    51    1
    47    54    51    1
    48    51    52    1
    49    72    71    1
    50    23    26    1
    51    23    22    1
    52    26    27    1
    53    62    61    2
    54    27    28    1
    55    71    68    1
    56    71    73    1
    57    21    20    2
    58    52    53    2
    59    22    20   am
    60    22    28    1
    61    63    64    1
    62    63    60    1
    63    66    64   ar
    64    61    67   am
    65    61    60    1
    66    68    67    1
    67    68    69    1
    68    20    19    1
    69    64    65   ar
    70    70    69    2
    71    60    59    1
    72    16    15    2
    73    17    14    1
    74    69    74   am
    75    19    18    1
    76    15    18   am
    77    15    14    1
    78    14    13    1
    79    81    80    2
    80    74    75    1
    81    80    79    1
    82    80    82   am
    83    79    78    1
    84    75    78    1
    85    75    76    1
    86    76    77    2
    87    76    83   am
    88    89    83    1
    89    89    88    1
    90    83    84    1
    91    88    87    1
    92    84    87    1
    93    84    85    1
    94    85    86    2
