@<TRIPOS>MOLECULE
tmp/3nw6A00.pdb
 170 159 0 0 0
SMALL
GASTEIGER

@<TRIPOS>ATOM
      1  N        -20.6880    6.5190    6.0870 N.3    20  LEU20      -0.1231
      2  CA       -19.5900    6.7790    6.9950 C.3    20  LEU20       0.1693
      3  C        -18.3150    6.5880    6.1530 C.2    20  LEU20       0.2593
      4  O        -17.3230    7.3010    6.3120 O.2    20  LEU20      -0.2718
      5  CB       -19.6350    5.8150    8.1870 C.3    20  LEU20       0.0284
      6  CG       -20.6670    6.1530    9.2710 C.3    20  LEU20       0.0019
      7  CD1      -20.6700    5.1020   10.3280 C.3    20  LEU20       0.0001
      8  CD2      -20.4310    7.5290    9.8650 C.3    20  LEU20       0.0001
      9  N        -18.3920    5.6740    5.2140 N.am   21  GLY21      -0.1942
     10  CA       -17.2760    5.3870    4.3350 C.3    21  GLY21       0.2014
     11  C        -17.1730    3.9070    4.0770 C.2    21  GLY21       0.2638
     12  O        -17.8030    3.1150    4.7680 O.2    21  GLY21      -0.2714
     13  N        -16.3830    3.5440    3.0830 N.am   22  GLN22      -0.1977
     14  CA       -16.1780    2.1880    2.5870 C.3    22  GLN22       0.1601
     15  C        -15.3440    1.2880    3.4830 C.2    22  GLN22       0.2287
     16  O        -14.3640    1.7100    4.0900 O.2    22  GLN22      -0.2864
     17  CB       -15.6130    2.2570    1.1510 C.3    22  GLN22       0.0394
     18  CG       -15.2500    0.9260    0.4700 C.3    22  GLN22       0.0908
     19  CD       -16.3630    0.2690   -0.3350 C.2    22  GLN22       0.2608
     20  OE1      -17.3200    1.0560   -0.8240 O.2    22  GLN22      -0.2717
     21  NE2      -16.3480   -0.9530   -0.5730 N.am   22  GLN22      -0.0878
     22  N        -20.1710    1.4770    4.6070 N.3    28  VAL28      -0.1245
     23  CA       -20.6020    1.5130    5.9990 C.3    28  VAL28       0.1561
     24  C        -21.4980    2.7310    6.1130 C.2    28  VAL28       0.2260
     25  O        -21.2000    3.7810    5.5470 O.2    28  VAL28      -0.2867
     26  CB       -19.4220    1.4990    7.0260 C.3    28  VAL28       0.0252
     27  CG1      -19.9260    1.5140    8.4710 C.3    28  VAL28       0.0019
     28  CG2      -18.5270    0.2860    6.8080 C.3    28  VAL28       0.0019
     29  N        -24.0880    1.9350   13.5910 N.3    46  ALA46      -0.1245
     30  CA       -23.2640    1.9110   12.4010 C.3    46  ALA46       0.1562
     31  C        -23.6990    0.6550   11.6790 C.2    46  ALA46       0.2260
     32  O        -24.0310   -0.3390   12.3480 O.2    46  ALA46      -0.2867
     33  CB       -21.8030    1.8350   12.7600 C.3    46  ALA46       0.0290
     34  N        -22.6390   -1.9640    8.5880 N.3    48  LYS48      -0.1245
     35  CA       -21.7100   -2.5560    7.6160 C.3    48  LYS48       0.1561
     36  C        -22.5090   -3.3310    6.5540 C.2    48  LYS48       0.2260
     37  O        -23.4580   -4.0380    6.8940 O.2    48  LYS48      -0.2867
     38  CB       -20.7530   -3.4970    8.3530 C.3    48  LYS48       0.0271
     39  CG       -19.4770   -2.8060    8.7730 C.3    48  LYS48       0.0035
     40  CD       -18.7500   -3.5050    9.9060 C.3    48  LYS48       0.0206
     41  CE       -18.3020   -4.8950    9.5850 C.3    48  LYS48       0.1093
     42  NZ       -18.4470   -5.7520   10.7850 N.3    48  LYS48      -0.1314
     43  N        -15.5150   -1.6080   20.6810 N.3    78  VAL78      -0.1245
     44  CA       -16.7020   -1.3330   19.8470 C.3    78  VAL78       0.1561
     45  C        -17.5870   -2.5930   19.7500 C.2    78  VAL78       0.2260
     46  O        -17.0630   -3.6660   19.4270 O.2    78  VAL78      -0.2867
     47  CB       -16.3140   -0.7430   18.4620 C.3    78  VAL78       0.0252
     48  CG1      -17.5270   -0.6350   17.5320 C.3    78  VAL78       0.0019
     49  CG2      -15.6500    0.6140   18.6300 C.3    78  VAL78       0.0019
     50  N        -23.6320   -2.4280   14.3780 N.3    94  MET94      -0.1230
     51  CA       -22.6010   -2.1650   15.3650 C.3    94  MET94       0.1702
     52  C        -22.8210   -0.8490   16.0750 C.2    94  MET94       0.2592
     53  O        -23.5320    0.0410   15.5800 O.2    94  MET94      -0.2718
     54  CB       -21.2360   -2.0880   14.6510 C.3    94  MET94       0.0401
     55  CG       -20.9380   -3.3130   13.7810 C.3    94  MET94       0.0596
     56  SD       -19.1960   -3.6240   13.7070 S.3    94  MET94      -0.1393
     57  CE       -19.0060   -4.5860   15.2390 C.3    94  MET94       0.0692
     58  N        -22.1610   -0.7190   17.2220 N.am   95  GLU95      -0.1966
     59  CA       -22.0760    0.5070   18.0010 C.3    95  GLU95       0.1733
     60  C        -21.5500    1.6230   17.0870 C.2    95  GLU95       0.2616
     61  O        -20.5910    1.4190   16.3330 O.2    95  GLU95      -0.2715
     62  CB       -21.0810    0.2870   19.1420 C.3    95  GLU95       0.0429
     63  CG       -20.8350    1.5220   19.9850 C.3    95  GLU95       0.1163
     64  CD       -20.0360    1.2850   21.2420 C.2    95  GLU95       0.3649
     65  OE1      -19.5310    0.1530   21.4200 O.co2  95  GLU95      -0.2457
     66  OE2      -19.9230    2.2290   22.0580 O.co2  95  GLU95      -0.2457
     67  N        -22.1740    2.7830   17.1510 N.am   96  LEU96      -0.1963
     68  CA       -21.7660    3.9610   16.3850 C.3    96  LEU96       0.1728
     69  C        -20.7470    4.7730   17.1810 C.2    96  LEU96       0.2616
     70  O        -20.9640    5.0710   18.3510 O.2    96  LEU96      -0.2715
     71  CB       -22.9820    4.8570   16.0570 C.3    96  LEU96       0.0311
     72  CG       -22.7180    6.2070   15.3540 C.3    96  LEU96       0.0022
     73  CD1      -22.1730    6.0040   13.9230 C.3    96  LEU96       0.0001
     74  CD2      -24.0070    7.0790   15.3510 C.3    96  LEU96       0.0001
     75  N        -19.6620    5.1870   16.4970 N.am   97  MET97      -0.1963
     76  CA       -18.5950    5.9880   17.0590 C.3    97  MET97       0.1736
     77  C        -18.5800    7.1770   16.1610 C.2    97  MET97       0.2617
     78  O        -17.9910    7.1100   15.0790 O.2    97  MET97      -0.2715
     79  CB       -17.2720    5.2020   16.9920 C.3    97  MET97       0.0427
     80  CG       -17.3250    3.8920   17.7500 C.3    97  MET97       0.0599
     81  SD       -17.4110    4.1190   19.5600 S.3    97  MET97      -0.1393
     82  CE       -15.7230    4.5360   19.8890 C.3    97  MET97       0.0692
     83  N        -19.2690    8.2580   16.5700 N.am   98  THR98      -0.1937
     84  CA       -19.4620    9.4570   15.7240 C.3    98  THR98       0.2028
     85  C        -18.2040   10.1700   15.2450 C.2    98  THR98       0.2642
     86  O        -18.2470   10.7440   14.1670 O.2    98  THR98      -0.2714
     87  CB       -20.4820   10.4410   16.3180 C.3    98  THR98       0.1808
     88  OG1      -19.9840   10.8810   17.5670 O.3    98  THR98      -0.2208
     89  CG2      -21.8830    9.8190   16.5270 C.3    98  THR98       0.0379
     90  N        -17.0870   10.1280   16.0300 N.am   99  ARG99      -0.1963
     91  CA       -15.8610   10.8590   15.6900 C.3    99  ARG99       0.1729
     92  C        -14.8100   10.1030   14.9040 C.2    99  ARG99       0.2617
     93  O        -13.7020   10.6270   14.6940 O.2    99  ARG99      -0.2715
     94  CB       -15.2940   11.6330   16.8950 C.3    99  ARG99       0.0348
     95  CG       -16.3520   12.4690   17.6070 C.3    99  ARG99       0.0492
     96  CD       -15.8560   13.1440   18.8580 C.3    99  ARG99       0.2205
     97  NE       -16.8890   14.0310   19.4080 N.pl3  99  ARG99      -0.0865
     98  CZ       -17.0980   15.2890   19.0220 C.cat  99  ARG99       0.5346
     99  NH1      -16.3320   15.8420   18.0860 N.pl3  99  ARG99       0.1354
    100  NH2      -18.0690   16.0050   19.5710 N.pl3  99  ARG99       0.1354
    101  N        -15.1860    8.9210   14.4080 N.am  100  GLY100     -0.1940
    102  CA       -14.3290    8.0930   13.5620 C.3   100  GLY100      0.2014
    103  C        -13.0770    7.5140   14.1830 C.2   100  GLY100      0.2638
    104  O        -12.9810    7.3820   15.4100 O.2   100  GLY100     -0.2714
    105  N        -12.1440    7.0830   13.3240 N.am  101  ASP101     -0.1971
    106  CA       -10.8950    6.4390   13.7770 C.3   101  ASP101      0.1709
    107  C         -9.9540    7.4120   14.4400 C.2   101  ASP101      0.2293
    108  O         -9.9090    8.5670   14.0560 O.2   101  ASP101     -0.2864
    109  CB       -10.1900    5.6090   12.6710 C.3   101  ASP101      0.1436
    110  CG        -9.4040    6.4430   11.6970 C.2   101  ASP101      0.3671
    111  OD1       -8.2720    6.7970   12.0130 O.co2 101  ASP101     -0.2456
    112  OD2       -9.9650    6.8260   10.6630 O.co2 101  ASP101     -0.2456
    113  N         -5.2550    3.9700   13.9150 N.3   154  ARG154     -0.1231
    114  CA        -6.2000    3.7570   12.7930 C.3   154  ARG154      0.1694
    115  C         -7.2470    2.6720   13.1340 C.2   154  ARG154      0.2592
    116  O         -8.3400    2.6720   12.5470 O.2   154  ARG154     -0.2718
    117  CB        -5.4670    3.4590   11.4460 C.3   154  ARG154      0.0321
    118  CG        -4.7450    2.1020   11.4530 C.3   154  ARG154      0.0489
    119  CD        -3.9470    1.7240   10.2310 C.3   154  ARG154      0.2205
    120  NE        -3.1580    0.5280   10.5590 N.pl3 154  ARG154     -0.0865
    121  CZ        -1.9320    0.5440   11.0790 C.cat 154  ARG154      0.5346
    122  NH1       -1.3240    1.7010   11.3370 N.pl3 154  ARG154      0.1354
    123  NH2       -1.3300   -0.5900   11.4050 N.pl3 154  ARG154      0.1354
    124  N         -6.9320    1.8010   14.1230 N.am  155  ASN155     -0.1974
    125  CA        -7.8070    0.7170   14.5810 C.3   155  ASN155      0.1688
    126  C         -8.4940    0.9320   15.9460 C.2   155  ASN155      0.2292
    127  O         -9.0520   -0.0150   16.5250 O.2   155  ASN155     -0.2864
    128  CB        -7.0800   -0.6470   14.4890 C.3   155  ASN155      0.1181
    129  CG        -6.8490   -1.0820   13.0720 C.2   155  ASN155      0.2629
    130  OD1       -7.7150   -0.9360   12.2030 O.2   155  ASN155     -0.2716
    131  ND2       -5.6810   -1.6410   12.8040 N.am  155  ASN155     -0.0877
    132  N        -11.2770    3.6870   17.8120 N.3   157  MET157     -0.1245
    133  CA       -12.3820    4.5340   17.3720 C.3   157  MET157      0.1570
    134  C        -12.6850    5.5480   18.4340 C.2   157  MET157      0.2261
    135  O        -12.3420    5.3040   19.5770 O.2   157  MET157     -0.2867
    136  CB       -13.6260    3.6800   17.0350 C.3   157  MET157      0.0387
    137  CG       -13.4200    2.7450   15.8780 C.3   157  MET157      0.0595
    138  SD       -13.0680    3.5790   14.3090 S.3   157  MET157     -0.1393
    139  CE       -14.6780    4.3290   13.9430 C.3   157  MET157      0.0692
    140  N        -11.5270   -0.7690   17.9030 N.3   167  GLY167     -0.1210
    141  CA       -12.4440   -0.8720   16.7770 C.3   167  GLY167      0.1956
    142  C        -12.7280   -2.2930   16.3320 C.2   167  GLY167      0.2611
    143  O        -11.9930   -3.2270   16.6680 O.2   167  GLY167     -0.2717
    144  N        -13.8130   -2.4480   15.5500 N.am  168  ASP168     -0.1973
    145  CA       -14.2360   -3.6570   14.8560 C.3   168  ASP168      0.1709
    146  C        -12.9970   -4.2500   14.1550 C.2   168  ASP168      0.2293
    147  O        -12.2090   -3.5250   13.5360 O.2   168  ASP168     -0.2864
    148  CB       -15.2830   -3.2740   13.7910 C.3   168  ASP168      0.1436
    149  CG       -15.8910   -4.4320   13.0470 C.2   168  ASP168      0.3671
    150  OD1      -16.1420   -5.4970   13.6870 O.co2 168  ASP168     -0.2456
    151  OD2      -16.1610   -4.2770   11.8420 O.co2 168  ASP168     -0.2456
    152  N        -11.0490   -4.1350    9.8190 N.3   171  MET171     -0.1245
    153  CA       -11.5760   -3.0810    8.9450 C.3   171  MET171      0.1570
    154  C        -10.4500   -2.6510    7.9820 C.2   171  MET171      0.2261
    155  O         -9.4020   -2.1820    8.4520 O.2   171  MET171     -0.2867
    156  CB       -12.0800   -1.8670    9.7580 C.3   171  MET171      0.0387
    157  CG       -13.6050   -1.7240    9.8120 C.3   171  MET171      0.0595
    158  SD       -14.5700   -1.7610    8.2490 S.3   171  MET171     -0.1393
    159  CE       -13.5760   -0.7660    7.2140 C.3   171  MET171      0.0692
    160  N        -10.5070   -0.2970    4.9110 N.3   173  ARG173     -0.1245
    161  CA       -10.4570    1.1310    4.5170 C.3   173  ARG173      0.1563
    162  C         -9.8570    1.4320    3.1070 C.2   173  ARG173      0.2260
    163  O        -10.5750    1.2450    2.1100 O.2   173  ARG173     -0.2867
    164  CB        -9.8910    2.0650    5.6280 C.3   173  ARG173      0.0307
    165  CG       -10.6770    2.0820    6.9390 C.3   173  ARG173      0.0489
    166  CD       -11.6250    3.2700    7.0860 C.3   173  ARG173      0.2205
    167  NE       -10.9320    4.5390    7.3440 N.pl3 173  ARG173     -0.0865
    168  CZ       -11.5220    5.7320    7.3550 C.cat 173  ARG173      0.5346
    169  NH1      -12.8260    5.8370    7.1400 N.pl3 173  ARG173      0.1354
    170  NH2      -10.8110    6.8310    7.5840 N.pl3 173  ARG173      0.1354
@<TRIPOS>BOND
     1    20    19    2
     2    21    19   am
     3    19    18    1
     4    18    17    1
     5    17    14    1
     6   163   162    2
     7    14    13    1
     8    14    15    1
     9    13    11   am
    10   162   161    1
    11    15    16    2
    12    11    10    1
    13    11    12    2
    14    10     9    1
    15   161   160    1
    16   161   164    1
    17    22    23    1
    18     9     3   am
    19    25    24    2
    20   164   165    1
    21    23    24    1
    22    23    26    1
    23     1     2    1
    24     3     4    2
    25     3     2    1
    26    36    37    2
    27    36    35    1
    28    28    26    1
    29   165   166    1
    30     2     5    1
    31    26    27    1
    32   166   167    1
    33   169   168    1
    34   159   158    1
    35   167   168    2
    36   168   170    1
    37    35    38    1
    38    35    34    1
    39   154   155    2
    40   154   153    1
    41     5     6    1
    42   158   157    1
    43    38    39    1
    44    39    40    1
    45   153   156    1
    46   153   152    1
    47     6     8    1
    48     6     7    1
    49    41    40    1
    50    41    42    1
    51   156   157    1
    52   119   120    1
    53   119   118    1
    54   120   121    2
    55   112   110   ar
    56   121   122    1
    57   121   123    1
    58   117   118    1
    59   117   114    1
    60    31    32    2
    61    31    30    1
    62   110   111   ar
    63   110   109    1
    64   151   149   ar
    65   130   129    2
    66    30    33    1
    67    30    29    1
    68   116   115    2
    69   109   106    1
    70   114   115    1
    71   114   113    1
    72   131   129   am
    73   149   150   ar
    74   149   148    1
    75   129   128    1
    76   115   124   am
    77   105   106    1
    78   105   103   am
    79   147   146    2
    80   102   103    1
    81   102   101    1
    82    56    55    1
    83    56    57    1
    84   106   107    1
    85    55    54    1
    86   148   145    1
    87    73    72    1
    88   139   138    1
    89   108   107    2
    90   124   125    1
    91   146   145    1
    92    86    85    2
    93   103   104    2
    94   138   137    1
    95    50    51    1
    96   101    92   am
    97   128   125    1
    98   125   126    1
    99    54    51    1
   100    93    92    2
   101   145   144    1
   102    92    91    1
   103    78    77    2
   104    85    84    1
   105    85    90   am
   106    74    72    1
   107    72    71    1
   108    51    52    1
   109   144   142   am
   110    53    52    2
   111    91    90    1
   112    91    94    1
   113    84    87    1
   114    84    83    1
   115   137   136    1
   116   126   127    2
   117    71    68    1
   118    52    58   am
   119    77    83   am
   120    77    76    1
   121    87    89    1
   122    87    88    1
   123   142   143    2
   124   142   141    1
   125    61    60    2
   126    68    67    1
   127    68    69    1
   128    75    76    1
   129    75    69   am
   130   141   140    1
   131    94    95    1
   132    79    76    1
   133    79    80    1
   134   136   133    1
   135    60    67   am
   136    60    59    1
   137    69    70    2
   138    58    59    1
   139   133   132    1
   140   133   134    1
   141    48    47    1
   142    95    96    1
   143    80    81    1
   144    59    62    1
   145    99    98    1
   146   134   135    2
   147    47    49    1
   148    47    44    1
   149    96    97    1
   150    98    97    2
   151    98   100    1
   152    62    63    1
   153    46    45    2
   154    81    82    1
   155    45    44    1
   156    44    43    1
   157    63    64    1
   158    64    65   ar
   159    64    66   ar
