@<TRIPOS>MOLECULE
tmp/3nw7A00.pdb
 180 170 0 0 0
SMALL
GASTEIGER

@<TRIPOS>ATOM
      1  N        -21.3570    7.0320    7.0410 N.3    19  LEU19      -0.1231
      2  CA       -20.3560    7.4570    8.0160 C.3    19  LEU19       0.1693
      3  C        -19.0030    7.4990    7.3860 C.2    19  LEU19       0.2593
      4  O        -18.2880    8.5000    7.4780 O.2    19  LEU19      -0.2718
      5  CB       -20.3410    6.5760    9.2920 C.3    19  LEU19       0.0284
      6  CG       -21.5190    6.7410   10.2350 C.3    19  LEU19       0.0019
      7  CD1      -21.5990    5.6000   11.1790 C.3    19  LEU19       0.0001
      8  CD2      -21.4510    8.0530   10.9960 C.3    19  LEU19       0.0001
      9  N        -18.6340    6.3930    6.8000 N.am   20  GLY20      -0.1942
     10  CA       -17.3330    6.2500    6.1860 C.3    20  GLY20       0.2014
     11  C        -17.1450    4.8260    5.7520 C.2    20  GLY20       0.2638
     12  O        -17.9580    3.9770    6.1090 O.2    20  GLY20      -0.2714
     13  N        -16.1220    4.5840    4.9170 N.am   21  GLN21      -0.1977
     14  CA       -15.7900    3.2890    4.3360 C.3    21  GLN21       0.1601
     15  C        -15.2650    2.2900    5.3710 C.2    21  GLN21       0.2287
     16  O        -14.4770    2.6690    6.2520 O.2    21  GLN21      -0.2864
     17  CB       -14.7300    3.4830    3.2210 C.3    21  GLN21       0.0394
     18  CG       -14.4960    2.2660    2.3090 C.3    21  GLN21       0.0908
     19  CD       -15.7230    1.7010    1.6200 C.2    21  GLN21       0.2608
     20  OE1      -15.8430    0.4850    1.4310 O.2    21  GLN21      -0.2717
     21  NE2      -16.6470    2.5510    1.1920 N.am   21  GLN21      -0.0878
     22  N        -20.1210    2.1800    5.6130 N.3    27  VAL27      -0.1245
     23  CA       -20.7090    2.0620    6.9440 C.3    27  VAL27       0.1561
     24  C        -21.6850    3.2430    7.0710 C.2    27  VAL27       0.2260
     25  O        -21.3340    4.3860    6.7600 O.2    27  VAL27      -0.2867
     26  CB       -19.6640    2.0130    8.0990 C.3    27  VAL27       0.0252
     27  CG1      -20.3240    2.1450    9.4730 C.3    27  VAL27       0.0019
     28  CG2      -18.8240    0.7320    8.0430 C.3    27  VAL27       0.0019
     29  N        -24.6430    1.9580   14.0810 N.3    45  ALA45      -0.1245
     30  CA       -23.8690    2.0370   12.8650 C.3    45  ALA45       0.1562
     31  C        -24.3100    0.8150   12.0990 C.2    45  ALA45       0.2260
     32  O        -24.6790   -0.1910   12.7210 O.2    45  ALA45      -0.2867
     33  CB       -22.3750    1.9640   13.1540 C.3    45  ALA45       0.0290
     34  N        -23.0280   -1.7170    9.0110 N.3    47  LYS47      -0.1245
     35  CA       -22.0090   -2.1410    8.0270 C.3    47  LYS47       0.1561
     36  C        -22.7340   -2.8040    6.8390 C.2    47  LYS47       0.2260
     37  O        -23.6720   -3.5400    7.0590 O.2    47  LYS47      -0.2867
     38  CB       -21.0890   -3.1980    8.6260 C.3    47  LYS47       0.0271
     39  CG       -20.2440   -2.7730    9.8100 C.3    47  LYS47       0.0035
     40  CD       -19.0180   -3.6650    9.8880 C.3    47  LYS47       0.0206
     41  CE       -19.2990   -5.0380   10.4420 C.3    47  LYS47       0.1093
     42  NZ       -18.0440   -5.8150   10.6500 N.3    47  LYS47      -0.1314
     43  N        -16.1370   -1.8230   20.8860 N.3    77  VAL77      -0.1245
     44  CA       -17.3420   -1.5260   20.0750 C.3    77  VAL77       0.1561
     45  C        -18.2470   -2.7940   20.0140 C.2    77  VAL77       0.2260
     46  O        -17.7840   -3.8990   19.6940 O.2    77  VAL77      -0.2867
     47  CB       -17.0090   -0.9480   18.6760 C.3    77  VAL77       0.0252
     48  CG1      -18.2830   -0.7060   17.8340 C.3    77  VAL77       0.0019
     49  CG2      -16.1850    0.3370   18.7960 C.3    77  VAL77       0.0019
     50  N        -24.0850   -2.4280   14.6840 N.3    93  MET93      -0.1230
     51  CA       -23.1400   -2.2890   15.7830 C.3    93  MET93       0.1702
     52  C        -23.3480   -0.9900   16.5400 C.2    93  MET93       0.2595
     53  O        -24.0590   -0.1160   16.0830 O.2    93  MET93      -0.2718
     54  CB       -21.6920   -2.3280   15.2240 C.3    93  MET93       0.0401
     55  CG       -21.3520   -3.5970   14.4430 C.3    93  MET93       0.0596
     56  SD       -19.5950   -3.7520   14.1300 S.3    93  MET93      -0.1393
     57  CE       -19.0260   -4.2380   15.7240 C.3    93  MET93       0.0692
     58  N        -22.6900   -0.8540   17.6980 N.am   94  GLU94      -0.1920
     59  CA       -22.6910    0.3640   18.5010 C.3    94  GLU94       0.1949
     60  C        -22.1850    1.5200   17.6020 C.2    94  GLU94       0.2659
     61  O        -21.2270    1.3540   16.8100 O.2    94  GLU94      -0.2711
     62  CB       -21.7320    0.1550   19.6750 C.2    94  GLU94       0.0111
     63  CG       -21.5690    1.3480   20.5950 C.2    94  GLU94       0.0838
     64  CD       -20.6440    1.1290   21.7720 C.2    94  GLU94       0.3877
     65  OE1      -20.0410    0.0370   21.8760 O.co2  94  GLU94      -0.2406
     66  OE2      -20.5360    2.0530   22.6100 O.co2  94  GLU94      -0.2406
     67  N        -22.8550    2.6690   17.7060 N.am   95  LEU95      -0.1961
     68  CA       -22.4910    3.8590   16.9490 C.3    95  LEU95       0.1728
     69  C        -21.3710    4.6400   17.6420 C.2    95  LEU95       0.2616
     70  O        -21.4770    4.9870   18.8220 O.2    95  LEU95      -0.2715
     71  CB       -23.7330    4.7580   16.7320 C.3    95  LEU95       0.0311
     72  CG       -23.5140    6.1070   16.0730 C.3    95  LEU95       0.0022
     73  CD1      -22.8360    5.9720   14.6950 C.3    95  LEU95       0.0001
     74  CD2      -24.8380    6.8830   15.9400 C.3    95  LEU95       0.0001
     75  N        -20.2900    4.9090   16.8950 N.am   96  MET96      -0.1963
     76  CA       -19.1580    5.6910   17.3860 C.3    96  MET96       0.1736
     77  C        -19.1220    6.8930   16.4720 C.2    96  MET96       0.2617
     78  O        -18.6150    6.7850   15.3550 O.2    96  MET96      -0.2715
     79  CB       -17.8610    4.8600   17.3090 C.3    96  MET96       0.0427
     80  CG       -17.9460    3.6010   18.1370 C.3    96  MET96       0.0599
     81  SD       -18.0820    3.8410   19.9330 S.3    96  MET96      -0.1393
     82  CE       -16.4090    4.1850   20.3340 C.3    96  MET96       0.0692
     83  N        -19.7680    7.9990   16.8790 N.am   97  THR97      -0.1937
     84  CA       -19.8970    9.1760   15.9770 C.3    97  THR97       0.2028
     85  C        -18.5970    9.8600   15.5850 C.2    97  THR97       0.2642
     86  O        -18.5550   10.4790   14.5360 O.2    97  THR97      -0.2714
     87  CB       -20.8530   10.2220   16.5400 C.3    97  THR97       0.1808
     88  OG1      -20.2650   10.7520   17.7250 O.3    97  THR97      -0.2208
     89  CG2      -22.2410    9.6670   16.8130 C.3    97  THR97       0.0379
     90  N        -17.5520    9.7880   16.4320 N.am   98  ARG98      -0.1963
     91  CA       -16.3090   10.5050   16.1100 C.3    98  ARG98       0.1729
     92  C        -15.2700    9.7650   15.2730 C.2    98  ARG98       0.2617
     93  O        -14.1820   10.2850   15.0880 O.2    98  ARG98      -0.2715
     94  CB       -15.7260   11.2660   17.3260 C.3    98  ARG98       0.0348
     95  CG       -16.7330   12.2800   17.9090 C.3    98  ARG98       0.0492
     96  CD       -16.2000   12.8840   19.1960 C.3    98  ARG98       0.2205
     97  NE       -17.1970   13.7050   19.8940 N.pl3  98  ARG98      -0.0865
     98  CZ       -17.5360   14.9430   19.5380 C.cat  98  ARG98       0.5346
     99  NH1      -16.9550   15.5240   18.4970 N.pl3  98  ARG98       0.1354
    100  NH2      -18.4550   15.6080   20.2220 N.pl3  98  ARG98       0.1354
    101  N        -15.6320    8.6000   14.7270 N.am   99  GLY99      -0.1940
    102  CA       -14.7790    7.8710   13.8010 C.3    99  GLY99       0.2014
    103  C        -13.6120    7.1340   14.4150 C.2    99  GLY99       0.2638
    104  O        -13.5460    6.9620   15.6340 O.2    99  GLY99      -0.2714
    105  N        -12.6760    6.6890   13.5720 N.am  100  ASP100     -0.1971
    106  CA       -11.5130    5.9840   14.0960 C.3   100  ASP100      0.1709
    107  C        -10.5670    6.9350   14.8350 C.2   100  ASP100      0.2293
    108  O        -10.5690    8.1310   14.5550 O.2   100  ASP100     -0.2864
    109  CB       -10.8300    5.0810   13.0390 C.3   100  ASP100      0.1436
    110  CG       -10.0580    5.8270   11.9820 C.2   100  ASP100      0.3671
    111  OD1       -8.9510    6.3040   12.2900 O.co2 100  ASP100     -0.2456
    112  OD2      -10.5610    5.9340   10.8480 O.co2 100  ASP100     -0.2456
    113  N         -5.8760    3.5220   14.2930 N.3   153  ARG153     -0.1231
    114  CA        -6.8400    3.3100   13.1940 C.3   153  ARG153      0.1694
    115  C         -7.8540    2.2070   13.5270 C.2   153  ARG153      0.2592
    116  O         -8.9370    2.1860   12.9390 O.2   153  ARG153     -0.2718
    117  CB        -6.1140    3.0050   11.8620 C.3   153  ARG153      0.0321
    118  CG        -5.2900    1.6900   11.8760 C.3   153  ARG153      0.0489
    119  CD        -4.4830    1.3560   10.6110 C.3   153  ARG153      0.2205
    120  NE        -3.6690    0.1710   10.9250 N.pl3 153  ARG153     -0.0865
    121  CZ        -2.4750    0.2150   11.4970 C.cat 153  ARG153      0.5346
    122  NH1       -1.8650    1.3780   11.6840 N.pl3 153  ARG153      0.1354
    123  NH2       -1.8680   -0.9070   11.8700 N.pl3 153  ARG153      0.1354
    124  N         -7.5110    1.3250   14.5050 N.am  154  ASN154     -0.1960
    125  CA        -8.3570    0.1930   14.9170 C.3   154  ASN154      0.1819
    126  C         -9.0580    0.4130   16.2480 C.2   154  ASN154      0.2621
    127  O         -9.6080   -0.5160   16.8500 O.2   154  ASN154     -0.2715
    128  CB        -7.5710   -1.1240   14.8110 C.3   154  ASN154      0.1195
    129  CG        -7.2160   -1.4170   13.3740 C.2   154  ASN154      0.2630
    130  OD1       -7.9660   -1.1030   12.4650 O.2   154  ASN154     -0.2716
    131  ND2       -6.0730   -1.9920   13.1200 N.am  154  ASN154     -0.0877
    132  N         -9.0770    1.6800   16.6720 N.am  155  CYS155     -0.1954
    133  CA        -9.7920    2.1630   17.8470 C.3   155  CYS155      0.1843
    134  C        -10.8440    3.1280   17.3070 C.2   155  CYS155      0.2625
    135  O        -10.6400    3.7260   16.2490 O.2   155  CYS155     -0.2714
    136  CB        -8.8470    2.8620   18.8290 C.3   155  CYS155      0.0997
    137  SG        -7.6500    1.7530   19.6110 S.3   155  CYS155     -0.0797
    138  N        -11.9280    3.3200   18.0490 N.am  156  MET156     -0.1977
    139  CA       -13.0230    4.2010   17.6170 C.3   156  MET156      0.1605
    140  C        -13.3240    5.2180   18.7140 C.2   156  MET156      0.2287
    141  O        -13.1300    4.9170   19.9020 O.2   156  MET156     -0.2864
    142  CB       -14.2760    3.3590   17.3190 C.3   156  MET156      0.0413
    143  CG       -14.1510    2.4720   16.0890 C.3   156  MET156      0.0598
    144  SD       -13.8330    3.4190   14.5720 S.3   156  MET156     -0.1393
    145  CE       -15.4580    3.9020   14.1880 C.3   156  MET156      0.0692
    146  N        -11.9700   -0.9570   18.3430 N.3   166  GLY166     -0.1210
    147  CA       -12.9210   -0.9330   17.2530 C.3   166  GLY166      0.1956
    148  C        -13.2710   -2.2920   16.7030 C.2   166  GLY166      0.2611
    149  O        -12.9180   -3.3410   17.2510 O.2   166  GLY166     -0.2717
    150  N        -13.9220   -2.2500   15.5630 N.am  167  ASP167     -0.1973
    151  CA       -14.3420   -3.4110   14.8120 C.3   167  ASP167      0.1709
    152  C        -13.0850   -3.9970   14.1710 C.2   167  ASP167      0.2293
    153  O        -12.1460   -3.2820   13.8550 O.2   167  ASP167     -0.2864
    154  CB       -15.3630   -2.9700   13.7580 C.3   167  ASP167      0.1436
    155  CG       -16.0560   -4.0980   13.0350 C.2   167  ASP167      0.3671
    156  OD1      -16.3850   -5.1110   13.6900 O.co2 167  ASP167     -0.2456
    157  OD2      -16.3770   -3.9210   11.8510 O.co2 167  ASP167     -0.2456
    158  N        -10.7950   -3.6460    9.5950 N.3   170  MET170     -0.1230
    159  CA       -11.5380   -2.6930    8.7590 C.3   170  MET170      0.1702
    160  C        -10.7330   -1.6160    8.0380 C.2   170  MET170      0.2593
    161  O        -11.2730   -0.9670    7.1460 O.2   170  MET170     -0.2718
    162  CB       -12.6410   -2.0370    9.6060 C.3   170  MET170      0.0401
    163  CG       -13.6750   -3.0440   10.1060 C.3   170  MET170      0.0596
    164  SD       -15.0830   -3.1690    8.9870 S.3   170  MET170     -0.1393
    165  CE       -16.0090   -1.6500    9.4760 C.3   170  MET170      0.0692
    166  N         -9.4630   -1.4200    8.4190 N.am  171  THR171     -0.1953
    167  CA        -8.6570   -0.3090    7.9140 C.3   171  THR171      0.1897
    168  C         -7.5120   -0.5990    6.9620 C.2   171  THR171      0.2313
    169  O         -6.8120    0.3520    6.5770 O.2   171  THR171     -0.2863
    170  CB        -8.1940    0.5470    9.1050 C.3   171  THR171      0.1794
    171  OG1       -7.4780   -0.3100    9.9840 O.3   171  THR171     -0.2208
    172  CG2       -9.3780    1.1990    9.8560 C.3   171  THR171      0.0378
    173  N         -8.1350    1.5110    4.0620 N.3   174  ILE174     -0.1245
    174  CA        -8.3710    2.9210    4.4080 C.3   174  ILE174      0.1561
    175  C         -6.9890    3.5690    4.6320 C.2   174  ILE174      0.2260
    176  O         -6.7490    4.6870    4.1850 O.2   174  ILE174     -0.2867
    177  CB        -9.2560    3.0980    5.6880 C.3   174  ILE174      0.0252
    178  CG1      -10.5460    2.2420    5.6870 C.3   174  ILE174      0.0019
    179  CG2       -9.5350    4.5810    5.9880 C.3   174  ILE174      0.0019
    180  CD1      -11.4520    2.3800    4.4340 C.3   174  ILE174      0.0001
@<TRIPOS>BOND
     1    21    19   am
     2    20    19    2
     3    19    18    1
     4    18    17    1
     5    17    14    1
     6   173   174    1
     7   176   175    2
     8    14    13    1
     9    14    15    1
    10   174   175    1
    11   174   177    1
    12   180   178    1
    13    13    11   am
    14    15    16    2
    15    22    23    1
    16   178   177    1
    17   177   179    1
    18    11    12    2
    19    11    10    1
    20    10     9    1
    21   169   168    2
    22    25    24    2
    23     9     3   am
    24    36    37    2
    25    36    35    1
    26    23    24    1
    27    23    26    1
    28   168   167    1
    29     1     2    1
    30   161   160    2
    31     3     4    2
    32     3     2    1
    33   167   166    1
    34   167   170    1
    35     2     5    1
    36    35    38    1
    37    35    34    1
    38   160   166   am
    39   160   159    1
    40    28    26    1
    41    26    27    1
    42    38    39    1
    43   159   158    1
    44   159   162    1
    45   164   165    1
    46   164   163    1
    47   170   172    1
    48   170   171    1
    49     5     6    1
    50   162   163    1
    51    39    40    1
    52    40    41    1
    53     6     8    1
    54     6     7    1
    55    41    42    1
    56   119   120    1
    57   119   118    1
    58   112   110   ar
    59   120   121    2
    60   121   122    1
    61   121   123    1
    62   157   155   ar
    63   117   118    1
    64   117   114    1
    65   110   111   ar
    66   110   109    1
    67    31    32    2
    68    31    30    1
    69   130   129    2
    70    30    33    1
    71    30    29    1
    72   116   115    2
    73   155   156   ar
    74   155   154    1
    75   109   106    1
    76   131   129   am
    77   114   115    1
    78   114   113    1
    79   129   128    1
    80   115   124   am
    81   105   106    1
    82   105   103   am
    83   154   151    1
    84   102   103    1
    85   102   101    1
    86   153   152    2
    87   106   107    1
    88    56    55    1
    89    56    57    1
    90   152   151    1
    91   145   144    1
    92   103   104    2
    93    55    54    1
    94   124   125    1
    95    86    85    2
    96   108   107    2
    97   144   143    1
    98    50    51    1
    99    73    72    1
   100   101    92   am
   101   128   125    1
   102   151   150    1
   103   125   126    1
   104    93    92    2
   105    54    51    1
   106    92    91    1
   107    78    77    2
   108   150   148   am
   109    85    84    1
   110    85    90   am
   111    51    52    1
   112    74    72    1
   113    84    87    1
   114    84    83    1
   115    72    71    1
   116    53    52    2
   117   143   142    1
   118    91    90    1
   119    91    94    1
   120   126   132   am
   121   126   127    2
   122   135   134    2
   123    77    83   am
   124    77    76    1
   125    87    89    1
   126    87    88    1
   127    52    58   am
   128   132   133    1
   129   148   149    2
   130   148   147    1
   131    71    68    1
   132    61    60    2
   133    75    76    1
   134    75    69   am
   135    68    69    1
   136    68    67    1
   137   147   146    1
   138   134   133    1
   139   134   138   am
   140    79    76    1
   141    79    80    1
   142   142   139    1
   143    94    95    1
   144    60    67   am
   145    60    59    1
   146   139   138    1
   147   139   140    1
   148    69    70    2
   149    58    59    1
   150    48    47    1
   151   133   136    1
   152    95    96    1
   153    80    81    1
   154    99    98    1
   155    59    62    1
   156    47    49    1
   157    47    44    1
   158   140   141    2
   159   136   137    1
   160    96    97    1
   161    98    97    2
   162    98   100    1
   163    62    63    2
   164    46    45    2
   165    81    82    1
   166    45    44    1
   167    44    43    1
   168    63    64    1
   169    64    65   ar
   170    64    66   ar
