@<TRIPOS>MOLECULE
tmp/3nwfB00.pdb
 76 76 0 0 0
SMALL
GASTEIGER

@<TRIPOS>ATOM
      1  N         62.3750   -7.0610  163.1220 N.3   126  PRO126     -0.2102
      2  CA        62.6400   -7.7710  161.8640 C.3   126  PRO126      0.1504
      3  C         63.5490   -8.9760  162.0690 C.2   126  PRO126      0.2576
      4  O         64.5920   -8.8440  162.7070 O.2   126  PRO126     -0.2718
      5  CB        63.3600   -6.7160  161.0180 C.3   126  PRO126      0.0282
      6  CG        62.8580   -5.4150  161.5400 C.3   126  PRO126      0.0208
      7  CD        62.6590   -5.6200  163.0130 C.3   126  PRO126      0.0893
      8  N         63.1530  -10.1310  161.5390 N.am  127  ALA127     -0.1966
      9  CA        63.9640  -11.3470  161.6330 C.3   127  ALA127      0.1728
     10  C         65.3540  -11.0960  161.0660 C.2   127  ALA127      0.2616
     11  O         65.5440  -10.2000  160.2400 O.2   127  ALA127     -0.2715
     12  CB        63.2930  -12.5040  160.8920 C.3   127  ALA127      0.0334
     13  N         66.3220  -11.8790  161.5250 N.am  128  ASN128     -0.1958
     14  CA        67.6970  -11.7480  161.0700 C.3   128  ASN128      0.1819
     15  C         67.8200  -12.0250  159.5750 C.2   128  ASN128      0.2621
     16  O         66.8760  -12.4950  158.9470 O.2   128  ASN128     -0.2715
     17  CB        68.5930  -12.6870  161.8760 C.3   128  ASN128      0.1195
     18  CG        68.5520  -12.3890  163.3620 C.2   128  ASN128      0.2630
     19  OD1       68.7900  -11.2550  163.7810 O.2   128  ASN128     -0.2716
     20  ND2       68.2210  -13.3990  164.1650 N.am  128  ASN128     -0.0877
     21  N         68.9830  -11.7240  159.0070 N.am  129  ALA129     -0.1963
     22  CA        69.1950  -11.8850  157.5700 C.3   129  ALA129      0.1728
     23  C         69.1140  -13.3440  157.1230 C.2   129  ALA129      0.2616
     24  O         69.4530  -14.2590  157.8740 O.2   129  ALA129     -0.2715
     25  CB        70.5170  -11.2720  157.1490 C.3   129  ALA129      0.0334
     26  N         68.6680  -13.5420  155.8870 N.am  130  ALA130     -0.1963
     27  CA        68.5700  -14.8670  155.2870 C.3   130  ALA130      0.1728
     28  C         68.1490  -14.7100  153.8320 C.2   130  ALA130      0.2617
     29  O         67.0120  -14.3390  153.5520 O.2   130  ALA130     -0.2715
     30  CB        67.5620  -15.7150  156.0400 C.3   130  ALA130      0.0334
     31  N         69.0630  -14.9850  152.9070 N.am  131  THR131     -0.1937
     32  CA        68.7710  -14.8020  151.4880 C.3   131  THR131      0.2028
     33  C         67.6240  -15.6900  151.0080 C.2   131  THR131      0.2642
     34  O         67.4390  -16.8060  151.4920 O.2   131  THR131     -0.2714
     35  CB        70.0130  -15.0410  150.5970 C.3   131  THR131      0.1808
     36  OG1       70.5850  -16.3240  150.8850 O.3   131  THR131     -0.2208
     37  CG2       71.0540  -13.9600  150.8340 C.3   131  THR131      0.0379
     38  N         66.8520  -15.1750  150.0580 N.am  132  ARG132     -0.1963
     39  CA        65.7480  -15.9250  149.4660 C.3   132  ARG132      0.1729
     40  C         64.6680  -16.3270  150.4720 C.2   132  ARG132      0.2617
     41  O         64.0570  -17.3890  150.3400 O.2   132  ARG132     -0.2715
     42  CB        66.2740  -17.1680  148.7470 C.3   132  ARG132      0.0348
     43  CG        67.0390  -16.8660  147.4740 C.3   132  ARG132      0.0492
     44  CD        67.4990  -18.1450  146.7890 C.3   132  ARG132      0.2205
     45  NE        68.5270  -18.8430  147.5540 N.pl3 132  ARG132     -0.0865
     46  CZ        69.8040  -18.4770  147.5850 C.cat 132  ARG132      0.5346
     47  NH1       70.2060  -17.4120  146.9040 N.pl3 132  ARG132      0.1354
     48  NH2       70.6800  -19.1690  148.3000 N.pl3 132  ARG132      0.1354
     49  N         64.4280  -15.4790  151.4680 N.am  133  THR133     -0.1937
     50  CA        63.3820  -15.7450  152.4510 C.3   133  THR133      0.2028
     51  C         62.4570  -14.5430  152.5800 C.2   133  THR133      0.2643
     52  O         62.9210  -13.4010  152.5970 O.2   133  THR133     -0.2714
     53  CB        63.9710  -16.0680  153.8310 C.3   133  THR133      0.1808
     54  OG1       64.3580  -14.8530  154.4820 O.3   133  THR133     -0.2208
     55  CG2       65.1830  -16.9740  153.6900 C.3   133  THR133      0.0379
     56  N         61.1550  -14.8160  152.6570 N.am  134  SER134     -0.1935
     57  CA        60.1230  -13.7950  152.8120 C.3   134  SER134      0.2055
     58  C         60.3740  -12.9610  154.0600 C.2   134  SER134      0.2643
     59  O         61.4330  -13.0740  154.6740 O.2   134  SER134     -0.2714
     60  CB        58.7580  -14.4650  152.9230 C.3   134  SER134      0.2130
     61  OG        58.6840  -15.2770  154.0850 O.3   134  SER134     -0.2179
     62  N         59.4010  -12.1400  154.4520 N.am  135  ARG135     -0.1963
     63  CA        59.5650  -11.3140  155.6510 C.3   135  ARG135      0.1729
     64  C         58.9550  -11.9150  156.9260 C.2   135  ARG135      0.2616
     65  O         57.9360  -12.6030  156.8840 O.2   135  ARG135     -0.2715
     66  CB        59.0470   -9.8890  155.4170 C.3   135  ARG135      0.0348
     67  CG        59.8430   -9.1150  154.3700 C.3   135  ARG135      0.0492
     68  CD        59.7050   -7.6130  154.5410 C.3   135  ARG135      0.2205
     69  NE        58.3090   -7.1870  154.5830 N.pl3 135  ARG135     -0.0865
     70  CZ        57.8980   -6.0030  155.0290 C.cat 135  ARG135      0.5346
     71  NH1       58.7790   -5.1170  155.4780 N.pl3 135  ARG135      0.1354
     72  NH2       56.6040   -5.7070  155.0310 N.pl3 135  ARG135      0.1354
     73  N         59.5910  -11.6390  158.0600 N.am  136  GLY136     -0.1955
     74  CA        59.1400  -12.1640  159.3340 C.3   136  GLY136      0.1869
     75  C         59.6810  -11.3770  160.5130 C.2   136  GLY136      0.2309
     76  O         60.7540  -10.7840  160.4350 O.2   136  GLY136     -0.2863
@<TRIPOS>BOND
     1    44    43    1
     2    44    45    1
     3    47    46    1
     4    43    42    1
     5    45    46    2
     6    46    48    1
     7    42    39    1
     8    39    38    1
     9    39    40    1
    10    38    33   am
    11    41    40    2
    12    40    49   am
    13    35    37    1
    14    35    36    1
    15    35    32    1
    16    33    32    1
    17    33    34    2
    18    49    50    1
    19    32    31    1
    20    50    51    1
    21    50    53    1
    22    51    52    2
    23    51    56   am
    24    56    57    1
    25    57    60    1
    26    57    58    1
    27    31    28   am
    28    60    61    1
    29    29    28    2
    30    55    53    1
    31    53    54    1
    32    28    27    1
    33    58    62   am
    34    58    59    2
    35    67    68    1
    36    67    66    1
    37    62    63    1
    38    68    69    1
    39    69    70    2
    40    70    72    1
    41    70    71    1
    42    27    26    1
    43    27    30    1
    44    66    63    1
    45    63    64    1
    46    26    23   am
    47    65    64    2
    48    64    73   am
    49    23    22    1
    50    23    24    2
    51    25    22    1
    52    22    21    1
    53    73    74    1
    54    16    15    2
    55    21    15   am
    56    74    75    1
    57    15    14    1
    58    11    10    2
    59    76    75    2
    60    12     9    1
    61     5     6    1
    62     5     2    1
    63    10    13   am
    64    10     9    1
    65    14    13    1
    66    14    17    1
    67     8     9    1
    68     8     3   am
    69     6     7    1
    70     2     3    1
    71     2     1    1
    72    17    18    1
    73     3     4    2
    74     7     1    1
    75    18    19    2
    76    18    20   am
