@<TRIPOS>MOLECULE
tmp/3nwnA00.pdb
 103 102 0 0 0
SMALL
GASTEIGER

@<TRIPOS>ATOM
      1  N         39.8390   52.3280   20.1620 N.3     8  ARG8       -0.1231
      2  CA        39.9570   51.5910   21.4120 C.3     8  ARG8        0.1694
      3  C         40.5330   50.2140   21.1190 C.2     8  ARG8        0.2592
      4  O         39.9270   49.4210   20.3700 O.2     8  ARG8       -0.2718
      5  CB        38.6040   51.4380   22.1400 C.3     8  ARG8        0.0321
      6  CG        38.7460   50.6900   23.4790 C.3     8  ARG8        0.0489
      7  CD        37.4310   50.5660   24.2450 C.3     8  ARG8        0.2205
      8  NE        37.5960   50.2180   25.6670 N.pl3   8  ARG8       -0.0865
      9  CZ        36.5770   49.8810   26.4480 C.cat   8  ARG8        0.5346
     10  NH1       35.3350   49.8190   25.9340 N.pl3   8  ARG8        0.1354
     11  NH2       36.7800   49.5910   27.7280 N.pl3   8  ARG8        0.1354
     12  N         41.6740   49.9200   21.7310 N.am    9  VAL9       -0.1966
     13  CA        42.2940   48.6010   21.5950 C.3     9  VAL9        0.1727
     14  C         41.7090   47.6590   22.6270 C.2     9  VAL9        0.2616
     15  O         41.4820   48.0490   23.7810 O.2     9  VAL9       -0.2715
     16  CB        43.8310   48.6410   21.7280 C.3     9  VAL9        0.0290
     17  CG1       44.3940   47.3240   21.2780 C.3     9  VAL9        0.0023
     18  CG2       44.4250   49.8140   20.8990 C.3     9  VAL9        0.0023
     19  N         41.4200   46.4360   22.1980 N.am   10  LYS10      -0.1964
     20  CA        40.8960   45.3980   23.0810 C.3    10  LYS10       0.1713
     21  C         42.0740   44.8140   23.8560 C.2    10  LYS10       0.2458
     22  O         43.1260   44.4910   23.2400 O.2    10  LYS10      -0.2730
     23  CB        40.1460   44.3000   22.2910 C.3    10  LYS10       0.0311
     24  CG        39.6350   43.1180   23.1170 C.3    10  LYS10       0.0038
     25  CD        39.1090   41.9520   22.2070 C.3    10  LYS10       0.0206
     26  CE        38.5720   40.7520   22.9760 C.3    10  LYS10       0.1093
     27  NZ        37.8590   39.7550   22.0820 N.3    10  LYS10      -0.1314
     28  N         41.9260   44.7080   25.2070 N.am   11  PRO11      -0.2727
     29  CA        42.9650   44.1490   26.0650 C.3    11  PRO11       0.1402
     30  C         43.2130   42.6600   25.8110 C.2    11  PRO11       0.2269
     31  O         42.3000   41.9260   25.4450 O.2    11  PRO11      -0.2865
     32  CB        42.4170   44.3600   27.4920 C.3    11  PRO11       0.0296
     33  CG        41.3460   45.3740   27.3690 C.3    11  PRO11       0.0237
     34  CD        40.7540   45.1460   26.0000 C.3    11  PRO11       0.0939
     35  N         41.7710   50.9550   28.5950 N.3    60  ALA60      -0.1245
     36  CA        40.9600   52.0720   29.0910 C.3    60  ALA60       0.1562
     37  C         39.7000   51.5890   29.7660 C.2    60  ALA60       0.2260
     38  O         38.9970   50.7000   29.2500 O.2    60  ALA60      -0.2867
     39  CB        40.5850   52.9550   27.9750 C.3    60  ALA60       0.0290
     40  N         35.9820   44.8950   13.5830 N.3    90  GLN90      -0.1231
     41  CA        35.6800   43.5240   13.2330 C.3    90  GLN90       0.1698
     42  C         34.9570   42.8850   14.3890 C.2    90  GLN90       0.2593
     43  O         35.0560   43.3410   15.5340 O.2    90  GLN90      -0.2718
     44  CB        36.9260   42.7250   12.7850 C.3    90  GLN90       0.0381
     45  CG        37.8360   42.2590   13.9260 C.3    90  GLN90       0.0905
     46  CD        39.1820   41.7300   13.4520 C.2    90  GLN90       0.2608
     47  OE1       40.2370   42.3520   13.6870 O.2    90  GLN90      -0.2717
     48  NE2       39.1560   40.5820   12.7850 N.am   90  GLN90      -0.0878
     49  N         34.1970   41.8400   14.0690 N.am   91  THR91      -0.1939
     50  CA        33.5380   41.0230   15.0640 C.3    91  THR91       0.2028
     51  C         34.5680   40.5020   16.0600 C.2    91  THR91       0.2643
     52  O         35.6100   39.9890   15.6700 O.2    91  THR91      -0.2714
     53  CB        32.7330   39.8630   14.4140 C.3    91  THR91       0.1808
     54  OG1       31.7280   40.4180   13.5490 O.3    91  THR91      -0.2208
     55  CG2       32.0730   39.0310   15.4590 C.3    91  THR91       0.0379
     56  N         34.2870   40.7470   17.3440 N.am   92  GLY92      -0.1939
     57  CA        35.1230   40.3600   18.4390 C.3    92  GLY92       0.2014
     58  C         36.0030   41.4450   18.9980 C.2    92  GLY92       0.2639
     59  O         36.5530   41.2760   20.0760 O.2    92  GLY92      -0.2714
     60  N         36.1550   42.5510   18.2580 N.am   93  ALA93      -0.1963
     61  CA        37.0510   43.6390   18.6460 C.3    93  ALA93       0.1728
     62  C         36.5650   44.4810   19.8680 C.2    93  ALA93       0.2617
     63  O         37.3720   45.0670   20.5450 O.2    93  ALA93      -0.2715
     64  CB        37.3410   44.5480   17.4550 C.3    93  ALA93       0.0334
     65  N         35.2630   44.5230   20.1490 N.am   94  GLY94      -0.1940
     66  CA        34.7330   45.2570   21.3400 C.3    94  GLY94       0.2014
     67  C         33.6310   46.3180   21.1240 C.2    94  GLY94       0.2639
     68  O         33.3350   47.0970   22.0260 O.2    94  GLY94      -0.2714
     69  N         33.0110   46.3290   19.9520 N.am   95  LYS95      -0.1963
     70  CA        31.8850   47.2350   19.6400 C.3    95  LYS95       0.1728
     71  C         30.7480   47.1440   20.6440 C.2    95  LYS95       0.2617
     72  O         30.3150   48.1580   21.1550 O.2    95  LYS95      -0.2715
     73  CB        31.3280   46.9600   18.2580 C.3    95  LYS95       0.0311
     74  CG        32.2820   47.2210   17.0950 C.3    95  LYS95       0.0038
     75  CD        31.5870   47.0290   15.7430 C.3    95  LYS95       0.0206
     76  CE        31.0700   45.6110   15.5330 C.3    95  LYS95       0.1093
     77  NZ        32.1010   44.5020   15.8570 N.3    95  LYS95      -0.1314
     78  N         30.2730   45.9410   20.9430 N.am   96  THR96      -0.1937
     79  CA        29.0840   45.8020   21.8150 C.3    96  THR96       0.2028
     80  C         29.4640   46.0420   23.2600 C.2    96  THR96       0.2642
     81  O         28.6930   46.6410   23.9900 O.2    96  THR96      -0.2714
     82  CB        28.3310   44.4880   21.5850 C.3    96  THR96       0.1808
     83  OG1       27.9230   44.4280   20.2010 O.3    96  THR96      -0.2208
     84  CG2       27.0840   44.3540   22.4740 C.3    96  THR96       0.0379
     85  N         30.6710   45.6290   23.6550 N.am   97  TYR97      -0.1959
     86  CA        31.1780   45.8990   24.9940 C.3    97  TYR97       0.1771
     87  C         31.3730   47.4210   25.2120 C.2    97  TYR97       0.2620
     88  O         31.0730   47.9530   26.2700 O.2    97  TYR97      -0.2715
     89  CB        32.4630   45.1060   25.2660 C.3    97  TYR97       0.0574
     90  CG        33.0140   45.3540   26.6570 C.ar   97  TYR97      -0.0198
     91  CD1       32.4370   44.7730   27.7840 C.ar   97  TYR97      -0.0009
     92  CD2       34.0800   46.1970   26.8480 C.ar   97  TYR97      -0.0009
     93  CE1       32.9260   45.0380   29.0400 C.ar   97  TYR97       0.0417
     94  CE2       34.5610   46.4630   28.0890 C.ar   97  TYR97       0.0417
     95  CZ        33.9890   45.9010   29.1780 C.ar   97  TYR97       0.1957
     96  OH        34.5170   46.2040   30.4090 O.3    97  TYR97      -0.2866
     97  N         31.8520   48.1190   24.1920 N.am   98  THR98      -0.1951
     98  CA        32.0510   49.5790   24.2650 C.3    98  THR98       0.1897
     99  C         30.6840   50.3140   24.3240 C.2    98  THR98       0.2313
    100  O         30.4680   51.2150   25.1580 O.2    98  THR98      -0.2863
    101  CB        32.8850   50.0570   23.0680 C.3    98  THR98       0.1794
    102  OG1       34.1060   49.3110   23.0200 O.3    98  THR98      -0.2208
    103  CG2       33.1990   51.5300   23.1650 C.3    98  THR98       0.0378
@<TRIPOS>BOND
     1    44    41    1
     2    44    45    1
     3    48    46   am
     4    41    40    1
     5    41    42    1
     6    46    47    2
     7    46    45    1
     8    54    53    1
     9    49    42   am
    10    49    50    1
    11    42    43    2
    12    53    50    1
    13    53    55    1
    14    50    51    1
    15    76    75    1
    16    76    77    1
    17    52    51    2
    18    75    74    1
    19    51    56   am
    20    74    73    1
    21    56    57    1
    22    64    61    1
    23    73    70    1
    24    60    61    1
    25    60    58   am
    26    57    58    1
    27    61    62    1
    28    58    59    2
    29    70    69    1
    30    70    71    1
    31    62    65   am
    32    62    63    2
    33    69    67   am
    34    65    66    1
    35     1     2    1
    36    83    82    1
    37     4     3    2
    38    71    78   am
    39    71    72    2
    40    18    16    1
    41    78    79    1
    42     3     2    1
    43     3    12   am
    44    67    66    1
    45    67    68    2
    46    17    16    1
    47     2     5    1
    48    82    79    1
    49    82    84    1
    50    13    16    1
    51    13    12    1
    52    13    14    1
    53    79    80    1
    54    27    26    1
    55     5     6    1
    56    19    14   am
    57    19    20    1
    58    25    26    1
    59    25    24    1
    60    23    20    1
    61    23    24    1
    62    14    15    2
    63   102   101    1
    64   101   103    1
    65   101    98    1
    66    20    21    1
    67    22    21    2
    68    80    85   am
    69    80    81    2
    70     6     7    1
    71    85    86    1
    72    21    28   am
    73    97    98    1
    74    97    87   am
    75     7     8    1
    76    98    99    1
    77    99   100    2
    78    86    87    1
    79    86    89    1
    80    28    34    1
    81    28    29    1
    82    87    88    2
    83    89    90    1
    84    31    30    2
    85     8     9    2
    86    30    29    1
    87    10     9    1
    88    34    33    1
    89    29    32    1
    90     9    11    1
    91    90    92   ar
    92    90    91   ar
    93    92    94   ar
    94    33    32    1
    95    91    93   ar
    96    39    36    1
    97    94    95   ar
    98    35    36    1
    99    93    95   ar
   100    36    37    1
   101    95    96    1
   102    38    37    2
