@<TRIPOS>MOLECULE
tmp/3nwpB02.pdb
 89 85 0 0 0
SMALL
GASTEIGER

@<TRIPOS>ATOM
      1  N         20.9230  -40.1920   32.9810 N.3     2  ILE2       -0.1231
      2  CA        19.9890  -40.4860   31.8620 C.3     2  ILE2        0.1692
      3  C         19.9780  -42.0020   31.6890 C.2     2  ILE2        0.2591
      4  O         20.9730  -42.5770   31.2200 O.2     2  ILE2       -0.2718
      5  CB        20.4660  -39.7940   30.6020 C.3     2  ILE2        0.0266
      6  CG1       20.5210  -38.2730   30.8180 C.3     2  ILE2        0.0019
      7  CG2       19.5200  -40.0850   29.4150 C.3     2  ILE2        0.0020
      8  CD1       21.1760  -37.4600   29.6580 C.3     2  ILE2        0.0001
      9  N         18.8970  -42.6580   32.1030 N.am    3  LYS3       -0.1980
     10  CA        18.8640  -44.1150   32.1390 C.3     3  LYS3        0.1596
     11  C         18.1200  -44.7520   30.9640 C.2     3  LYS3        0.2287
     12  O         18.2900  -45.9540   30.7680 O.2     3  LYS3       -0.2864
     13  CB        18.2300  -44.5960   33.4550 C.3     3  LYS3        0.0298
     14  CG        19.0190  -44.2500   34.6720 C.3     3  LYS3        0.0038
     15  CD        18.3270  -44.8270   35.8870 C.3     3  LYS3        0.0206
     16  CE        19.0850  -44.4890   37.1140 C.3     3  LYS3        0.1093
     17  NZ        18.4690  -45.1680   38.3280 N.3     3  LYS3       -0.1314
     18  N         17.6750  -45.2740   27.1360 N.3     5  THR5       -0.1218
     19  CA        18.3850  -45.1150   25.8900 C.3     5  THR5        0.1862
     20  C         17.9020  -46.1380   24.8990 C.2     5  THR5        0.2287
     21  O         17.3930  -47.2100   25.2590 O.2     5  THR5       -0.2866
     22  CB        19.9180  -45.3180   26.0970 C.3     5  THR5        0.1770
     23  OG1       20.2330  -46.6910   26.3290 O.3     5  THR5       -0.2211
     24  CG2       20.4740  -44.4720   27.3140 C.3     5  THR5        0.0375
     25  N         20.1080  -47.7010   21.7490 N.3     7  PHE7       -0.1241
     26  CA        21.4800  -47.7030   21.2380 C.3     7  PHE7        0.1605
     27  C         21.6750  -48.8510   20.2460 C.2     7  PHE7        0.2264
     28  O         21.3780  -50.0120   20.5640 O.2     7  PHE7       -0.2867
     29  CB        22.4420  -47.8480   22.4190 C.3     7  PHE7        0.0534
     30  CG        23.8930  -47.8310   22.0210 C.ar    7  PHE7       -0.0203
     31  CD1       24.5790  -46.6640   21.8160 C.ar    7  PHE7       -0.0042
     32  CD2       24.5520  -49.0390   21.8670 C.ar    7  PHE7       -0.0042
     33  CE1       25.9450  -46.6990   21.4150 C.ar    7  PHE7       -0.0003
     34  CE2       25.8750  -49.0810   21.4860 C.ar    7  PHE7       -0.0003
     35  CZ        26.5490  -47.9090   21.2770 C.ar    7  PHE7       -0.0000
     36  N         32.1710  -42.5950   21.6570 N.3   194  LEU194     -0.1231
     37  CA        31.4290  -43.4740   22.5710 C.3   194  LEU194      0.1693
     38  C         31.6930  -43.0660   24.0340 C.2   194  LEU194      0.2592
     39  O         30.7830  -43.0350   24.8290 O.2   194  LEU194     -0.2718
     40  CB        31.7890  -44.9390   22.3600 C.3   194  LEU194      0.0284
     41  CG        30.9840  -45.9540   23.1840 C.3   194  LEU194      0.0019
     42  CD1       29.5130  -45.9200   22.8330 C.3   194  LEU194      0.0001
     43  CD2       31.5850  -47.3390   22.9870 C.3   194  LEU194      0.0001
     44  N         32.9500  -42.7660   24.3790 N.am  195  SER195     -0.1952
     45  CA        33.2860  -42.3640   25.7400 C.3   195  SER195      0.1924
     46  C         32.5480  -41.0710   26.1160 C.2   195  SER195      0.2314
     47  O         32.0900  -40.9160   27.2480 O.2   195  SER195     -0.2863
     48  CB        34.7960  -42.1390   25.8670 C.3   195  SER195      0.2116
     49  OG        35.1190  -41.6600   27.1560 O.3   195  SER195     -0.2180
     50  N         29.7630  -39.9290   24.7630 N.3   197  TYR197     -0.1227
     51  CA        28.3300  -40.2910   24.8790 C.3   197  TYR197      0.1736
     52  C         28.0690  -40.8850   26.2790 C.2   197  TYR197      0.2595
     53  O         27.0700  -40.5390   26.9310 O.2   197  TYR197     -0.2718
     54  CB        27.9230  -41.2650   23.7610 C.3   197  TYR197      0.0548
     55  CG        26.5750  -41.9480   23.9890 C.ar  197  TYR197     -0.0200
     56  CD1       25.3960  -41.2660   23.8170 C.ar  197  TYR197     -0.0009
     57  CD2       26.5320  -43.2590   24.3400 C.ar  197  TYR197     -0.0009
     58  CE1       24.1470  -41.8730   24.0290 C.ar  197  TYR197      0.0417
     59  CE2       25.3000  -43.8870   24.5380 C.ar  197  TYR197      0.0417
     60  CZ        24.1440  -43.1870   24.3980 C.ar  197  TYR197      0.1957
     61  OH        22.9630  -43.8760   24.6280 O.3   197  TYR197     -0.2866
     62  N         28.9110  -41.8180   26.6870 N.am  198  ARG198     -0.1980
     63  CA        28.8100  -42.3800   28.0510 C.3   198  ARG198      0.1597
     64  C         28.8700  -41.3150   29.1470 C.2   198  ARG198      0.2287
     65  O         28.0740  -41.3460   30.1040 O.2   198  ARG198     -0.2864
     66  CB        29.8620  -43.4910   28.2540 C.3   198  ARG198      0.0334
     67  CG        29.6790  -44.7350   27.4120 C.3   198  ARG198      0.0492
     68  CD        28.3890  -45.4860   27.6620 C.3   198  ARG198      0.2205
     69  NE        28.2770  -45.8770   29.0690 N.pl3 198  ARG198     -0.0865
     70  CZ        27.3160  -46.6550   29.5630 C.cat 198  ARG198      0.5346
     71  NH1       26.4560  -47.2220   28.7460 N.pl3 198  ARG198      0.1354
     72  NH2       27.2660  -46.9010   30.8670 N.pl3 198  ARG198      0.1354
     73  N         25.6270  -39.4650   29.4800 N.3   201  LEU201     -0.1231
     74  CA        24.5280  -40.1810   30.2020 C.3   201  LEU201      0.1693
     75  C         24.6260  -40.0430   31.7350 C.2   201  LEU201      0.2591
     76  O         23.6940  -40.3330   32.4550 O.2   201  LEU201     -0.2718
     77  CB        24.5060  -41.6410   29.8170 C.3   201  LEU201      0.0284
     78  CG        24.1910  -41.9770   28.3570 C.3   201  LEU201      0.0019
     79  CD1       24.2760  -43.5190   28.1660 C.3   201  LEU201      0.0001
     80  CD2       22.8310  -41.4690   27.9420 C.3   201  LEU201      0.0001
     81  N         25.7750  -39.5950   32.2240 N.am  202  GLU202     -0.1979
     82  CA        26.0010  -39.5180   33.6800 C.3   202  GLU202      0.1602
     83  C         25.2240  -38.4680   34.4220 C.2   202  GLU202      0.2287
     84  O         25.1390  -38.5270   35.6530 O.2   202  GLU202     -0.2864
     85  CB        27.4970  -39.3600   33.9670 C.3   202  GLU202      0.0415
     86  CG        28.2910  -40.5810   33.5540 C.3   202  GLU202      0.1163
     87  CD        29.7730  -40.4980   33.8650 C.2   202  GLU202      0.3649
     88  OE1       30.2250  -39.4560   34.3190 O.co2 202  GLU202     -0.2457
     89  OE2       30.4060  -41.5740   33.7670 O.co2 202  GLU202     -0.2457
@<TRIPOS>BOND
     1    27    28    2
     2    27    26    1
     3    26    25    1
     4    26    29    1
     5    35    33   ar
     6    35    34   ar
     7    33    31   ar
     8    34    32   ar
     9    36    37    1
    10    31    30   ar
    11    32    30   ar
    12    30    29    1
    13    40    37    1
    14    40    41    1
    15    37    38    1
    16    42    41    1
    17    43    41    1
    18    54    55    1
    19    54    51    1
    20    56    55   ar
    21    56    58   ar
    22    55    57   ar
    23    58    60   ar
    24    38    44   am
    25    38    39    2
    26    57    59   ar
    27    44    45    1
    28    60    59   ar
    29    60    61    1
    30    50    51    1
    31    51    52    1
    32    20    21    2
    33    20    19    1
    34    45    48    1
    35    45    46    1
    36    48    49    1
    37    19    22    1
    38    19    18    1
    39    22    23    1
    40    22    24    1
    41    46    47    2
    42    52    62   am
    43    52    53    2
    44    62    63    1
    45    67    68    1
    46    67    66    1
    47    68    69    1
    48    80    78    1
    49    63    66    1
    50    63    64    1
    51    79    78    1
    52    78    77    1
    53    71    70    1
    54    69    70    2
    55    64    65    2
    56     7     5    1
    57    73    74    1
    58    70    72    1
    59     8     6    1
    60    77    74    1
    61    74    75    1
    62     5     6    1
    63     5     2    1
    64    12    11    2
    65    11    10    1
    66     4     3    2
    67     3     2    1
    68     3     9   am
    69    75    81   am
    70    75    76    2
    71     2     1    1
    72     9    10    1
    73    10    13    1
    74    81    82    1
    75    13    14    1
    76    86    87    1
    77    86    85    1
    78    82    85    1
    79    82    83    1
    80    89    87   ar
    81    87    88   ar
    82    83    84    2
    83    14    15    1
    84    15    16    1
    85    16    17    1
