@<TRIPOS>MOLECULE
tmp/3nwxB00.pdb
 135 126 0 0 0
SMALL
GASTEIGER

@<TRIPOS>ATOM
      1  N         -4.0480   -5.8380  -28.0000 N.3     8  ARG8       -0.1245
      2  CA        -3.4120   -5.0290  -26.9390 C.3     8  ARG8        0.1563
      3  C         -2.2830   -4.2230  -27.5800 C.2     8  ARG8        0.2260
      4  O         -1.5640   -4.7660  -28.4260 O.2     8  ARG8       -0.2867
      5  CB        -2.7890   -5.9230  -25.8590 C.3     8  ARG8        0.0307
      6  CG        -3.7680   -6.8160  -25.1390 C.3     8  ARG8        0.0489
      7  CD        -3.0650   -7.5190  -23.9800 C.3     8  ARG8        0.2205
      8  NE        -2.1020   -8.5370  -24.4010 N.pl3   8  ARG8       -0.0865
      9  CZ        -1.2210   -9.1260  -23.5820 C.cat   8  ARG8        0.5346
     10  NH1       -1.1480   -8.7690  -22.2860 N.pl3   8  ARG8        0.1354
     11  NH2       -0.3890  -10.0640  -24.0480 N.pl3   8  ARG8        0.1354
     12  N          2.8200   -2.6840  -22.3510 N.3    23  LEU23      -0.1245
     13  CA         1.5060   -2.2100  -22.7650 C.3    23  LEU23       0.1561
     14  C          1.3630   -0.6920  -22.5980 C.2    23  LEU23       0.2260
     15  O          1.5420   -0.1690  -21.4850 O.2    23  LEU23      -0.2867
     16  CB         0.4580   -2.8940  -21.8760 C.3    23  LEU23       0.0270
     17  CG        -1.0430   -2.7040  -22.1100 C.3    23  LEU23       0.0019
     18  CD1       -1.3750   -3.3120  -23.4380 C.3    23  LEU23       0.0001
     19  CD2       -1.8640   -3.3810  -20.9420 C.3    23  LEU23       0.0001
     20  N         -0.7190    2.1060  -21.7130 N.3    25  ASP25      -0.1239
     21  CA        -1.8780    1.9900  -20.8110 C.3    25  ASP25       0.1674
     22  C         -2.3380    3.3510  -20.3100 C.2    25  ASP25       0.2266
     23  O         -1.8100    3.8550  -19.3160 O.2    25  ASP25      -0.2867
     24  CB        -1.4980    1.1400  -19.5990 C.3    25  ASP25       0.1410
     25  CG        -2.6550    0.9010  -18.6560 C.2    25  ASP25       0.3668
     26  OD1       -3.8120    1.3200  -18.9590 O.co2  25  ASP25      -0.2456
     27  OD2       -2.4200    0.2300  -17.6240 O.co2  25  ASP25      -0.2456
     28  N         -4.9870    4.1280  -18.7880 N.3    27  GLY27      -0.1210
     29  CA        -5.5650    4.0240  -17.4440 C.3    27  GLY27       0.1956
     30  C         -4.5630    3.9560  -16.2850 C.2    27  GLY27       0.2612
     31  O         -4.9610    3.9610  -15.1240 O.2    27  GLY27      -0.2717
     32  N         -3.2640    3.9210  -16.5630 N.am   28  ALA28      -0.1965
     33  CA        -2.2410    3.9760  -15.5000 C.3    28  ALA28       0.1728
     34  C         -1.6640    5.3710  -15.3600 C.2    28  ALA28       0.2616
     35  O         -1.1830    5.9570  -16.3350 O.2    28  ALA28      -0.2715
     36  CB        -1.1420    2.9870  -15.8030 C.3    28  ALA28       0.0334
     37  N         -1.6380    5.8910  -14.1330 N.am   29  ASP29      -0.1957
     38  CA        -0.9530    7.1590  -13.8830 C.3    29  ASP29       0.1840
     39  C          0.5500    7.0160  -14.1280 C.2    29  ASP29       0.2622
     40  O          1.2060    7.9760  -14.5890 O.2    29  ASP29      -0.2715
     41  CB        -1.1210    7.5820  -12.4370 C.3    29  ASP29       0.1450
     42  CG        -2.5550    7.9640  -12.0670 C.2    29  ASP29       0.3671
     43  OD1       -3.4440    8.0350  -12.9340 O.co2  29  ASP29      -0.2456
     44  OD2       -2.7810    8.1850  -10.8580 O.co2  29  ASP29      -0.2456
     45  N          1.0850    5.8430  -13.7510 N.am   30  ASP30      -0.1971
     46  CA         2.5190    5.5680  -13.5770 C.3    30  ASP30       0.1709
     47  C          2.9610    4.3910  -14.4810 C.2    30  ASP30       0.2293
     48  O          2.1440    3.6350  -14.9840 O.2    30  ASP30      -0.2864
     49  CB         2.8120    5.2120  -12.0860 C.3    30  ASP30       0.1436
     50  CG         2.2570    6.2510  -11.1070 C.2    30  ASP30       0.3671
     51  OD1        2.4880    7.4430  -11.3900 O.co2  30  ASP30      -0.2456
     52  OD2        1.5440    5.9030  -10.0930 O.co2  30  ASP30      -0.2456
     53  N          4.8070    0.8430  -14.6380 N.3    32  VAL32      -0.1245
     54  CA         5.1140   -0.2730  -13.7490 C.3    32  VAL32       0.1561
     55  C          5.7380   -1.4100  -14.5210 C.2    32  VAL32       0.2260
     56  O          5.1740   -1.8800  -15.5370 O.2    32  VAL32      -0.2867
     57  CB         3.8940   -0.7640  -13.0090 C.3    32  VAL32       0.0252
     58  CG1        4.3660   -1.7410  -11.9000 C.3    32  VAL32       0.0019
     59  CG2        3.1600    0.4250  -12.4250 C.3    32  VAL32       0.0019
     60  N          6.9520    2.2540   -2.4020 N.3    43  LYS43      -0.1245
     61  CA         5.6420    2.8320   -2.5790 C.3    43  LYS43       0.1561
     62  C          4.6370    1.6810   -2.6870 C.2    43  LYS43       0.2260
     63  O          5.0420    0.5250   -2.9430 O.2    43  LYS43      -0.2867
     64  CB         5.6530    3.7190   -3.8350 C.3    43  LYS43       0.0271
     65  CG         4.2930    3.8940   -4.6070 C.3    43  LYS43       0.0035
     66  CD         4.5200    4.5900   -5.9770 C.3    43  LYS43       0.0206
     67  CE         3.3960    5.5880   -6.4110 C.3    43  LYS43       0.1093
     68  NZ         3.5360    6.9680   -5.8240 N.3    43  LYS43      -0.1314
     69  N          0.9830    0.8550   -4.7430 N.3    44  ILE44      -0.1231
     70  CA         0.1250    1.3350   -5.8070 C.3    44  ILE44       0.1692
     71  C         -1.0030    0.3580   -5.9300 C.2    44  ILE44       0.2593
     72  O         -0.9190   -0.7690   -5.4450 O.2    44  ILE44      -0.2718
     73  CB         0.8570    1.4720   -7.1660 C.3    44  ILE44       0.0266
     74  CG1        1.3930    0.1060   -7.6410 C.3    44  ILE44       0.0019
     75  CG2        1.9720    2.5520   -7.0580 C.3    44  ILE44       0.0020
     76  CD1        2.2210    0.1660   -8.9300 C.3    44  ILE44       0.0001
     77  N         -2.0530    0.7750   -6.5960 N.am   45  GLY45      -0.1942
     78  CA        -3.2360   -0.0470   -6.6060 C.3    45  GLY45       0.2014
     79  C         -3.8870   -0.0800   -7.9400 C.2    45  GLY45       0.2639
     80  O         -3.7290    0.8460   -8.7220 O.2    45  GLY45      -0.2714
     81  N         -4.6840   -1.1250   -8.1140 N.am   46  GLY46      -0.1954
     82  CA        -5.5180   -1.1580   -9.2860 C.3    46  GLY46       0.1869
     83  C         -6.9230   -1.4840   -8.9410 C.2    46  GLY46       0.2309
     84  O         -7.4270   -1.1980   -7.8330 O.2    46  GLY46      -0.2863
     85  N         -3.7760   -3.8020   -4.0480 N.3    49  PHE49      -0.1241
     86  CA        -2.5800   -2.9800   -3.9990 C.3    49  PHE49       0.1605
     87  C         -1.3570   -3.8520   -4.0290 C.2    49  PHE49       0.2264
     88  O         -1.3640   -4.9650   -3.4970 O.2    49  PHE49      -0.2867
     89  CB        -2.5680   -2.1870   -2.6990 C.3    49  PHE49       0.0534
     90  CG        -3.4820   -1.0370   -2.7090 C.ar   49  PHE49      -0.0203
     91  CD1       -4.8310   -1.2150   -2.5030 C.ar   49  PHE49      -0.0042
     92  CD2       -3.0070    0.2420   -2.9520 C.ar   49  PHE49      -0.0042
     93  CE1       -5.6990   -0.1430   -2.5260 C.ar   49  PHE49      -0.0003
     94  CE2       -3.8810    1.3270   -2.9600 C.ar   49  PHE49      -0.0003
     95  CZ        -5.2220    1.1270   -2.7590 C.ar   49  PHE49      -0.0000
     96  N          3.9190   -7.0450  -11.2820 N.3    75  THR75      -0.1204
     97  CA         2.8360   -6.9090  -12.2740 C.3    75  THR75       0.1979
     98  C          2.7370   -8.0880  -13.2500 C.2    75  THR75       0.2460
     99  O          3.7500   -8.7240  -13.6220 O.2    75  THR75      -0.2732
    100  CB         2.9840   -5.5190  -13.0050 C.3    75  THR75       0.1783
    101  OG1        1.8940   -5.3180  -13.9270 O.3    75  THR75      -0.2211
    102  CG2        4.3460   -5.3970  -13.7360 C.3    75  THR75       0.0376
    103  N          1.5020   -8.4230  -13.6870 N.am   76  PRO76      -0.2717
    104  CA         1.3610   -9.4100  -14.7530 C.3    76  PRO76       0.1535
    105  C          1.8200   -8.9240  -16.0970 C.2    76  PRO76       0.2598
    106  O          2.1090   -9.7200  -16.9740 O.2    76  PRO76      -0.2715
    107  CB        -0.1520   -9.6670  -14.8020 C.3    76  PRO76       0.0310
    108  CG        -0.7830   -8.5430  -14.0730 C.3    76  PRO76       0.0237
    109  CD         0.2130   -7.9050  -13.1930 C.3    76  PRO76       0.0939
    110  N          1.8830   -7.6010  -16.2490 N.am   77  VAL77      -0.1978
    111  CA         2.1620   -6.9770  -17.5220 C.3    77  VAL77       0.1596
    112  C          2.9940   -5.7210  -17.2980 C.2    77  VAL77       0.2287
    113  O          2.6480   -4.9520  -16.4120 O.2    77  VAL77      -0.2864
    114  CB         0.7940   -6.5100  -18.1520 C.3    77  VAL77       0.0276
    115  CG1        1.0530   -5.7060  -19.3960 C.3    77  VAL77       0.0022
    116  CG2       -0.0750   -7.7090  -18.4470 C.3    77  VAL77       0.0022
    117  N          3.6790   -2.0650  -17.9260 N.3    79  ILE79      -0.1245
    118  CA         2.7830   -1.0450  -18.4070 C.3    79  ILE79       0.1561
    119  C          3.4740    0.3050  -18.4710 C.2    79  ILE79       0.2260
    120  O          4.2340    0.6950  -17.5570 O.2    79  ILE79      -0.2867
    121  CB         1.4410   -0.9430  -17.5770 C.3    79  ILE79       0.0252
    122  CG1        1.6620   -0.5730  -16.1430 C.3    79  ILE79       0.0019
    123  CG2        0.6430   -2.2600  -17.6930 C.3    79  ILE79       0.0019
    124  CD1        0.2600   -0.4350  -15.2830 C.3    79  ILE79       0.0001
    125  N          0.7550    7.1570  -17.9500 N.3    82  ARG82      -0.1245
    126  CA         0.6780    8.5240  -18.4760 C.3    82  ARG82       0.1563
    127  C          1.8880    9.3930  -18.2570 C.2    82  ARG82       0.2260
    128  O          2.1350   10.3540  -19.0370 O.2    82  ARG82      -0.2867
    129  CB        -0.5860    9.2220  -17.9440 C.3    82  ARG82       0.0307
    130  CG        -1.8360    8.6330  -18.4840 C.3    82  ARG82       0.0489
    131  CD        -3.0650    9.4250  -18.0410 C.3    82  ARG82       0.2205
    132  NE        -3.2100    9.4530  -16.6090 N.pl3  82  ARG82      -0.0865
    133  CZ        -2.8660   10.4660  -15.8130 C.cat  82  ARG82       0.5346
    134  NH1       -2.3010   11.5420  -16.2920 N.pl3  82  ARG82       0.1354
    135  NH2       -3.0190   10.3550  -14.4870 N.pl3  82  ARG82       0.1354
@<TRIPOS>BOND
     1     4     3    2
     2     1     2    1
     3     3     2    1
     4     2     5    1
     5     5     6    1
     6     6     7    1
     7     8     7    1
     8     8     9    2
     9    11     9    1
    10     9    10    1
    11    18    17    1
    12    13    14    1
    13    13    12    1
    14    13    16    1
    15    14    15    2
    16    17    16    1
    17    17    19    1
    18    20    21    1
    19    21    22    1
    20    21    24    1
    21    22    23    2
    22    24    25    1
    23   115   114    1
    24   128   127    2
    25    26    25   ar
    26    28    29    1
    27    25    27   ar
    28   130   131    1
    29   130   129    1
    30   126   127    1
    31   126   125    1
    32   126   129    1
    33   119   118    1
    34   119   120    2
    35   116   114    1
    36   118   117    1
    37   118   121    1
    38   114   111    1
    39   131   132    1
    40   123   121    1
    41   121   122    1
    42   111   112    1
    43   111   110    1
    44    29    30    1
    45   112   113    2
    46   106   105    2
    47   132   133    2
    48    32    30   am
    49    32    33    1
    50    35    34    2
    51   134   133    1
    52    30    31    2
    53   110   105   am
    54   122   124    1
    55   105   104    1
    56   133   135    1
    57    36    33    1
    58    56    55    2
    59    33    34    1
    60    34    37   am
    61    48    47    2
    62   107   104    1
    63   107   108    1
    64   104   103    1
    65    53    54    1
    66    40    39    2
    67    55    54    1
    68    47    46    1
    69    37    38    1
    70    39    38    1
    71    39    45   am
    72   108   109    1
    73   101   100    1
    74    38    41    1
    75    45    46    1
    76    54    57    1
    77   102   100    1
    78   103    98   am
    79   103   109    1
    80    99    98    2
    81    46    49    1
    82    98    97    1
    83    57    59    1
    84    57    58    1
    85   100    97    1
    86    43    42   ar
    87    41    42    1
    88    97    96    1
    89    49    50    1
    90    42    44   ar
    91    51    50   ar
    92    50    52   ar
    93    82    83    1
    94    82    81    1
    95    83    84    2
    96    76    74    1
    97    80    79    2
    98    81    79   am
    99    79    78    1
   100    74    73    1
   101    73    75    1
   102    73    70    1
   103    78    77    1
   104    77    71   am
   105    67    66    1
   106    67    68    1
   107    66    65    1
   108    71    70    1
   109    71    72    2
   110    70    69    1
   111    65    64    1
   112    85    86    1
   113    87    86    1
   114    87    88    2
   115    86    89    1
   116    64    61    1
   117    94    92   ar
   118    94    95   ar
   119    92    90   ar
   120    63    62    2
   121    95    93   ar
   122    90    89    1
   123    90    91   ar
   124    62    61    1
   125    61    60    1
   126    93    91   ar
