@<TRIPOS>MOLECULE
tmp/3nwyB00.pdb
 83 79 0 0 0
SMALL
GASTEIGER

@<TRIPOS>ATOM
      1  N         72.0760   32.6430   56.4160 N.3    98  ARG98      -0.1245
      2  CA        72.7110   32.7320   55.1150 C.3    98  ARG98       0.1563
      3  C         71.6800   32.6330   53.9950 C.2    98  ARG98       0.2260
      4  O         70.7760   31.7950   54.0270 O.2    98  ARG98      -0.2867
      5  CB        73.7430   31.6200   54.9890 C.3    98  ARG98       0.0307
      6  CG        74.8380   31.6790   56.0380 C.3    98  ARG98       0.0489
      7  CD        75.6040   33.0120   55.9640 C.3    98  ARG98       0.2205
      8  NE        76.6120   33.1190   57.0050 N.pl3  98  ARG98      -0.0865
      9  CZ        77.7950   32.5260   56.9570 C.cat  98  ARG98       0.5346
     10  NH1       78.1450   31.7960   55.8990 N.pl3  98  ARG98       0.1354
     11  NH2       78.6440   32.6700   57.9700 N.pl3  98  ARG98       0.1354
     12  N         76.4410   37.6010   42.7560 N.3   106  GLY106     -0.1210
     13  CA        77.6950   37.5270   43.5320 C.3   106  GLY106      0.1956
     14  C         77.8110   38.3430   44.8050 C.2   106  GLY106      0.2612
     15  O         77.9140   37.7990   45.9050 O.2   106  GLY106     -0.2717
     16  N         77.8050   39.6590   44.6330 N.am  107  GLN107     -0.1965
     17  CA        77.9900   40.6100   45.7340 C.3   107  GLN107      0.1733
     18  C         76.8970   40.5130   46.8070 C.2   107  GLN107      0.2616
     19  O         77.1580   40.7700   47.9880 O.2   107  GLN107     -0.2715
     20  CB        78.0140   42.0530   45.1820 C.3   107  GLN107      0.0408
     21  CG        79.1480   42.3920   44.1640 C.3   107  GLN107      0.0908
     22  CD        78.7790   42.1150   42.7010 C.2   107  GLN107      0.2608
     23  OE1       78.2360   41.0590   42.3700 O.2   107  GLN107     -0.2717
     24  NE2       79.0950   43.0610   41.8210 N.am  107  GLN107     -0.0878
     25  N         75.6830   40.1420   46.3770 N.am  108  VAL108     -0.1963
     26  CA        74.4490   40.2640   47.1690 C.3   108  VAL108      0.1727
     27  C         74.2150   39.1200   48.1620 C.2   108  VAL108      0.2616
     28  O         73.6540   39.3330   49.2390 O.2   108  VAL108     -0.2715
     29  CB        73.2200   40.3330   46.2270 C.3   108  VAL108      0.0290
     30  CG1       71.9160   40.4950   47.0230 C.3   108  VAL108      0.0023
     31  CG2       73.4030   41.4440   45.1800 C.3   108  VAL108      0.0023
     32  N         74.6210   37.9110   47.7900 N.am  109  ALA109     -0.1963
     33  CA        74.4210   36.7220   48.6210 C.3   109  ALA109      0.1728
     34  C         75.2970   35.5700   48.1310 C.2   109  ALA109      0.2616
     35  O         76.1470   35.7690   47.2870 O.2   109  ALA109     -0.2715
     36  CB        72.9530   36.3210   48.6120 C.3   109  ALA109      0.0334
     37  N         75.0850   34.3740   48.6610 N.am  110  GLU110     -0.1964
     38  CA        75.8470   33.2010   48.2610 C.3   110  GLU110      0.1718
     39  C         75.1840   32.5270   47.0660 C.2   110  GLU110      0.2458
     40  O         73.9580   32.6230   46.8730 O.2   110  GLU110     -0.2730
     41  CB        75.8960   32.1670   49.3930 C.3   110  GLU110      0.0428
     42  CG        76.7390   32.4950   50.6340 C.3   110  GLU110      0.1163
     43  CD        76.7430   31.3390   51.6400 C.2   110  GLU110      0.3649
     44  OE1       75.9780   30.3610   51.4370 O.co2 110  GLU110     -0.2457
     45  OE2       77.5180   31.3970   52.6270 O.co2 110  GLU110     -0.2457
     46  N         75.9720   31.8070   46.2670 N.am  111  PRO111     -0.2727
     47  CA        75.3190   31.0530   45.2200 C.3   111  PRO111      0.1402
     48  C         74.5580   29.9030   45.8390 C.2   111  PRO111      0.2269
     49  O         74.7260   29.6250   47.0290 O.2   111  PRO111     -0.2865
     50  CB        76.4810   30.5080   44.3720 C.3   111  PRO111      0.0296
     51  CG        77.7050   31.1800   44.8850 C.3   111  PRO111      0.0237
     52  CD        77.4190   31.5820   46.2880 C.3   111  PRO111      0.0939
     53  N         76.6370   22.8260   50.8280 N.3   116  ARG116     -0.1245
     54  CA        77.0090   23.9300   51.7050 C.3   116  ARG116      0.1563
     55  C         75.8130   24.4540   52.5420 C.2   116  ARG116      0.2260
     56  O         75.9960   24.8680   53.6860 O.2   116  ARG116     -0.2867
     57  CB        77.6200   25.0430   50.8520 C.3   116  ARG116      0.0307
     58  CG        78.2730   26.1630   51.6130 C.3   116  ARG116      0.0489
     59  CD        79.3220   26.9030   50.7540 C.3   116  ARG116      0.2205
     60  NE        79.5840   28.2270   51.3060 N.pl3 116  ARG116     -0.0865
     61  CZ        80.3240   28.4650   52.3840 C.cat 116  ARG116      0.5346
     62  NH1       80.9110   27.4700   53.0460 N.pl3 116  ARG116      0.1354
     63  NH2       80.4780   29.7120   52.8090 N.pl3 116  ARG116      0.1354
     64  N         75.4660   23.6480   61.3790 N.3   123  LYS123     -0.1245
     65  CA        76.1130   24.6120   62.2810 C.3   123  LYS123      0.1561
     66  C         75.1100   25.4930   63.0400 C.2   123  LYS123      0.2260
     67  O         75.5080   26.3810   63.7860 O.2   123  LYS123     -0.2867
     68  CB        77.0580   25.5210   61.4880 C.3   123  LYS123      0.0271
     69  CG        78.2500   24.8280   60.8290 C.3   123  LYS123      0.0035
     70  CD        78.8900   25.7750   59.8130 C.3   123  LYS123      0.0206
     71  CE        80.3510   25.4620   59.5350 C.3   123  LYS123      0.1093
     72  NZ        80.9400   26.3830   58.5030 N.3   123  LYS123     -0.1314
     73  N         72.7770   27.5110   61.6120 N.3   125  ARG125     -0.1245
     74  CA        72.5060   28.7620   60.9000 C.3   125  ARG125      0.1563
     75  C         71.2240   28.5320   60.1280 C.2   125  ARG125      0.2260
     76  O         71.0130   27.4150   59.6610 O.2   125  ARG125     -0.2867
     77  CB        73.6650   29.1160   59.9450 C.3   125  ARG125      0.0307
     78  CG        75.0370   28.5280   60.3530 C.3   125  ARG125      0.0489
     79  CD        76.2110   29.4900   60.2080 C.3   125  ARG125      0.2205
     80  NE        77.1540   29.1460   59.1430 N.pl3 125  ARG125     -0.0865
     81  CZ        78.4520   29.4680   59.1310 C.cat 125  ARG125      0.5346
     82  NH1       79.0050   30.1220   60.1360 N.pl3 125  ARG125      0.1354
     83  NH2       79.2110   29.1200   58.0970 N.pl3 125  ARG125      0.1354
@<TRIPOS>BOND
     1    24    22   am
     2    23    22    2
     3    22    21    1
     4    12    13    1
     5    13    14    1
     6    21    20    1
     7    50    51    1
     8    50    47    1
     9    16    14   am
    10    16    17    1
    11    14    15    2
    12    51    52    1
    13    31    29    1
    14    20    17    1
    15    47    48    1
    16    47    46    1
    17    17    18    1
    18    48    49    2
    19    29    30    1
    20    29    26    1
    21    46    52    1
    22    46    39   am
    23    25    18   am
    24    25    26    1
    25    18    19    2
    26    40    39    2
    27    39    38    1
    28    26    27    1
    29    35    34    2
    30    32    27   am
    31    32    33    1
    32    34    33    1
    33    34    37   am
    34    27    28    2
    35    38    37    1
    36    38    41    1
    37    36    33    1
    38    41    42    1
    39    42    43    1
    40    59    60    1
    41    59    58    1
    42    53    54    1
    43    57    58    1
    44    57    54    1
    45    60    61    2
    46    44    43   ar
    47    43    45   ar
    48    54    55    1
    49    61    63    1
    50    61    62    1
    51    55    56    2
    52     3     4    2
    53     3     2    1
    54     5     2    1
    55     5     6    1
    56     2     1    1
    57    10     9    1
    58     7     6    1
    59     7     8    1
    60     9     8    2
    61     9    11    1
    62    83    81    1
    63    72    71    1
    64    81    80    2
    65    81    82    1
    66    80    79    1
    67    71    70    1
    68    76    75    2
    69    70    69    1
    70    77    78    1
    71    77    74    1
    72    75    74    1
    73    79    78    1
    74    69    68    1
    75    74    73    1
    76    64    65    1
    77    68    65    1
    78    65    66    1
    79    66    67    2
