@<TRIPOS>MOLECULE
tmp/3nwyB01.pdb
 183 175 0 0 0
SMALL
GASTEIGER

@<TRIPOS>ATOM
      1  N         58.0180   27.1440   53.9630 N.3    11  LYS11      -0.1245
      2  CA        57.6070   28.0160   52.8810 C.3    11  LYS11       0.1561
      3  C         56.7130   29.1430   53.3890 C.2    11  LYS11       0.2260
      4  O         55.6480   28.9010   53.9670 O.2    11  LYS11      -0.2867
      5  CB        56.9200   27.2490   51.7670 C.3    11  LYS11       0.0271
      6  CG        56.9280   28.0470   50.4690 C.3    11  LYS11       0.0035
      7  CD        55.6390   28.7920   50.2540 C.3    11  LYS11       0.0206
      8  CE        55.7760   29.8310   49.1730 C.3    11  LYS11       0.1093
      9  NZ        54.4200   30.4300   48.8790 N.3    11  LYS11      -0.1314
     10  N         54.7390   32.6960   52.2840 N.3    13  GLY13      -0.1210
     11  CA        54.2250   33.4790   51.1710 C.3    13  GLY13       0.1956
     12  C         54.7320   34.9110   51.2440 C.2    13  GLY13       0.2612
     13  O         54.9050   35.4680   52.3320 O.2    13  GLY13      -0.2717
     14  N         54.9670   35.5140   50.0900 N.am   14  GLY14      -0.1942
     15  CA        55.4160   36.9020   50.0360 C.3    14  GLY14       0.2014
     16  C         54.3440   37.9470   50.3210 C.2    14  GLY14       0.2638
     17  O         54.6520   39.0380   50.7780 O.2    14  GLY14      -0.2714
     18  N         53.0840   37.6450   50.0400 N.am   15  GLU15      -0.1977
     19  CA        52.0250   38.6080   50.3140 C.3    15  GLU15       0.1602
     20  C         51.9330   38.9060   51.8010 C.2    15  GLU15       0.2287
     21  O         51.5720   40.0120   52.2090 O.2    15  GLU15      -0.2864
     22  CB        50.6790   38.0820   49.8520 C.3    15  GLU15       0.0415
     23  CG        50.5840   37.8620   48.3590 C.3    15  GLU15       0.1163
     24  CD        49.1560   37.9390   47.8850 C.2    15  GLU15       0.3649
     25  OE1       48.6050   36.8870   47.4760 O.co2  15  GLU15      -0.2457
     26  OE2       48.5820   39.0530   47.9570 O.co2  15  GLU15      -0.2457
     27  N         58.0530   33.7190   49.2410 N.3    51  GLY51      -0.1210
     28  CA        57.3750   34.0560   48.0070 C.3    51  GLY51       0.1956
     29  C         57.6660   35.4730   47.5960 C.2    51  GLY51       0.2612
     30  O         58.4940   36.1260   48.2190 O.2    51  GLY51      -0.2717
     31  N         56.9830   35.9440   46.5480 N.am   52  GLY52      -0.1942
     32  CA        57.2230   37.2920   46.0140 C.3    52  GLY52       0.2014
     33  C         56.0030   38.1190   45.6590 C.2    52  GLY52       0.2639
     34  O         56.1340   39.1570   45.0160 O.2    52  GLY52      -0.2714
     35  N         54.8260   37.6740   46.0950 N.am   53  GLY53      -0.1954
     36  CA        53.5580   38.3500   45.7850 C.3    53  GLY53       0.1869
     37  C         53.4590   39.8180   46.2020 C.2    53  GLY53       0.2309
     38  O         52.7300   40.5830   45.5710 O.2    53  GLY53      -0.2863
     39  N         55.9690   41.1230   42.7910 N.3    56  PHE56      -0.1227
     40  CA        55.3230   40.5390   41.6050 C.3    56  PHE56       0.1736
     41  C         55.2160   39.0300   41.6470 C.2    56  PHE56       0.2595
     42  O         56.0940   38.3290   42.1300 O.2    56  PHE56      -0.2718
     43  CB        56.0470   40.8870   40.2960 C.3    56  PHE56       0.0547
     44  CG        56.6370   42.2380   40.2820 C.ar   56  PHE56      -0.0202
     45  CD1       57.9040   42.4440   40.8010 C.ar   56  PHE56      -0.0042
     46  CD2       55.9250   43.3160   39.7750 C.ar   56  PHE56      -0.0042
     47  CE1       58.4540   43.6940   40.8110 C.ar   56  PHE56      -0.0003
     48  CE2       56.4680   44.5810   39.7810 C.ar   56  PHE56      -0.0003
     49  CZ        57.7390   44.7720   40.3020 C.ar   56  PHE56      -0.0000
     50  N         54.0650   38.5780   41.1860 N.am   57  ARG57      -0.1966
     51  CA        53.9420   37.4330   40.3030 C.3    57  ARG57       0.1729
     52  C         53.8000   38.2340   39.0160 C.2    57  ARG57       0.2617
     53  O         53.5390   39.4350   39.1030 O.2    57  ARG57      -0.2715
     54  CB        52.6730   36.6330   40.6130 C.3    57  ARG57       0.0348
     55  CG        52.3140   36.6080   42.0870 C.3    57  ARG57       0.0492
     56  CD        51.2820   35.5590   42.3920 C.3    57  ARG57       0.2205
     57  NE        51.3800   35.1150   43.7790 N.pl3  57  ARG57      -0.0865
     58  CZ        50.8940   35.7740   44.8220 C.cat  57  ARG57       0.5346
     59  NH1       51.0480   35.2680   46.0400 N.pl3  57  ARG57       0.1354
     60  NH2       50.2640   36.9330   44.6560 N.pl3  57  ARG57       0.1354
     61  N         53.9130   37.6540   37.8310 N.am   58  GLY58      -0.1940
     62  CA        53.8870   36.2260   37.5600 C.3    58  GLY58       0.2014
     63  C         53.9600   36.1700   36.0350 C.2    58  GLY58       0.2638
     64  O         54.8470   36.8170   35.4880 O.2    58  GLY58      -0.2714
     65  N         53.0610   35.5100   35.2940 N.am   59  ALA59      -0.1977
     66  CA        51.7560   34.9570   35.6990 C.3    59  ALA59       0.1597
     67  C         50.7180   36.0850   35.7470 C.2    59  ALA59       0.2287
     68  O         49.8820   36.2000   34.8340 O.2    59  ALA59      -0.2864
     69  CB        51.8250   34.1870   36.9910 C.3    59  ALA59       0.0319
     70  N         56.2280   37.0500   29.8540 N.3    68  ARG68      -0.1245
     71  CA        56.2080   36.1360   30.9900 C.3    68  ARG68       0.1563
     72  C         57.5800   35.9450   31.6470 C.2    68  ARG68       0.2260
     73  O         57.7510   36.1650   32.8460 O.2    68  ARG68      -0.2867
     74  CB        55.6500   34.7900   30.5240 C.3    68  ARG68       0.0307
     75  CG        55.5190   33.7220   31.5760 C.3    68  ARG68       0.0489
     76  CD        54.7860   34.1810   32.8030 C.3    68  ARG68       0.2205
     77  NE        54.9010   33.1960   33.8650 N.pl3  68  ARG68      -0.0865
     78  CZ        54.0730   32.1740   34.0560 C.cat  68  ARG68       0.5346
     79  NH1       54.2920   31.3430   35.0560 N.pl3  68  ARG68       0.1354
     80  NH2       53.0280   31.9670   33.2620 N.pl3  68  ARG68       0.1354
     81  N         58.8180   38.7970   33.4530 N.3    71  SER71      -0.1202
     82  CA        57.9760   39.0610   34.6000 C.3    71  SER71       0.2020
     83  C         58.2800   38.0880   35.7180 C.2    71  SER71       0.2618
     84  O         58.1920   38.4420   36.8820 O.2    71  SER71      -0.2717
     85  CB        56.5140   38.9840   34.1970 C.3    71  SER71       0.2103
     86  OG        56.2340   39.8670   33.1220 O.3    71  SER71      -0.2182
     87  N         58.6580   36.8670   35.3580 N.am   72  ASP72      -0.1973
     88  CA        59.0310   35.8440   36.3350 C.3    72  ASP72       0.1709
     89  C         60.2720   36.2380   37.0780 C.2    72  ASP72       0.2293
     90  O         60.3660   36.0060   38.2790 O.2    72  ASP72      -0.2864
     91  CB        59.2870   34.5000   35.6670 C.3    72  ASP72       0.1436
     92  CG        58.0200   33.6990   35.4410 C.2    72  ASP72       0.3671
     93  OD1       57.0340   33.8770   36.1810 O.co2  72  ASP72      -0.2456
     94  OD2       58.0230   32.8650   34.5170 O.co2  72  ASP72      -0.2456
     95  N         59.5340   38.8070   39.6950 N.3    75  GLY75      -0.1210
     96  CA        59.0500   38.0730   40.8410 C.3    75  GLY75       0.1956
     97  C         60.1620   37.4330   41.6500 C.2    75  GLY75       0.2611
     98  O         60.1340   37.5080   42.8720 O.2    75  GLY75      -0.2717
     99  N         61.1260   36.8050   40.9710 N.am   76  MET76      -0.1979
    100  CA        62.2840   36.1900   41.6380 C.3    76  MET76       0.1605
    101  C         63.1760   37.2610   42.3080 C.2    76  MET76       0.2287
    102  O         63.6860   37.0590   43.4050 O.2    76  MET76      -0.2864
    103  CB        63.1050   35.3210   40.6640 C.3    76  MET76       0.0413
    104  CG        62.4000   34.0340   40.1860 C.3    76  MET76       0.0598
    105  SD        63.3420   33.0070   38.9940 S.3    76  MET76      -0.1393
    106  CE        62.4190   33.1750   37.4840 C.3    76  MET76       0.0692
    107  N         61.5500   38.1650   45.5280 N.3    79  THR79      -0.1218
    108  CA        61.8140   37.1890   46.5860 C.3    79  THR79       0.1862
    109  C         63.1950   37.3530   47.2320 C.2    79  THR79       0.2287
    110  O         63.4170   36.8400   48.3410 O.2    79  THR79      -0.2866
    111  CB        61.7120   35.7250   46.0830 C.3    79  THR79       0.1770
    112  OG1       62.8450   35.4120   45.2550 O.3    79  THR79      -0.2211
    113  CG2       60.4110   35.4920   45.3240 C.3    79  THR79       0.0375
    114  N         63.8730   31.9440   43.8880 N.3   132  GLY132     -0.1210
    115  CA        63.1810   30.7420   43.4970 C.3   132  GLY132      0.1956
    116  C         64.1490   29.6170   43.2120 C.2   132  GLY132      0.2612
    117  O         65.1330   29.4100   43.9480 O.2   132  GLY132     -0.2717
    118  N         63.8560   28.8850   42.1400 N.am  133  MET133     -0.1965
    119  CA        64.8240   27.9830   41.5250 C.3   133  MET133      0.1736
    120  C         65.5610   28.6590   40.3630 C.2   133  MET133      0.2617
    121  O         66.4550   28.0670   39.7690 O.2   133  MET133     -0.2715
    122  CB        64.1100   26.7310   41.0210 C.3   133  MET133      0.0427
    123  CG        63.4040   26.0020   42.1100 C.3   133  MET133      0.0599
    124  SD        62.6060   24.5500   41.4830 S.3   133  MET133     -0.1393
    125  CE        61.0930   25.2590   40.8180 C.3   133  MET133      0.0692
    126  N         65.1840   29.8930   40.0410 N.am  134  GLY134     -0.1940
    127  CA        65.7970   30.6180   38.9270 C.3   134  GLY134      0.2014
    128  C         65.1950   30.2980   37.5680 C.2   134  GLY134      0.2639
    129  O         65.6870   30.7780   36.5540 O.2   134  GLY134     -0.2714
    130  N         64.0970   29.5410   37.5650 N.am  135  LEU135     -0.1963
    131  CA        63.4870   28.9650   36.3720 C.3   135  LEU135      0.1713
    132  C         62.0730   29.4910   36.1980 C.2   135  LEU135      0.2458
    133  O         61.1800   29.1730   36.9950 O.2   135  LEU135     -0.2730
    134  CB        63.4110   27.4370   36.5230 C.3   135  LEU135      0.0310
    135  CG        64.7430   26.7010   36.7520 C.3   135  LEU135      0.0022
    136  CD1       64.5540   25.3050   37.3280 C.3   135  LEU135      0.0001
    137  CD2       65.5240   26.6400   35.4490 C.3   135  LEU135      0.0001
    138  N         61.8400   30.2750   35.1400 N.am  136  PRO136     -0.2727
    139  CA        60.5090   30.7640   34.7960 C.3   136  PRO136      0.1402
    140  C         59.5100   29.6450   34.5860 C.2   136  PRO136      0.2269
    141  O         59.9100   28.4980   34.3370 O.2   136  PRO136     -0.2865
    142  CB        60.7410   31.4720   33.4740 C.3   136  PRO136      0.0296
    143  CG        62.1590   31.7930   33.4650 C.3   136  PRO136      0.0237
    144  CD        62.8510   30.7130   34.1690 C.3   136  PRO136      0.0939
    145  N         57.7660   28.4240   36.8700 N.3   138  PHE138     -0.1227
    146  CA        57.6630   27.7590   38.1840 C.3   138  PHE138      0.1736
    147  C         57.3170   28.7470   39.3110 C.2   138  PHE138      0.2596
    148  O         57.5600   29.9550   39.1970 O.2   138  PHE138     -0.2718
    149  CB        58.9760   27.0690   38.5370 C.3   138  PHE138      0.0547
    150  CG        59.2200   25.8160   37.7700 C.ar  138  PHE138     -0.0202
    151  CD1       60.3400   25.6810   36.9850 C.ar  138  PHE138     -0.0042
    152  CD2       58.3350   24.7650   37.8420 C.ar  138  PHE138     -0.0042
    153  CE1       60.5730   24.5340   36.2890 C.ar  138  PHE138     -0.0003
    154  CE2       58.5650   23.6030   37.1250 C.ar  138  PHE138     -0.0003
    155  CZ        59.6860   23.4930   36.3520 C.ar  138  PHE138     -0.0000
    156  N         56.7820   28.2030   40.3980 N.am  139  SER139     -0.1938
    157  CA        56.3950   28.9800   41.5590 C.3   139  SER139      0.2055
    158  C         57.2600   28.6290   42.7310 C.2   139  SER139      0.2644
    159  O         57.9670   27.6190   42.7150 O.2   139  SER139     -0.2714
    160  CB        54.9720   28.6420   41.9570 C.3   139  SER139      0.2130
    161  OG        54.9290   27.3980   42.6520 O.3   139  SER139     -0.2179
    162  N         57.1240   29.4300   43.7840 N.am  140  THR140     -0.1936
    163  CA        57.9030   29.2710   45.0170 C.3   140  THR140      0.2028
    164  C         57.5490   27.9840   45.7670 C.2   140  THR140      0.2642
    165  O         58.3900   27.4120   46.4620 O.2   140  THR140     -0.2714
    166  CB        57.7190   30.4970   45.9500 C.3   140  THR140      0.1808
    167  OG1       58.0900   31.6990   45.2480 O.3   140  THR140     -0.2208
    168  CG2       58.5880   30.3800   47.1840 C.3   140  THR140      0.0379
    169  N         56.3070   27.5350   45.6290 N.am  141  ASP141     -0.1971
    170  CA        55.8790   26.2580   46.1880 C.3   141  ASP141      0.1709
    171  C         56.6550   25.0990   45.5690 C.2   141  ASP141      0.2293
    172  O         57.0120   24.1400   46.2440 O.2   141  ASP141     -0.2864
    173  CB        54.3840   26.0420   45.9350 C.3   141  ASP141      0.1436
    174  CG        53.5010   26.8780   46.8560 C.2   141  ASP141      0.3671
    175  OD1       52.2880   26.5740   46.9590 O.co2 141  ASP141     -0.2456
    176  OD2       54.0260   27.8300   47.4760 O.co2 141  ASP141     -0.2456
    177  N         59.6170   25.5070   44.2230 N.3   143  THR143     -0.1218
    178  CA        60.9320   25.7420   44.7960 C.3   143  THR143      0.1862
    179  C         61.0260   25.0430   46.1470 C.2   143  THR143      0.2287
    180  O         61.9740   24.3110   46.4130 O.2   143  THR143     -0.2866
    181  CB        61.2100   27.2480   45.0160 C.3   143  THR143      0.1770
    182  OG1       61.1380   27.9630   43.7680 O.3   143  THR143     -0.2211
    183  CG2       62.5750   27.4380   45.6500 C.3   143  THR143      0.0375
@<TRIPOS>BOND
     1    70    71    1
     2    74    71    1
     3    74    75    1
     4    71    72    1
     5    75    76    1
     6    72    73    2
     7    76    77    1
     8    86    85    1
     9    80    78    1
    10    81    82    1
    11   143   142    1
    12   143   144    1
    13   142   139    1
    14    77    78    2
    15    78    79    1
    16   144   138    1
    17    85    82    1
    18   141   140    2
    19    94    92   ar
    20   140   139    1
    21    82    83    1
    22   139   138    1
    23    68    67    2
    24   138   132   am
    25    65    66    1
    26    65    63   am
    27    87    83   am
    28    87    88    1
    29    92    91    1
    30    92    93   ar
    31   137   135    1
    32    64    63    2
    33    91    88    1
    34    66    67    1
    35    66    69    1
    36    83    84    2
    37    63    62    1
    38   132   131    1
    39   132   133    2
    40   153   155   ar
    41   153   151   ar
    42    88    89    1
    43   155   154   ar
    44   131   134    1
    45   131   130    1
    46   134   135    1
    47   129   128    2
    48   135   136    1
    49   145   146    1
    50   151   150   ar
    51    89    90    2
    52   154   152   ar
    53   106   105    1
    54    62    61    1
    55   130   128   am
    56   128   127    1
    57   150   152   ar
    58   150   149    1
    59    61    52   am
    60   146   149    1
    61   146   147    1
    62   127   126    1
    63   105   104    1
    64    52    53    2
    65    52    51    1
    66   148   147    2
    67   147   156   am
    68    95    96    1
    69   121   120    2
    70    46    48   ar
    71    46    44   ar
    72    48    49   ar
    73   126   120   am
    74   104   103    1
    75    44    43    1
    76    44    45   ar
    77    43    40    1
    78    49    47   ar
    79    51    54    1
    80    51    50    1
    81   120   119    1
    82   156   157    1
    83    54    55    1
    84   103   100    1
    85    45    47   ar
    86   125   124    1
    87    96    97    1
    88    99   100    1
    89    99    97   am
    90   122   119    1
    91   122   123    1
    92    50    41   am
    93   124   123    1
    94   119   118    1
    95   157   160    1
    96   157   158    1
    97    40    41    1
    98    40    39    1
    99   100   101    1
   100    41    42    2
   101    97    98    2
   102   160   161    1
   103    55    56    1
   104   118   116   am
   105   101   102    2
   106    56    57    1
   107   159   158    2
   108   158   162   am
   109   116   115    1
   110   116   117    2
   111   115   114    1
   112   182   181    1
   113    57    58    2
   114   162   163    1
   115   177   178    1
   116    60    58    1
   117   178   181    1
   118   178   179    1
   119    58    59    1
   120   181   183    1
   121    34    33    2
   122   163   164    1
   123   163   166    1
   124   167   166    1
   125   112   111    1
   126   113   111    1
   127   107   108    1
   128   171   170    1
   129   171   172    2
   130    38    37    2
   131   169   164   am
   132   169   170    1
   133    33    32    1
   134    33    35   am
   135   164   165    2
   136    36    35    1
   137    36    37    1
   138   173   170    1
   139   173   174    1
   140   166   168    1
   141    32    31    1
   142   111   108    1
   143   179   180    2
   144    31    29   am
   145   108   109    1
   146   174   175   ar
   147   174   176   ar
   148   109   110    2
   149    25    24   ar
   150    29    28    1
   151    29    30    2
   152    24    26   ar
   153    24    23    1
   154    28    27    1
   155    23    22    1
   156     9     8    1
   157     8     7    1
   158    22    19    1
   159    15    14    1
   160    15    16    1
   161    18    19    1
   162    18    16   am
   163    14    12   am
   164     7     6    1
   165    19    20    1
   166    16    17    2
   167     6     5    1
   168    11    12    1
   169    11    10    1
   170    12    13    2
   171     5     2    1
   172    20    21    2
   173     2     3    1
   174     2     1    1
   175     3     4    2
