@<TRIPOS>MOLECULE
tmp/3nwzD00.pdb
 90 87 0 0 0
SMALL
GASTEIGER

@<TRIPOS>ATOM
      1  N         25.5140   15.4550   18.9720 N.3    53  ASN53      -0.1240
      2  CA        26.9410   15.6830   18.7760 C.3    53  ASN53       0.1653
      3  C         27.5840   14.3080   18.5810 C.2    53  ASN53       0.2266
      4  O         26.8970   13.2830   18.5950 O.2    53  ASN53      -0.2867
      5  CB        27.5500   16.3670   20.0070 C.3    53  ASN53       0.1155
      6  CG        27.3350   15.5720   21.2970 C.2    53  ASN53       0.2627
      7  OD1       27.0030   14.3790   21.2720 O.2    53  ASN53      -0.2716
      8  ND2       27.5400   16.2340   22.4360 N.am   53  ASN53      -0.0877
      9  N         29.0220   12.5170   20.5610 N.3    55  LEU55      -0.1245
     10  CA        28.8250   11.6810   21.7440 C.3    55  LEU55       0.1561
     11  C         27.3850   11.2010   21.9640 C.2    55  LEU55       0.2260
     12  O         26.9740   10.9610   23.1010 O.2    55  LEU55      -0.2867
     13  CB        29.3320   12.4100   23.0060 C.3    55  LEU55       0.0270
     14  CG        30.8510   12.5330   23.2540 C.3    55  LEU55       0.0019
     15  CD1       31.5050   13.4020   22.1790 C.3    55  LEU55       0.0001
     16  CD2       31.0980   13.1330   24.6350 C.3    55  LEU55       0.0001
     17  N         22.1410   15.2950   22.7290 N.3    57  VAL57      -0.1231
     18  CA        21.7570   16.5660   22.1210 C.3    57  VAL57       0.1692
     19  C         22.9390   17.5290   22.1300 C.2    57  VAL57       0.2592
     20  O         23.5780   17.7470   23.1700 O.2    57  VAL57      -0.2718
     21  CB        20.5580   17.2160   22.8580 C.3    57  VAL57       0.0266
     22  CG1       20.2390   18.5930   22.2440 C.3    57  VAL57       0.0020
     23  CG2       19.3380   16.3040   22.7550 C.3    57  VAL57       0.0020
     24  N         23.2330   18.0920   20.9620 N.am   58  HIS58      -0.1962
     25  CA        24.3430   19.0240   20.8260 C.3    58  HIS58       0.1787
     26  C         24.1410   20.2570   21.7000 C.2    58  HIS58       0.2620
     27  O         23.0250   20.7720   21.8260 O.2    58  HIS58      -0.2715
     28  CB        24.5030   19.4430   19.3670 C.3    58  HIS58       0.0785
     29  CG        25.8100   20.1000   19.0760 C.ar   58  HIS58       0.0821
     30  ND1       26.1470   21.3370   19.5800 N.ar   58  HIS58      -0.2267
     31  CD2       26.8870   19.6710   18.3780 C.ar   58  HIS58       0.1154
     32  CE1       27.3770   21.6420   19.2070 C.ar   58  HIS58       0.1986
     33  NE2       27.8490   20.6470   18.4770 N.ar   58  HIS58      -0.2212
     34  N         25.2310   20.7260   22.2980 N.am   59  GLY59      -0.1954
     35  CA        25.1730   21.8860   23.1690 C.3    59  GLY59       0.1869
     36  C         24.6400   23.1330   22.5000 C.2    59  GLY59       0.2309
     37  O         23.6530   23.7030   22.9590 O.2    59  GLY59      -0.2863
     38  N         20.9820   22.8930   22.5340 N.3    62  THR62      -0.1218
     39  CA        20.3080   23.1500   23.7940 C.3    62  THR62       0.1862
     40  C         20.2970   24.6360   24.1380 C.2    62  THR62       0.2287
     41  O         19.3660   25.1160   24.7960 O.2    62  THR62      -0.2866
     42  CB        20.9390   22.3730   24.9550 C.3    62  THR62       0.1770
     43  OG1       21.0150   20.9820   24.6140 O.3    62  THR62      -0.2211
     44  CG2       20.0800   22.5270   26.2100 C.3    62  THR62       0.0375
     45  N         24.7830   23.4760   31.6960 N.3    91  TYR91      -0.1227
     46  CA        24.3540   22.1830   31.1800 C.3    91  TYR91       0.1736
     47  C         24.4200   21.2530   32.3560 C.2    91  TYR91       0.2595
     48  O         25.4800   21.0650   32.9490 O.2    91  TYR91      -0.2718
     49  CB        25.2810   21.7210   30.0810 C.3    91  TYR91       0.0548
     50  CG        25.2030   22.6250   28.8920 C.ar   91  TYR91      -0.0200
     51  CD1       24.2230   22.4540   27.9310 C.ar   91  TYR91      -0.0009
     52  CD2       26.0900   23.6800   28.7500 C.ar   91  TYR91      -0.0009
     53  CE1       24.1260   23.3080   26.8480 C.ar   91  TYR91       0.0417
     54  CE2       25.9990   24.5400   27.6810 C.ar   91  TYR91       0.0417
     55  CZ        25.0170   24.3530   26.7300 C.ar   91  TYR91       0.1957
     56  OH        24.9360   25.2330   25.6770 O.3    91  TYR91      -0.2866
     57  N         23.2790   20.6700   32.6870 N.am   92  VAL92      -0.1966
     58  CA        23.1760   19.8010   33.8430 C.3    92  VAL92       0.1727
     59  C         23.1820   18.3070   33.5460 C.2    92  VAL92       0.2616
     60  O         23.8290   17.5360   34.2630 O.2    92  VAL92      -0.2715
     61  CB        21.9160   20.1960   34.6370 C.3    92  VAL92       0.0290
     62  CG1       21.5150   19.0990   35.5930 C.3    92  VAL92       0.0023
     63  CG2       22.1810   21.4940   35.3690 C.3    92  VAL92       0.0023
     64  N         22.4510   17.9030   32.5110 N.am   93  LYS93      -0.1964
     65  CA        22.3820   16.5000   32.1140 C.3    93  LYS93       0.1713
     66  C         22.3290   16.4460   30.5910 C.2    93  LYS93       0.2458
     67  O         21.7680   17.3280   29.9570 O.2    93  LYS93      -0.2730
     68  CB        21.1350   15.8230   32.6910 C.3    93  LYS93       0.0311
     69  CG        21.1220   15.7070   34.2070 C.3    93  LYS93       0.0038
     70  CD        19.7410   15.3100   34.7280 C.3    93  LYS93       0.0206
     71  CE        19.6490   15.4440   36.2490 C.3    93  LYS93       0.1093
     72  NZ        18.2470   15.3380   36.7430 N.3    93  LYS93      -0.1314
     73  N         22.9300   15.4100   29.9870 N.am   94  PRO94      -0.2716
     74  CA        22.9270   15.2850   28.5310 C.3    94  PRO94       0.1536
     75  C         21.5360   15.3870   27.9330 C.2    94  PRO94       0.2599
     76  O         20.5440   15.0290   28.5700 O.2    94  PRO94      -0.2715
     77  CB        23.5610   13.9140   28.3090 C.3    94  PRO94       0.0310
     78  CG        24.5690   13.8580   29.3990 C.3    94  PRO94       0.0237
     79  CD        23.7830   14.3700   30.5940 C.3    94  PRO94       0.0939
     80  N         21.4670   15.8980   26.7120 N.am   95  GLY95      -0.1955
     81  CA        20.1870   16.0050   26.0490 C.3    95  GLY95       0.1869
     82  C         19.8950   14.6300   25.4940 C.2    95  GLY95       0.2309
     83  O         20.3990   14.2720   24.4270 O.2    95  GLY95      -0.2863
     84  N         17.4850   19.3090   31.8500 N.3   127  VAL127     -0.1245
     85  CA        18.7090   19.2900   31.0570 C.3   127  VAL127      0.1561
     86  C         19.6030   20.5020   31.3010 C.2   127  VAL127      0.2260
     87  O         20.6320   20.3900   31.9600 O.2   127  VAL127     -0.2867
     88  CB        18.3830   19.1890   29.5460 C.3   127  VAL127      0.0252
     89  CG1       19.6180   19.4700   28.7160 C.3   127  VAL127      0.0019
     90  CG2       17.8770   17.8090   29.2270 C.3   127  VAL127      0.0019
@<TRIPOS>BOND
     1    31    33   ar
     2    31    29   ar
     3    33    32   ar
     4     3     4    2
     5     3     2    1
     6     2     1    1
     7     2     5    1
     8    29    28    1
     9    29    30   ar
    10    32    30   ar
    11    28    25    1
    12     5     6    1
    13     9    10    1
    14    25    24    1
    15    25    26    1
    16    24    19   am
    17     7     6    2
    18     6     8   am
    19    26    27    2
    20    26    34   am
    21    10    11    1
    22    10    13    1
    23    11    12    2
    24    18    19    1
    25    18    17    1
    26    18    21    1
    27    19    20    2
    28    15    14    1
    29    22    21    1
    30    34    35    1
    31    36    37    2
    32    36    35    1
    33    38    39    1
    34    23    21    1
    35    13    14    1
    36    14    16    1
    37    39    40    1
    38    39    42    1
    39    40    41    2
    40    83    82    2
    41    43    42    1
    42    42    44    1
    43    82    81    1
    44    56    55    1
    45    81    80    1
    46    80    75   am
    47    55    53   ar
    48    55    54   ar
    49    53    51   ar
    50    54    52   ar
    51    51    50   ar
    52    75    74    1
    53    75    76    2
    54    77    74    1
    55    77    78    1
    56    74    73    1
    57    89    88    1
    58    52    50   ar
    59    50    49    1
    60    90    88    1
    61    78    79    1
    62    88    85    1
    63    67    66    2
    64    73    66   am
    65    73    79    1
    66    49    46    1
    67    66    65    1
    68    85    86    1
    69    85    84    1
    70    46    45    1
    71    46    47    1
    72    86    87    2
    73    65    64    1
    74    65    68    1
    75    47    57   am
    76    47    48    2
    77    64    59   am
    78    57    58    1
    79    68    69    1
    80    59    58    1
    81    59    60    2
    82    58    61    1
    83    69    70    1
    84    61    63    1
    85    61    62    1
    86    70    71    1
    87    71    72    1
