@<TRIPOS>MOLECULE
tmp/3nwzB00.pdb
 91 89 0 0 0
SMALL
GASTEIGER

@<TRIPOS>ATOM
      1  N         31.1150   27.5590   21.0340 N.3    74  ASP74      -0.1239
      2  CA        31.1520   26.3240   21.7930 C.3    74  ASP74       0.1674
      3  C         32.0970   25.3270   21.1540 C.2    74  ASP74       0.2266
      4  O         32.8100   24.6090   21.8450 O.2    74  ASP74      -0.2867
      5  CB        29.7580   25.7120   21.9000 C.3    74  ASP74       0.1410
      6  CG        29.7780   24.3610   22.5780 C.2    74  ASP74       0.3668
      7  OD1       30.2870   24.2930   23.7150 O.co2  74  ASP74      -0.2456
      8  OD2       29.2960   23.3700   21.9840 O.co2  74  ASP74      -0.2456
      9  N         35.6480   15.9280   26.2610 N.3    89  ALA89      -0.1231
     10  CA        35.1050   16.8750   27.2280 C.3    89  ALA89       0.1694
     11  C         33.6930   17.2820   26.8060 C.2    89  ALA89       0.2592
     12  O         33.3310   17.1770   25.6330 O.2    89  ALA89      -0.2718
     13  CB        35.9920   18.0900   27.3270 C.3    89  ALA89       0.0304
     14  N         32.8860   17.6870   27.7830 N.am   90  VAL90      -0.1966
     15  CA        31.5320   18.1450   27.5210 C.3    90  VAL90       0.1727
     16  C         31.3950   19.5170   28.1460 C.2    90  VAL90       0.2617
     17  O         31.9650   19.7910   29.2000 O.2    90  VAL90      -0.2715
     18  CB        30.4460   17.1960   28.1000 C.3    90  VAL90       0.0290
     19  CG1       30.5420   15.8310   27.4190 C.3    90  VAL90       0.0023
     20  CG2       30.5770   17.0780   29.6200 C.3    90  VAL90       0.0023
     21  N         30.6560   20.3850   27.4700 N.am   91  THR91      -0.1937
     22  CA        30.4380   21.7440   27.9270 C.3    91  THR91       0.2028
     23  C         29.5600   21.7750   29.1760 C.2    91  THR91       0.2642
     24  O         28.4350   21.2770   29.1660 O.2    91  THR91      -0.2714
     25  CB        29.7540   22.5480   26.8370 C.3    91  THR91       0.1808
     26  OG1       30.2790   22.1530   25.5670 O.3    91  THR91      -0.2208
     27  CG2       29.9890   24.0220   27.0440 C.3    91  THR91       0.0379
     28  N         30.0910   22.3630   30.2410 N.am   92  SER92      -0.1949
     29  CA        29.3830   22.4970   31.5120 C.3    92  SER92       0.1924
     30  C         28.6150   23.8150   31.5940 C.2    92  SER92       0.2314
     31  O         27.4120   23.8190   31.8960 O.2    92  SER92      -0.2863
     32  CB        30.3670   22.4350   32.6710 C.3    92  SER92       0.2116
     33  OG        29.7440   22.8270   33.8750 O.3    92  SER92      -0.2180
     34  N         34.2480   23.1990   30.8880 N.3   140  PHE140     -0.1227
     35  CA        34.0910   21.8630   30.3510 C.3   140  PHE140      0.1736
     36  C         34.5230   20.8620   31.4020 C.2   140  PHE140      0.2595
     37  O         35.3210   21.1750   32.2890 O.2   140  PHE140     -0.2718
     38  CB        34.9280   21.7050   29.0800 C.3   140  PHE140      0.0547
     39  CG        34.4710   22.5730   27.9640 C.ar  140  PHE140     -0.0202
     40  CD1       34.6680   23.9480   28.0190 C.ar  140  PHE140     -0.0042
     41  CD2       33.7990   22.0270   26.8690 C.ar  140  PHE140     -0.0042
     42  CE1       34.2010   24.7750   27.0030 C.ar  140  PHE140     -0.0003
     43  CE2       33.3220   22.8470   25.8330 C.ar  140  PHE140     -0.0003
     44  CZ        33.5220   24.2220   25.8990 C.ar  140  PHE140     -0.0000
     45  N         33.9890   19.6570   31.2980 N.am  141  PHE141     -0.1976
     46  CA        34.2930   18.5990   32.2340 C.3   141  PHE141      0.1639
     47  C         34.8010   17.4360   31.4270 C.2   141  PHE141      0.2290
     48  O         34.3460   17.2030   30.3030 O.2   141  PHE141     -0.2864
     49  CB        33.0250   18.1790   32.9840 C.3   141  PHE141      0.0560
     50  CG        32.9260   18.7500   34.3520 C.ar  141  PHE141     -0.0200
     51  CD1       33.4100   18.0450   35.4430 C.ar  141  PHE141     -0.0042
     52  CD2       32.4050   20.0250   34.5500 C.ar  141  PHE141     -0.0042
     53  CE1       33.3830   18.6020   36.7180 C.ar  141  PHE141     -0.0003
     54  CE2       32.3750   20.5900   35.8180 C.ar  141  PHE141     -0.0003
     55  CZ        32.8680   19.8730   36.9090 C.ar  141  PHE141     -0.0000
     56  N         34.5650   14.1460   30.3590 N.3   143  LEU143     -0.1231
     57  CA        33.5600   13.0890   30.2850 C.3   143  LEU143      0.1693
     58  C         33.9800   11.8050   31.0110 C.2   143  LEU143      0.2592
     59  O         35.1410   11.3940   30.9300 O.2   143  LEU143     -0.2718
     60  CB        33.2840   12.7660   28.8210 C.3   143  LEU143      0.0284
     61  CG        32.1460   11.7770   28.6110 C.3   143  LEU143      0.0019
     62  CD1       30.8020   12.4610   28.8690 C.3   143  LEU143      0.0001
     63  CD2       32.2250   11.2430   27.1880 C.3   143  LEU143      0.0001
     64  N         33.0210   11.1750   31.6960 N.am  144  ARG144     -0.1966
     65  CA        33.2580    9.9570   32.4660 C.3   144  ARG144      0.1729
     66  C         32.1510    8.9140   32.3290 C.2   144  ARG144      0.2617
     67  O         31.9460    8.1210   33.2490 O.2   144  ARG144     -0.2715
     68  CB        33.3840   10.2890   33.9550 C.3   144  ARG144      0.0348
     69  CG        34.3970   11.3400   34.3160 C.3   144  ARG144      0.0492
     70  CD        34.5140   11.4670   35.8280 C.3   144  ARG144      0.2205
     71  NE        33.2240   11.3060   36.4960 N.pl3 144  ARG144     -0.0865
     72  CZ        33.0010   11.5710   37.7820 C.cat 144  ARG144      0.5346
     73  NH1       33.9830   12.0220   38.5520 N.pl3 144  ARG144      0.1354
     74  NH2       31.7920   11.3710   38.3020 N.pl3 144  ARG144      0.1354
     75  N         31.4470    8.8990   31.1990 N.am  145  SER145     -0.1936
     76  CA        30.3360    7.9550   30.9830 C.3   145  SER145      0.2055
     77  C         30.2750    6.7550   31.9510 C.2   145  SER145      0.2642
     78  O         31.2080    5.9500   32.0440 O.2   145  SER145     -0.2714
     79  CB        30.3280    7.4500   29.5290 C.3   145  SER145      0.2130
     80  OG        30.1460    8.5140   28.6100 O.3   145  SER145     -0.2179
     81  N         29.1560    6.6730   32.6680 N.am  146  ARG146     -0.1977
     82  CA        28.8740    5.6240   33.6430 C.3   146  ARG146      0.1597
     83  C         29.1540    4.2270   33.1010 C.2   146  ARG146      0.2287
     84  O         28.5110    3.7800   32.1500 O.2   146  ARG146     -0.2864
     85  CB        27.4080    5.7190   34.0820 C.3   146  ARG146      0.0334
     86  CG        26.3850    5.4020   32.9840 C.3   146  ARG146      0.0492
     87  CD        26.7350    6.0400   31.6350 C.3   146  ARG146      0.2205
     88  NE        25.6750    5.8750   30.6400 N.pl3 146  ARG146     -0.0865
     89  CZ        25.8520    5.9780   29.3240 C.cat 146  ARG146      0.5346
     90  NH1       27.0560    6.2410   28.8290 N.pl3 146  ARG146      0.1354
     91  NH2       24.8200    5.8250   28.5050 N.pl3 146  ARG146      0.1354
@<TRIPOS>BOND
     1     1     2    1
     2     3     2    1
     3     3     4    2
     4     2     5    1
     5     5     6    1
     6     8     6   ar
     7     6     7   ar
     8    26    25    1
     9    12    11    2
    10    43    44   ar
    11    43    41   ar
    12    44    42   ar
    13     9    10    1
    14    11    10    1
    15    11    14   am
    16    25    27    1
    17    25    22    1
    18    41    39   ar
    19    42    40   ar
    20    63    61    1
    21    10    13    1
    22    19    18    1
    23    21    22    1
    24    21    16   am
    25    15    14    1
    26    15    18    1
    27    15    16    1
    28    22    23    1
    29    39    40   ar
    30    39    38    1
    31    18    20    1
    32    16    17    2
    33    91    89    1
    34    80    79    1
    35    61    60    1
    36    61    62    1
    37    60    57    1
    38    90    89    1
    39    38    35    1
    40    24    23    2
    41    23    28   am
    42    89    88    2
    43    79    76    1
    44    28    29    1
    45    57    56    1
    46    57    58    1
    47    48    47    2
    48    35    34    1
    49    35    36    1
    50    88    87    1
    51    59    58    2
    52    76    75    1
    53    76    77    1
    54    58    64   am
    55    75    66   am
    56    45    36   am
    57    45    46    1
    58    36    37    2
    59    47    46    1
    60    29    30    1
    61    29    32    1
    62    30    31    2
    63    87    86    1
    64    64    65    1
    65    77    78    2
    66    77    81   am
    67    84    83    2
    68    46    49    1
    69    66    65    1
    70    66    67    2
    71    65    68    1
    72    81    82    1
    73    32    33    1
    74    49    50    1
    75    86    85    1
    76    83    82    1
    77    82    85    1
    78    68    69    1
    79    69    70    1
    80    50    52   ar
    81    50    51   ar
    82    52    54   ar
    83    51    53   ar
    84    54    55   ar
    85    70    71    1
    86    71    72    2
    87    53    55   ar
    88    72    74    1
    89    72    73    1
