@<TRIPOS>MOLECULE
tmp/3nx2A00.pdb
 103 97 0 0 0
SMALL
GASTEIGER

@<TRIPOS>ATOM
      1  N          9.5550   14.4700   19.4650 N.3    17  TYR17      -0.1241
      2  CA         9.5220   13.0220   19.6340 C.3    17  TYR17       0.1605
      3  C         10.6090   12.5800   20.6280 C.2    17  TYR17       0.2264
      4  O         11.4760   13.3960   21.0280 O.2    17  TYR17      -0.2867
      5  CB         9.6920   12.3280   18.2980 C.3    17  TYR17       0.0534
      6  CG         8.5010   12.5140   17.3790 C.ar   17  TYR17      -0.0201
      7  CD1        8.3670   13.6620   16.6100 C.ar   17  TYR17      -0.0009
      8  CD2        7.4640   11.5780   17.3410 C.ar   17  TYR17      -0.0009
      9  CE1        7.2670   13.8460   15.7530 C.ar   17  TYR17       0.0417
     10  CE2        6.3290   11.7600   16.4810 C.ar   17  TYR17       0.0417
     11  CZ         6.2440   12.9050   15.7090 C.ar   17  TYR17       0.1957
     12  OH         5.1790   13.1330   14.8580 O.3    17  TYR17      -0.2866
     13  N         13.0810   10.6900   20.3560 N.3    19  ASN19      -0.1240
     14  CA        14.4360   10.8150   19.8010 C.3    19  ASN19       0.1653
     15  C         14.9600   12.2670   19.7230 C.2    19  ASN19       0.2266
     16  O         16.0090   12.5000   19.1360 O.2    19  ASN19      -0.2867
     17  CB        14.5210   10.1600   18.4160 C.3    19  ASN19       0.1155
     18  CG        13.7990   10.9530   17.3200 C.2    19  ASN19       0.2627
     19  OD1       13.2030   12.0150   17.5600 O.2    19  ASN19      -0.2716
     20  ND2       13.8870   10.4560   16.1010 N.am   19  ASN19      -0.0877
     21  N         13.7040   14.9460   17.9380 N.3    21  TRP21      -0.1241
     22  CA        13.4430   15.8120   16.7650 C.3    21  TRP21       0.1605
     23  C         12.2680   16.7710   17.0130 C.2    21  TRP21       0.2264
     24  O         11.2140   16.3750   17.5550 O.2    21  TRP21      -0.2867
     25  CB        13.2010   15.0580   15.4540 C.3    21  TRP21       0.0550
     26  CG        14.2330   14.1380   14.9750 C.ar   21  TRP21       0.0003
     27  CD1       15.5930   14.1520   15.2660 C.ar   21  TRP21       0.0946
     28  CD2       14.0220   13.0500   14.0760 C.ar   21  TRP21       0.0152
     29  NE1       16.2230   13.1160   14.5910 N.ar   21  TRP21      -0.2442
     30  CE2       15.2840   12.4200   13.8660 C.ar   21  TRP21       0.0810
     31  CE3       12.8750   12.4960   13.4690 C.ar   21  TRP21       0.0012
     32  CZ2       15.4290   11.2900   13.0500 C.ar   21  TRP21       0.0191
     33  CZ3       13.0290   11.3630   12.6620 C.ar   21  TRP21       0.0001
     34  CH2       14.2960   10.7750   12.4640 C.ar   21  TRP21       0.0015
     35  N          9.2810   19.4020   15.7230 N.3    23  TYR23      -0.1241
     36  CA         8.2960   19.6310   14.6700 C.3    23  TYR23       0.1605
     37  C          7.4520   20.8670   15.0390 C.2    23  TYR23       0.2264
     38  O          7.2940   21.1710   16.2150 O.2    23  TYR23      -0.2867
     39  CB         7.3600   18.4390   14.5510 C.3    23  TYR23       0.0534
     40  CG         7.9830   17.2250   13.9460 C.ar   23  TYR23      -0.0201
     41  CD1        8.9760   16.4900   14.6390 C.ar   23  TYR23      -0.0009
     42  CD2        7.5600   16.7690   12.7010 C.ar   23  TYR23      -0.0009
     43  CE1        9.5490   15.3350   14.0810 C.ar   23  TYR23       0.0417
     44  CE2        8.1360   15.6230   12.1330 C.ar   23  TYR23       0.0417
     45  CZ         9.1380   14.9300   12.8330 C.ar   23  TYR23       0.1957
     46  OH         9.6560   13.7950   12.2730 O.3    23  TYR23      -0.2866
     47  N          8.9600   20.7710    9.3230 N.3    37  ILE37      -0.1245
     48  CA         9.6980   19.6150    9.8210 C.3    37  ILE37       0.1561
     49  C         11.1860   19.9600    9.8390 C.2    37  ILE37       0.2260
     50  O         11.7240   20.5040    8.8860 O.2    37  ILE37      -0.2867
     51  CB         9.4330   18.3370    8.9860 C.3    37  ILE37       0.0252
     52  CG1        7.9280   18.0180    8.9340 C.3    37  ILE37       0.0019
     53  CG2       10.1830   17.1300    9.5510 C.3    37  ILE37       0.0019
     54  CD1        7.5500   17.1560    7.7770 C.3    37  ILE37       0.0001
     55  N         13.8690   17.6230   11.1280 N.3    39  SER39      -0.1217
     56  CA        14.8600   16.5090   11.1330 C.3    39  SER39       0.1889
     57  C         14.2910   15.2360   10.5310 C.2    39  SER39       0.2288
     58  O         13.0760   15.1680   10.2500 O.2    39  SER39      -0.2866
     59  CB        15.3500   16.2540   12.5870 C.3    39  SER39       0.2089
     60  OG        15.8730   17.4570   13.1340 O.3    39  SER39      -0.2183
     61  N         12.3990   13.2530    6.1730 N.3    42  VAL42      -0.1245
     62  CA        11.7370   14.3550    5.4710 C.3    42  VAL42       0.1561
     63  C         12.0720   15.7170    6.1220 C.2    42  VAL42       0.2260
     64  O         11.3380   16.7040    5.9760 O.2    42  VAL42      -0.2867
     65  CB        10.2020   14.1020    5.2550 C.3    42  VAL42       0.0252
     66  CG1        9.9970   12.7890    4.4940 C.3    42  VAL42       0.0019
     67  CG2        9.4620   14.0400    6.5580 C.3    42  VAL42       0.0019
     68  N          0.2570    9.0590   10.3850 N.3    89  ILE89      -0.1245
     69  CA         0.5350    9.3930    9.0170 C.3    89  ILE89       0.1561
     70  C          0.3860    8.1250    8.1680 C.2    89  ILE89       0.2260
     71  O          0.9520    7.0840    8.5070 O.2    89  ILE89      -0.2867
     72  CB         1.9570   10.0350    8.8380 C.3    89  ILE89       0.0252
     73  CG1        2.0900   11.3370    9.6520 C.3    89  ILE89       0.0019
     74  CG2        2.2240   10.3550    7.3420 C.3    89  ILE89       0.0019
     75  CD1        3.5380   11.8350    9.7730 C.3    89  ILE89       0.0001
     76  N          1.4180    7.0850    4.7460 N.3    91  PHE91      -0.1241
     77  CA         2.3440    7.3780    3.6610 C.3    91  PHE91       0.1605
     78  C          2.1570    6.4540    2.4680 C.2    91  PHE91       0.2264
     79  O          2.1680    5.2470    2.6510 O.2    91  PHE91      -0.2867
     80  CB         3.7970    7.1440    4.1330 C.3    91  PHE91       0.0534
     81  CG         4.4050    8.3140    4.8090 C.ar   91  PHE91      -0.0203
     82  CD1        4.4890    9.5550    4.1570 C.ar   91  PHE91      -0.0042
     83  CD2        4.9450    8.1780    6.0900 C.ar   91  PHE91      -0.0042
     84  CE1        5.0690   10.6760    4.7800 C.ar   91  PHE91      -0.0003
     85  CE2        5.5270    9.2840    6.7280 C.ar   91  PHE91      -0.0003
     86  CZ         5.5850   10.5520    6.0490 C.ar   91  PHE91      -0.0000
     87  N          2.4080    5.2740    9.9940 N.3   128  ILE128     -0.1245
     88  CA         3.2890    5.6820   11.1090 C.3   128  ILE128      0.1561
     89  C          2.5100    6.3860   12.2140 C.2   128  ILE128      0.2260
     90  O          1.9710    7.4950   11.9930 O.2   128  ILE128     -0.2867
     91  CB         4.4810    6.5980   10.6390 C.3   128  ILE128      0.0252
     92  CG1        5.3700    5.8910    9.6210 C.3   128  ILE128      0.0019
     93  CG2        5.3440    6.9970   11.8270 C.3   128  ILE128      0.0019
     94  CD1        5.7060    4.4720    9.9880 C.3   128  ILE128      0.0001
     95  N          2.4730    7.5470   16.2470 N.3   130  GLU130     -0.1245
     96  CA         3.4840    7.9280   17.2500 C.3   130  GLU130      0.1567
     97  C          3.1360    9.1440   18.1100 C.2   130  GLU130      0.2260
     98  O          2.7390   10.1960   17.5810 O.2   130  GLU130     -0.2867
     99  CB         4.8270    8.1570   16.5070 C.3   130  GLU130      0.0388
    100  CG         6.0690    8.1180   17.3820 C.3   130  GLU130      0.1160
    101  CD         7.3750    8.1720   16.5870 C.2   130  GLU130      0.3649
    102  OE1        7.3240    8.0730   15.3120 O.co2 130  GLU130     -0.2457
    103  OE2        8.4410    8.3200   17.2570 O.co2 130  GLU130     -0.2457
@<TRIPOS>BOND
     1    78    79    2
     2    78    77    1
     3    77    80    1
     4    77    76    1
     5    80    81    1
     6    82    84   ar
     7    82    81   ar
     8    66    65    1
     9    84    86   ar
    10    81    83   ar
    11    65    62    1
    12    65    67    1
    13    62    63    1
    14    62    61    1
    15    64    63    2
    16    86    85   ar
    17    83    85   ar
    18    74    72    1
    19    54    52    1
    20    70    71    2
    21    70    69    1
    22    72    69    1
    23    72    73    1
    24    50    49    2
    25    52    51    1
    26    51    53    1
    27    51    48    1
    28    69    68    1
    29    47    48    1
    30    92    94    1
    31    92    91    1
    32    73    75    1
    33    48    49    1
    34    87    88    1
    35    58    57    2
    36    57    56    1
    37    91    88    1
    38    91    93    1
    39    88    89    1
    40    55    56    1
    41    56    59    1
    42    90    89    2
    43    44    42   ar
    44    44    45   ar
    45    46    45    1
    46    34    33   ar
    47    34    32   ar
    48    59    60    1
    49    33    31   ar
    50    42    40   ar
    51    45    43   ar
    52    32    30   ar
    53    31    28   ar
    54    30    28   ar
    55    30    29   ar
    56    40    39    1
    57    40    41   ar
    58    28    26   ar
    59    43    41   ar
    60    39    36    1
    61    29    27   ar
    62    36    37    1
    63    36    35    1
    64    12    11    1
    65    26    27   ar
    66    26    25    1
    67    37    38    2
    68   102   101   ar
    69    25    22    1
    70    11     9   ar
    71    11    10   ar
    72     9     7   ar
    73    20    18   am
    74    95    96    1
    75    10     8   ar
    76    99    96    1
    77    99   100    1
    78   101   103   ar
    79   101   100    1
    80     7     6   ar
    81    22    23    1
    82    22    21    1
    83    23    24    2
    84    96    97    1
    85    18    19    2
    86    18    17    1
    87     8     6   ar
    88     6     5    1
    89    98    97    2
    90     5     2    1
    91    17    14    1
    92    16    15    2
    93     1     2    1
    94     2     3    1
    95    15    14    1
    96    14    13    1
    97     3     4    2
