@<TRIPOS>MOLECULE
tmp/3nx7A00.pdb
 142 142 0 0 0
SMALL
GASTEIGER

@<TRIPOS>ATOM
      1  N          3.5070  -11.4300   -3.3370 N.3    74  GLY74      -0.1210
      2  CA         3.3010  -10.2570   -2.4910 C.3    74  GLY74       0.1956
      3  C          2.7670   -9.0800   -3.2900 C.2    74  GLY74       0.2612
      4  O          1.7550   -9.2020   -3.9980 O.2    74  GLY74      -0.2717
      5  N          3.4540   -7.9430   -3.1880 N.am   75  ILE75      -0.1965
      6  CA         3.0360   -6.7320   -3.9170 C.3    75  ILE75       0.1727
      7  C          3.2480   -6.9540   -5.4100 C.2    75  ILE75       0.2616
      8  O          4.3730   -7.2370   -5.8420 O.2    75  ILE75      -0.2715
      9  CB         3.8540   -5.5020   -3.4750 C.3    75  ILE75       0.0290
     10  CG1        3.6150   -5.1970   -1.9890 C.3    75  ILE75       0.0022
     11  CG2        3.5180   -4.2700   -4.3390 C.3    75  ILE75       0.0023
     12  CD1        4.5470   -4.0990   -1.4890 C.3    75  ILE75       0.0001
     13  N          2.1730   -6.8450   -6.1870 N.am   76  LEU76      -0.1963
     14  CA         2.2240   -7.0010   -7.6510 C.3    76  LEU76       0.1728
     15  C          2.4220   -5.6850   -8.3910 C.2    76  LEU76       0.2616
     16  O          3.0210   -5.6490   -9.4710 O.2    76  LEU76      -0.2715
     17  CB         0.9230   -7.6520   -8.1650 C.3    76  LEU76       0.0311
     18  CG         0.4350   -8.8920   -7.4020 C.3    76  LEU76       0.0022
     19  CD1       -0.9780   -9.2870   -7.8150 C.3    76  LEU76       0.0001
     20  CD2        1.4260  -10.0510   -7.5580 C.3    76  LEU76       0.0001
     21  N          1.8590   -4.6180   -7.8350 N.am   77  ALA77      -0.1963
     22  CA         1.8730   -3.3260   -8.5070 C.3    77  ALA77       0.1728
     23  C          1.4300   -2.2680   -7.5140 C.2    77  ALA77       0.2616
     24  O          0.8100   -2.6020   -6.5100 O.2    77  ALA77      -0.2715
     25  CB         0.9090   -3.3590   -9.6960 C.3    77  ALA77       0.0334
     26  N          1.7580   -1.0030   -7.7720 N.am   78  HIS78      -0.1973
     27  CA         1.1310    0.0900   -7.0100 C.3    78  HIS78       0.1656
     28  C          0.9650    1.3120   -7.8990 C.2    78  HIS78       0.2291
     29  O          1.6230    1.4060   -8.9340 O.2    78  HIS78      -0.2864
     30  CB         1.9230    0.4260   -5.7450 C.3    78  HIS78       0.0771
     31  CG         3.3520    0.7690   -5.9870 C.ar   78  HIS78       0.0820
     32  ND1        4.3750    0.2400   -5.2310 N.ar   78  HIS78      -0.2267
     33  CD2        3.9340    1.6050   -6.8820 C.ar   78  HIS78       0.1154
     34  CE1        5.5270    0.7180   -5.6670 C.ar   78  HIS78       0.1986
     35  NE2        5.2850    1.5550   -6.6640 N.ar   78  HIS78      -0.2212
     36  N         -6.0380   -7.3270  -15.7150 N.3   109  LEU109     -0.1231
     37  CA        -6.8450   -7.1960  -14.4810 C.3   109  LEU109      0.1693
     38  C         -6.1290   -6.3490  -13.4540 C.2   109  LEU109      0.2592
     39  O         -6.7590   -5.5310  -12.7500 O.2   109  LEU109     -0.2718
     40  CB        -7.1510   -8.5640  -13.8480 C.3   109  LEU109      0.0284
     41  CG        -8.1620   -9.4830  -14.5230 C.3   109  LEU109      0.0019
     42  CD1       -8.0940  -10.8630  -13.8600 C.3   109  LEU109      0.0001
     43  CD2       -9.5580   -8.8790  -14.3980 C.3   109  LEU109      0.0001
     44  N         -4.8110   -6.5660  -13.3440 N.am  110  THR110     -0.1953
     45  CA        -3.9920   -5.8030  -12.4250 C.3   110  THR110      0.1897
     46  C         -4.0120   -4.3250  -12.8260 C.2   110  THR110      0.2313
     47  O         -4.1550   -3.4510  -11.9590 O.2   110  THR110     -0.2863
     48  CB        -2.5440   -6.3570  -12.3160 C.3   110  THR110      0.1794
     49  OG1       -2.6090   -7.7610  -12.0330 O.3   110  THR110     -0.2208
     50  CG2       -1.7600   -5.6430  -11.1770 C.3   110  THR110      0.0378
     51  N         -7.1850   -2.3240  -11.8710 N.3   113  HIS113     -0.1226
     52  CA        -7.1370   -1.9380  -10.4640 C.3   113  HIS113      0.1752
     53  C         -6.1840   -0.7620  -10.2730 C.2   113  HIS113      0.2595
     54  O         -6.5640    0.2240   -9.6520 O.2   113  HIS113     -0.2718
     55  CB        -6.7320   -3.1570   -9.6240 C.3   113  HIS113      0.0759
     56  CG        -6.4950   -2.8840   -8.1610 C.ar  113  HIS113      0.0818
     57  ND1       -7.3270   -3.3650   -7.1760 N.ar  113  HIS113     -0.2268
     58  CD2       -5.4860   -2.2460   -7.5200 C.ar  113  HIS113      0.1154
     59  CE1       -6.8560   -3.0250   -5.9870 C.ar  113  HIS113      0.1986
     60  NE2       -5.7350   -2.3470   -6.1690 N.ar  113  HIS113     -0.2212
     61  N         -4.9740   -0.8590  -10.8420 N.am  114  GLU114     -0.1979
     62  CA        -3.9760    0.2160  -10.7440 C.3   114  GLU114      0.1602
     63  C         -4.4570    1.5170  -11.3360 C.2   114  GLU114      0.2287
     64  O         -4.3110    2.5740  -10.7090 O.2   114  GLU114     -0.2864
     65  CB        -2.6580   -0.1900  -11.3950 C.3   114  GLU114      0.0415
     66  CG        -1.9190   -1.3150  -10.6400 C.3   114  GLU114      0.1163
     67  CD        -1.8640   -1.0870   -9.1380 C.2   114  GLU114      0.3649
     68  OE1       -2.1970   -2.0220   -8.3770 O.co2 114  GLU114     -0.2457
     69  OE2       -1.5100    0.0300   -8.7070 O.co2 114  GLU114     -0.2457
     70  N         -6.6400    3.4320   -9.0980 N.3   117  HIS117     -0.1241
     71  CA        -5.8420    4.2780   -8.2180 C.3   117  HIS117      0.1621
     72  C         -5.3620    5.5250   -8.9470 C.2   117  HIS117      0.2264
     73  O         -5.4170    6.6200   -8.3890 O.2   117  HIS117     -0.2867
     74  CB        -4.5950    3.5480   -7.6890 C.3   117  HIS117      0.0745
     75  CG        -4.8890    2.4500   -6.7120 C.ar  117  HIS117      0.0817
     76  ND1       -5.7500    2.6020   -5.6440 N.ar  117  HIS117     -0.2268
     77  CD2       -4.3690    1.2050   -6.6000 C.ar  117  HIS117      0.1154
     78  CE1       -5.7740    1.4840   -4.9420 C.ar  117  HIS117      0.1986
     79  NE2       -4.9400    0.6270   -5.4980 N.ar  117  HIS117     -0.2212
     80  N         -9.1840    1.4750   -2.0020 N.3   123  HIS123     -0.1241
     81  CA        -9.5690    0.0710   -1.9910 C.3   123  HIS123      0.1621
     82  C        -10.9980   -0.1490   -1.5140 C.2   123  HIS123      0.2264
     83  O        -11.5210    0.6220   -0.7030 O.2   123  HIS123     -0.2867
     84  CB        -8.6110   -0.7230   -1.1310 C.3   123  HIS123      0.0745
     85  CG        -7.2720   -0.9220   -1.7620 C.ar  123  HIS123      0.0817
     86  ND1       -6.1040   -0.9570   -1.0310 N.ar  123  HIS123     -0.2268
     87  CD2       -6.9160   -1.0970   -3.0560 C.ar  123  HIS123      0.1154
     88  CE1       -5.0840   -1.1520   -1.8500 C.ar  123  HIS123      0.1986
     89  NE2       -5.5490   -1.2490   -3.0800 N.ar  123  HIS123     -0.2212
     90  N        -13.2510   -4.8320   -8.4410 N.3   130  VAL130     -0.1245
     91  CA       -11.8880   -4.8920   -8.9380 C.3   130  VAL130      0.1561
     92  C        -10.9100   -4.1460   -8.0030 C.2   130  VAL130      0.2260
     93  O         -9.7290   -4.5080   -7.9230 O.2   130  VAL130     -0.2867
     94  CB       -11.7800   -4.4220  -10.4260 C.3   130  VAL130      0.0252
     95  CG1      -11.8890   -2.9010  -10.5290 C.3   130  VAL130      0.0019
     96  CG2      -10.4890   -4.9230  -11.0470 C.3   130  VAL130      0.0019
     97  N        -10.9920   -4.3110   -4.7860 N.3   132  PHE132     -0.1228
     98  CA       -10.6930   -5.1650   -3.6270 C.3   132  PHE132      0.1721
     99  C         -9.2090   -5.5250   -3.6500 C.2   132  PHE132      0.2437
    100  O         -8.7280   -6.0420   -4.6680 O.2   132  PHE132     -0.2733
    101  CB       -11.5400   -6.4350   -3.6550 C.3   132  PHE132      0.0547
    102  CG       -11.4140   -7.2540   -2.4100 C.ar  132  PHE132     -0.0202
    103  CD1      -12.0050   -6.8190   -1.2230 C.ar  132  PHE132     -0.0042
    104  CD2      -10.6810   -8.4330   -2.4080 C.ar  132  PHE132     -0.0042
    105  CE1      -11.8920   -7.5810   -0.0520 C.ar  132  PHE132     -0.0003
    106  CE2      -10.5670   -9.1880   -1.2420 C.ar  132  PHE132     -0.0003
    107  CZ       -11.1670   -8.7580   -0.0780 C.ar  132  PHE132     -0.0000
    108  N         -8.4710   -5.2110   -2.5570 N.am  133  PRO133     -0.2718
    109  CA        -7.0100   -5.3220   -2.6060 C.3   133  PRO133      0.1535
    110  C         -6.4470   -6.7160   -2.4060 C.2   133  PRO133      0.2599
    111  O         -5.5990   -6.9090   -1.5460 O.2   133  PRO133     -0.2715
    112  CB        -6.5450   -4.3830   -1.4860 C.3   133  PRO133      0.0310
    113  CG        -7.6640   -4.3930   -0.4730 C.3   133  PRO133      0.0237
    114  CD        -8.9470   -4.6390   -1.2760 C.3   133  PRO133      0.0939
    115  N         -6.9520   -7.6700   -3.1760 N.am  134  THR134     -0.1937
    116  CA        -6.4170   -9.0180   -3.2390 C.3   134  THR134      0.2028
    117  C         -6.5650   -9.5080   -4.6820 C.2   134  THR134      0.2642
    118  O         -7.6420   -9.4070   -5.2760 O.2   134  THR134     -0.2714
    119  CB        -7.1650   -9.9790   -2.2640 C.3   134  THR134      0.1808
    120  OG1       -7.0560   -9.4860   -0.9220 O.3   134  THR134     -0.2208
    121  CG2       -6.5640  -11.3600   -2.3230 C.3   134  THR134      0.0379
    122  N         -5.4900  -10.0280   -5.2510 N.am  135  TYR135     -0.1959
    123  CA        -5.5520  -10.5170   -6.6280 C.3   135  TYR135      0.1771
    124  C         -6.2360  -11.8950   -6.6890 C.2   135  TYR135      0.2619
    125  O         -5.8340  -12.8160   -5.9890 O.2   135  TYR135     -0.2715
    126  CB        -4.1430  -10.5780   -7.2470 C.3   135  TYR135      0.0574
    127  CG        -4.1280  -11.1500   -8.6500 C.ar  135  TYR135     -0.0198
    128  CD1       -4.2680  -10.3210   -9.7590 C.ar  135  TYR135     -0.0009
    129  CD2       -4.0080  -12.5310   -8.8660 C.ar  135  TYR135     -0.0009
    130  CE1       -4.2760  -10.8400  -11.0540 C.ar  135  TYR135      0.0417
    131  CE2       -4.0100  -13.0650  -10.1660 C.ar  135  TYR135      0.0417
    132  CZ        -4.1550  -12.2160  -11.2490 C.ar  135  TYR135      0.1957
    133  OH        -4.1640  -12.7140  -12.5270 O.3   135  TYR135     -0.2866
    134  N         -7.2760  -12.0010   -7.5080 N.am  136  LYS136     -0.1977
    135  CA        -7.9100  -13.2760   -7.8330 C.3   136  LYS136      0.1596
    136  C         -8.2670  -13.2620   -9.3160 C.2   136  LYS136      0.2287
    137  O         -9.0670  -12.4440   -9.7680 O.2   136  LYS136     -0.2864
    138  CB        -9.1670  -13.5120   -6.9920 C.3   136  LYS136      0.0298
    139  CG        -9.9200  -14.8140   -7.3330 C.3   136  LYS136      0.0038
    140  CD       -11.3280  -14.8210   -6.7230 C.3   136  LYS136      0.0206
    141  CE       -12.1350  -16.0700   -7.1100 C.3   136  LYS136      0.1093
    142  NZ       -11.4140  -17.3450   -6.7660 N.3   136  LYS136     -0.1314
@<TRIPOS>BOND
     1    36    37    1
     2    41    43    1
     3    41    42    1
     4    41    40    1
     5    37    40    1
     6    37    38    1
     7    38    44   am
     8    38    39    2
     9    44    45    1
    10    46    45    1
    11    46    47    2
    12   133   132    1
    13    45    48    1
    14    48    49    1
    15    48    50    1
    16    51    52    1
    17    65    62    1
    18    65    66    1
    19    63    62    1
    20    63    64    2
    21   132   130   ar
    22   132   131   ar
    23   130   128   ar
    24    96    94    1
    25    61    62    1
    26    61    53   am
    27    66    67    1
    28    95    94    1
    29    52    53    1
    30    52    55    1
    31    94    91    1
    32    53    54    2
    33   131   129   ar
    34   137   136    2
    35   128   127   ar
    36    25    22    1
    37    55    56    1
    38    16    15    2
    39   136   135    1
    40    67    69   ar
    41    67    68   ar
    42    70    71    1
    43    72    73    2
    44    72    71    1
    45    91    90    1
    46    91    92    1
    47    29    28    2
    48   129   127   ar
    49   127   126    1
    50    22    21    1
    51    22    23    1
    52    15    21   am
    53    15    14    1
    54    71    74    1
    55    17    14    1
    56    17    18    1
    57    56    58   ar
    58    56    57   ar
    59    92    93    2
    60    28    27    1
    61   135   134    1
    62   135   138    1
    63    19    18    1
    64    26    23   am
    65    26    27    1
    66    74    75    1
    67    14    13    1
    68    20    18    1
    69    58    60   ar
    70    23    24    2
    71   134   124   am
    72   139   138    1
    73   139   140    1
    74   126   123    1
    75    57    59   ar
    76   141   142    1
    77   141   140    1
    78    27    30    1
    79    33    35   ar
    80    33    31   ar
    81    75    77   ar
    82    75    76   ar
    83   124   123    1
    84   124   125    2
    85    35    34   ar
    86   123   122    1
    87    77    79   ar
    88    13     7   am
    89    60    59   ar
    90    31    30    1
    91    31    32   ar
    92     8     7    2
    93    34    32   ar
    94    76    78   ar
    95    79    78   ar
    96     7     6    1
    97   118   117    2
    98   122   117   am
    99    97    98    1
   100   117   116    1
   101   100    99    2
   102    11     9    1
   103     4     3    2
   104     6     9    1
   105     6     5    1
   106   101    98    1
   107   101   102    1
   108    99    98    1
   109    99   108   am
   110     9    10    1
   111     1     2    1
   112     3     5   am
   113     3     2    1
   114   116   115    1
   115   116   119    1
   116   115   110   am
   117    89    87   ar
   118    89    88   ar
   119    87    85   ar
   120   109   108    1
   121   109   110    1
   122   109   112    1
   123   108   114    1
   124   102   104   ar
   125   102   103   ar
   126   104   106   ar
   127   110   111    2
   128   121   119    1
   129   119   120    1
   130    80    81    1
   131    81    82    1
   132    81    84    1
   133    10    12    1
   134    88    86   ar
   135    85    84    1
   136    85    86   ar
   137    82    83    2
   138   112   113    1
   139   114   113    1
   140   106   107   ar
   141   103   105   ar
   142   107   105   ar
