@<TRIPOS>MOLECULE
tmp/3nx8A01.pdb
 90 84 0 0 0
SMALL
GASTEIGER

@<TRIPOS>ATOM
      1  N         27.5940   15.1660   -8.1380 N.3    35  LEU35      -0.1231
      2  CA        27.9400   13.8020   -8.4860 C.3    35  LEU35       0.1693
      3  C         26.8090   12.8200   -8.1940 C.2    35  LEU35       0.2593
      4  O         26.7500   11.7560   -8.8090 O.2    35  LEU35      -0.2718
      5  CB        29.1490   13.3250   -7.6790 C.3    35  LEU35       0.0284
      6  CG        30.5050   13.9570   -7.9560 C.3    35  LEU35       0.0019
      7  CD1       31.5630   13.2940   -7.0800 C.3    35  LEU35       0.0001
      8  CD2       30.8760   13.8210   -9.4200 C.3    35  LEU35       0.0001
      9  N         25.9520   13.1710   -7.2430 N.am   36  GLY36      -0.1942
     10  CA        24.8820   12.2550   -6.8850 C.3    36  GLY36       0.2014
     11  C         24.1260   12.6770   -5.6440 C.2    36  GLY36       0.2640
     12  O         24.4480   13.6870   -5.0230 O.2    36  GLY36      -0.2714
     13  N         23.1180   11.8810   -5.2920 N.am   37  THR37      -0.1936
     14  CA        22.2880   12.1320   -4.1210 C.3    37  THR37       0.2028
     15  C         22.1930   10.8590   -3.2970 C.2    37  THR37       0.2642
     16  O         21.9980    9.7770   -3.8410 O.2    37  THR37      -0.2714
     17  CB        20.8890   12.6350   -4.5070 C.3    37  THR37       0.1808
     18  OG1       20.2010   11.6720   -5.3110 O.3    37  THR37      -0.2208
     19  CG2       21.0180   13.8700   -5.3970 C.3    37  THR37       0.0379
     20  N         22.3550   10.9880   -1.9800 N.am   38  GLY38      -0.1954
     21  CA        22.2830    9.8020   -1.1360 C.3    38  GLY38       0.1869
     22  C         20.9990    9.8510   -0.3090 C.2    38  GLY38       0.2309
     23  O         20.0160   10.4090   -0.7800 O.2    38  GLY38      -0.2863
     24  N         25.9130   15.6970   -3.1190 N.3    43  VAL43      -0.1245
     25  CA        27.3380   15.4530   -3.1130 C.3    43  VAL43       0.1561
     26  C         27.8940   16.0850   -4.3900 C.2    43  VAL43       0.2260
     27  O         27.3660   15.7280   -5.4430 O.2    43  VAL43      -0.2867
     28  CB        27.7000   13.9690   -3.0630 C.3    43  VAL43       0.0252
     29  CG1       29.1880   13.7910   -3.3530 C.3    43  VAL43       0.0019
     30  CG2       27.3470   13.3510   -1.7100 C.3    43  VAL43       0.0019
     31  N         29.3550    4.6450   -9.1610 N.3   113  GLU113     -0.1245
     32  CA        28.6270    3.6920   -8.3470 C.3   113  GLU113      0.1567
     33  C         28.6080    2.3110   -8.9850 C.2   113  GLU113      0.2260
     34  O         28.5080    2.1690  -10.2080 O.2   113  GLU113     -0.2867
     35  CB        27.1740    4.1550   -8.1490 C.3   113  GLU113      0.0388
     36  CG        27.0950    5.5670   -7.6050 C.3   113  GLU113      0.1160
     37  CD        25.6980    6.1490   -7.5680 C.2   113  GLU113      0.3649
     38  OE1       24.7410    5.4520   -7.9550 O.co2 113  GLU113     -0.2457
     39  OE2       25.5690    7.3150   -7.1430 O.co2 113  GLU113     -0.2457
     40  N         23.9560    1.3920   -5.1360 N.3   156  GLU156     -0.1231
     41  CA        24.0210    2.8410   -5.2090 C.3   156  GLU156      0.1699
     42  C         25.0510    3.4550   -4.2650 C.2   156  GLU156      0.2592
     43  O         25.5620    4.5480   -4.5210 O.2   156  GLU156     -0.2718
     44  CB        22.6600    3.4750   -4.8620 C.3   156  GLU156      0.0402
     45  CG        21.5540    3.2780   -5.8920 C.3   156  GLU156      0.1161
     46  CD        20.7240    2.0340   -5.6320 C.2   156  GLU156      0.3649
     47  OE1       21.3360    1.0200   -5.2430 O.co2 156  GLU156     -0.2457
     48  OE2       19.4900    2.0310   -5.7930 O.co2 156  GLU156     -0.2457
     49  N         25.3420    2.7780   -3.1600 N.am  157  ASN157     -0.1974
     50  CA        26.1840    3.3280   -2.1080 C.3   157  ASN157      0.1688
     51  C         27.6000    2.7650   -2.1510 C.2   157  ASN157      0.2292
     52  O         28.3950    3.0220   -1.2510 O.2   157  ASN157     -0.2864
     53  CB        25.5950    3.0450   -0.7170 C.3   157  ASN157      0.1181
     54  CG        24.4700    3.9870   -0.3480 C.2   157  ASN157      0.2629
     55  OD1       24.3220    5.0390   -0.9720 O.2   157  ASN157     -0.2716
     56  ND2       23.6800    3.6370    0.6580 N.am  157  ASN157     -0.0877
     57  N         31.0250    2.7580   -4.1670 N.3   159  LEU159     -0.1245
     58  CA        31.7640    3.3340   -5.2950 C.3   159  LEU159      0.1561
     59  C         32.9180    2.4480   -5.7400 C.2   159  LEU159      0.2260
     60  O         33.5090    1.6810   -4.9790 O.2   159  LEU159     -0.2867
     61  CB        32.2550    4.7310   -4.9020 C.3   159  LEU159      0.0270
     62  CG        31.2120    5.6370   -4.2490 C.3   159  LEU159      0.0019
     63  CD1       31.8670    6.8790   -3.6730 C.3   159  LEU159      0.0001
     64  CD2       30.1060    6.0160   -5.2380 C.3   159  LEU159      0.0001
     65  N         29.9440    4.3980    0.7250 N.3   169  THR169     -0.1203
     66  CA        29.6910    5.7880    1.1440 C.3   169  THR169      0.1994
     67  C         28.3040    5.8910    1.7850 C.2   169  THR169      0.2617
     68  O         27.5910    4.8890    1.7580 O.2   169  THR169     -0.2717
     69  CB        29.7930    6.7810   -0.0260 C.3   169  THR169      0.1784
     70  OG1       29.6600    8.1210    0.4630 O.3   169  THR169     -0.2211
     71  CG2       28.6360    6.5980   -1.0030 C.3   169  THR169      0.0376
     72  N         27.9380    7.0380    2.3280 N.am  170  ASP170     -0.1973
     73  CA        26.6560    7.3750    2.9260 C.3   170  ASP170      0.1709
     74  C         26.3780    6.6370    4.2320 C.2   170  ASP170      0.2293
     75  O         25.8330    5.5260    4.2940 O.2   170  ASP170     -0.2864
     76  CB        25.4880    7.1170    1.9620 C.3   170  ASP170      0.1436
     77  CG        24.2760    7.9570    2.3340 C.2   170  ASP170      0.3671
     78  OD1       23.4800    8.3490    1.4460 O.co2 170  ASP170     -0.2456
     79  OD2       24.1170    8.2240    3.5400 O.co2 170  ASP170     -0.2456
     80  N         29.8080    9.0550  -13.6180 N.3   311  PHE311     -0.1241
     81  CA        28.6440    9.4510  -12.8410 C.3   311  PHE311      0.1605
     82  C         27.5760   10.0260  -13.7590 C.2   311  PHE311      0.2264
     83  O         27.9790   10.7010  -14.7090 O.2   311  PHE311     -0.2867
     84  CB        29.0270   10.5220  -11.8130 C.3   311  PHE311      0.0534
     85  CG        29.8090    9.9650  -10.6300 C.ar  311  PHE311     -0.0203
     86  CD1       29.1620    9.5210   -9.4940 C.ar  311  PHE311     -0.0042
     87  CD2       31.1950    9.8960  -10.6820 C.ar  311  PHE311     -0.0042
     88  CE1       29.8710    9.0240   -8.4160 C.ar  311  PHE311     -0.0003
     89  CE2       31.9080    9.4010   -9.6120 C.ar  311  PHE311     -0.0003
     90  CZ        31.2530    8.9500   -8.4760 C.ar  311  PHE311     -0.0000
@<TRIPOS>BOND
     1    83    82    2
     2    82    81    1
     3    80    81    1
     4    81    84    1
     5    84    85    1
     6    87    85   ar
     7    87    89   ar
     8    85    86   ar
     9    34    33    2
    10    89    90   ar
    11    86    88   ar
    12     8     6    1
    13    31    32    1
    14    33    32    1
    15     4     3    2
    16     2     3    1
    17     2     1    1
    18     2     5    1
    19    90    88   ar
    20    32    35    1
    21     3     9   am
    22    35    36    1
    23     6     5    1
    24     6     7    1
    25    38    37   ar
    26    36    37    1
    27    37    39   ar
    28     9    10    1
    29    10    11    1
    30    45    46    1
    31    45    44    1
    32    48    46   ar
    33    59    58    1
    34    59    60    2
    35    11    13   am
    36    11    12    2
    37    46    47   ar
    38    27    26    2
    39    19    17    1
    40    18    17    1
    41    58    61    1
    42    58    57    1
    43    13    14    1
    44    64    62    1
    45    41    40    1
    46    41    44    1
    47    41    42    1
    48    61    62    1
    49    43    42    2
    50    17    14    1
    51    26    25    1
    52    42    49   am
    53    62    63    1
    54    14    15    1
    55    16    15    2
    56    29    28    1
    57    15    20   am
    58    49    50    1
    59    24    25    1
    60    25    28    1
    61    28    30    1
    62    51    50    1
    63    51    52    2
    64    50    53    1
    65    20    21    1
    66    21    22    1
    67    71    69    1
    68    55    54    2
    69    23    22    2
    70    53    54    1
    71    54    56   am
    72    69    70    1
    73    69    66    1
    74    65    66    1
    75    66    67    1
    76    78    77   ar
    77    68    67    2
    78    67    72   am
    79    76    77    1
    80    76    73    1
    81    72    73    1
    82    77    79   ar
    83    73    74    1
    84    74    75    2
