@<TRIPOS>MOLECULE
tmp/3nx8A00.pdb
 102 95 0 0 0
SMALL
GASTEIGER

@<TRIPOS>ATOM
      1  N         27.5940   15.1660   -8.1380 N.3    35  LEU35      -0.1231
      2  CA        27.9400   13.8020   -8.4860 C.3    35  LEU35       0.1693
      3  C         26.8090   12.8200   -8.1940 C.2    35  LEU35       0.2592
      4  O         26.7500   11.7560   -8.8090 O.2    35  LEU35      -0.2718
      5  CB        29.1490   13.3250   -7.6790 C.3    35  LEU35       0.0284
      6  CG        30.5050   13.9570   -7.9560 C.3    35  LEU35       0.0019
      7  CD1       31.5630   13.2940   -7.0800 C.3    35  LEU35       0.0001
      8  CD2       30.8760   13.8210   -9.4200 C.3    35  LEU35       0.0001
      9  N         25.9520   13.1710   -7.2430 N.am   36  GLY36      -0.1957
     10  CA        24.8820   12.2550   -6.8850 C.3    36  GLY36       0.1869
     11  C         24.1260   12.6770   -5.6440 C.2    36  GLY36       0.2309
     12  O         24.4480   13.6870   -5.0230 O.2    36  GLY36      -0.2863
     13  N         25.9130   15.6970   -3.1190 N.3    43  VAL43      -0.1245
     14  CA        27.3380   15.4530   -3.1130 C.3    43  VAL43       0.1561
     15  C         27.8940   16.0850   -4.3900 C.2    43  VAL43       0.2260
     16  O         27.3660   15.7280   -5.4430 O.2    43  VAL43      -0.2867
     17  CB        27.7000   13.9690   -3.0630 C.3    43  VAL43       0.0252
     18  CG1       29.1880   13.7910   -3.3530 C.3    43  VAL43       0.0019
     19  CG2       27.3470   13.3510   -1.7100 C.3    43  VAL43       0.0019
     20  N         35.0220   14.9660   -2.9110 N.3    56  ALA56      -0.1245
     21  CA        33.5650   14.8960   -3.0030 C.3    56  ALA56       0.1562
     22  C         32.9500   15.4900   -1.7400 C.2    56  ALA56       0.2260
     23  O         33.1660   14.9870   -0.6430 O.2    56  ALA56      -0.2867
     24  CB        33.0740   13.4690   -3.2080 C.3    56  ALA56       0.0290
     25  N         34.7990    4.8730    2.2750 N.3    90  VAL90      -0.1245
     26  CA        35.2110    6.1920    1.8210 C.3    90  VAL90       0.1561
     27  C         35.6740    7.0460    3.0030 C.2    90  VAL90       0.2260
     28  O         34.9760    7.1950    4.0070 O.2    90  VAL90      -0.2867
     29  CB        34.0760    6.9700    1.1350 C.3    90  VAL90       0.0252
     30  CG1       34.6100    8.3540    0.7870 C.3    90  VAL90       0.0019
     31  CG2       33.5460    6.2390   -0.0860 C.3    90  VAL90       0.0019
     32  N         34.8250   14.3660    1.5320 N.3   106  MET106     -0.1230
     33  CA        35.1910   12.9750    1.4060 C.3   106  MET106      0.1702
     34  C         36.1350   12.7560    0.2300 C.2   106  MET106      0.2592
     35  O         36.1910   13.5890   -0.6700 O.2   106  MET106     -0.2718
     36  CB        33.9510   12.0840    1.1760 C.3   106  MET106      0.0401
     37  CG        32.9490   12.1330    2.3370 C.3   106  MET106      0.0596
     38  SD        31.3500   11.4630    1.8410 S.3   106  MET106     -0.1393
     39  CE        30.9450   12.4680    0.4230 C.3   106  MET106      0.0692
     40  N         36.8460   11.6360    0.2510 N.am  107  GLU107     -0.1966
     41  CA        37.6730   11.2550   -0.8830 C.3   107  GLU107      0.1733
     42  C         36.8560   11.1940   -2.1650 C.2   107  GLU107      0.2616
     43  O         35.7650   10.6180   -2.1190 O.2   107  GLU107     -0.2715
     44  CB        38.2900    9.8710   -0.6390 C.3   107  GLU107      0.0429
     45  CG        39.0440    9.3260   -1.8490 C.3   107  GLU107      0.1163
     46  CD        39.8800    8.1140   -1.4630 C.2   107  GLU107      0.3649
     47  OE1       40.2270    8.0050   -0.2670 O.co2 107  GLU107     -0.2457
     48  OE2       40.1800    7.2810   -2.3430 O.co2 107  GLU107     -0.2457
     49  N         37.3510   11.7480   -3.2740 N.am  108  TYR108     -0.1960
     50  CA        36.6510   11.6060   -4.5420 C.3   108  TYR108      0.1771
     51  C         36.9490   10.2190   -5.1050 C.2   108  TYR108      0.2619
     52  O         38.1230    9.8510   -5.1880 O.2   108  TYR108     -0.2715
     53  CB        37.0770   12.6540   -5.5660 C.3   108  TYR108      0.0574
     54  CG        36.5230   12.4480   -6.9560 C.ar  108  TYR108     -0.0198
     55  CD1       35.1840   12.1260   -7.1380 C.ar  108  TYR108     -0.0009
     56  CD2       37.3210   12.5770   -8.0850 C.ar  108  TYR108     -0.0009
     57  CE1       34.6360   11.9310   -8.3950 C.ar  108  TYR108      0.0417
     58  CE2       36.7870   12.3820   -9.3510 C.ar  108  TYR108      0.0417
     59  CZ        35.4540   12.0630   -9.4970 C.ar  108  TYR108      0.1957
     60  OH        34.9150   11.8680  -10.7460 O.3   108  TYR108     -0.2866
     61  N         35.9250    9.4750   -5.4840 N.am  109  VAL109     -0.1977
     62  CA        36.1210    8.1190   -5.9830 C.3   109  VAL109      0.1596
     63  C         35.5540    8.0430   -7.4070 C.2   109  VAL109      0.2287
     64  O         34.3410    7.9350   -7.5920 O.2   109  VAL109     -0.2864
     65  CB        35.4390    7.0750   -5.0840 C.3   109  VAL109      0.0276
     66  CG1       35.5710    5.6770   -5.6820 C.3   109  VAL109      0.0022
     67  CG2       36.0040    7.0950   -3.6720 C.3   109  VAL109      0.0022
     68  N         29.3550    4.6450   -9.1610 N.3   113  GLU113     -0.1245
     69  CA        28.6270    3.6920   -8.3470 C.3   113  GLU113      0.1567
     70  C         28.6080    2.3110   -8.9850 C.2   113  GLU113      0.2260
     71  O         28.5080    2.1690  -10.2080 O.2   113  GLU113     -0.2867
     72  CB        27.1740    4.1550   -8.1490 C.3   113  GLU113      0.0388
     73  CG        27.0950    5.5670   -7.6050 C.3   113  GLU113      0.1160
     74  CD        25.6980    6.1490   -7.5680 C.2   113  GLU113      0.3649
     75  OE1       24.7410    5.4520   -7.9550 O.co2 113  GLU113     -0.2457
     76  OE2       25.5690    7.3150   -7.1430 O.co2 113  GLU113     -0.2457
     77  N         31.0250    2.7580   -4.1670 N.3   159  LEU159     -0.1245
     78  CA        31.7640    3.3340   -5.2950 C.3   159  LEU159      0.1561
     79  C         32.9180    2.4480   -5.7400 C.2   159  LEU159      0.2260
     80  O         33.5090    1.6810   -4.9790 O.2   159  LEU159     -0.2867
     81  CB        32.2550    4.7310   -4.9020 C.3   159  LEU159      0.0270
     82  CG        31.2120    5.6370   -4.2490 C.3   159  LEU159      0.0019
     83  CD1       31.8670    6.8790   -3.6730 C.3   159  LEU159      0.0001
     84  CD2       30.1060    6.0160   -5.2380 C.3   159  LEU159      0.0001
     85  N         29.9440    4.3980    0.7250 N.3   169  THR169     -0.1218
     86  CA        29.6910    5.7880    1.1440 C.3   169  THR169      0.1862
     87  C         28.3040    5.8910    1.7850 C.2   169  THR169      0.2287
     88  O         27.5910    4.8890    1.7580 O.2   169  THR169     -0.2866
     89  CB        29.7930    6.7810   -0.0260 C.3   169  THR169      0.1770
     90  OG1       29.6600    8.1210    0.4630 O.3   169  THR169     -0.2211
     91  CG2       28.6360    6.5980   -1.0030 C.3   169  THR169      0.0375
     92  N         29.8080    9.0550  -13.6180 N.3   311  PHE311     -0.1241
     93  CA        28.6440    9.4510  -12.8410 C.3   311  PHE311      0.1605
     94  C         27.5760   10.0260  -13.7590 C.2   311  PHE311      0.2264
     95  O         27.9790   10.7010  -14.7090 O.2   311  PHE311     -0.2867
     96  CB        29.0270   10.5220  -11.8130 C.3   311  PHE311      0.0534
     97  CG        29.8090    9.9650  -10.6300 C.ar  311  PHE311     -0.0203
     98  CD1       29.1620    9.5210   -9.4940 C.ar  311  PHE311     -0.0042
     99  CD2       31.1950    9.8960  -10.6820 C.ar  311  PHE311     -0.0042
    100  CE1       29.8710    9.0240   -8.4160 C.ar  311  PHE311     -0.0003
    101  CE2       31.9080    9.4010   -9.6120 C.ar  311  PHE311     -0.0003
    102  CZ        31.2530    8.9500   -8.4760 C.ar  311  PHE311     -0.0000
@<TRIPOS>BOND
     1    95    94    2
     2    94    93    1
     3    92    93    1
     4    93    96    1
     5    96    97    1
     6    60    59    1
     7    99    97   ar
     8    99   101   ar
     9    97    98   ar
    10    71    70    2
    11   101   102   ar
    12    59    58   ar
    13    59    57   ar
    14    98   100   ar
    15     8     6    1
    16    58    56   ar
    17    68    69    1
    18    70    69    1
    19     4     3    2
    20     2     3    1
    21     2     1    1
    22     2     5    1
    23   102   100   ar
    24    57    55   ar
    25    69    72    1
    26     3     9   am
    27    72    73    1
    28    56    54   ar
    29     6     5    1
    30     6     7    1
    31    75    74   ar
    32    73    74    1
    33    64    63    2
    34    74    76   ar
    35    63    62    1
    36     9    10    1
    37    55    54   ar
    38    54    53    1
    39    10    11    1
    40    62    61    1
    41    62    65    1
    42    79    78    1
    43    79    80    2
    44    66    65    1
    45    11    12    2
    46    53    50    1
    47    61    51   am
    48    16    15    2
    49    78    81    1
    50    78    77    1
    51    84    82    1
    52    52    51    2
    53    51    50    1
    54    65    67    1
    55    81    82    1
    56    50    49    1
    57    15    14    1
    58    82    83    1
    59    18    17    1
    60    49    42   am
    61    24    21    1
    62    13    14    1
    63    14    17    1
    64    17    19    1
    65    21    20    1
    66    21    22    1
    67    48    46   ar
    68    42    43    2
    69    42    41    1
    70    45    46    1
    71    45    44    1
    72    22    23    2
    73    46    47   ar
    74    91    89    1
    75    41    44    1
    76    41    40    1
    77    35    34    2
    78    31    29    1
    79    89    90    1
    80    89    86    1
    81    34    40   am
    82    34    33    1
    83    39    38    1
    84    85    86    1
    85    30    29    1
    86    29    26    1
    87    86    87    1
    88    36    33    1
    89    36    37    1
    90    33    32    1
    91    88    87    2
    92    26    25    1
    93    26    27    1
    94    38    37    1
    95    27    28    2
