@<TRIPOS>MOLECULE
tmp/3nxdA00.pdb
 108 102 0 0 0
SMALL
GASTEIGER

@<TRIPOS>ATOM
      1  N          2.5770    5.9770   29.1200 N.3    26  PRO26      -0.2102
      2  CA         1.5840    6.5300   28.1850 C.3    26  PRO26       0.1504
      3  C          0.2060    5.8580   28.2190 C.2    26  PRO26       0.2575
      4  O         -0.7920    6.4960   27.8700 O.2    26  PRO26      -0.2718
      5  CB         2.2410    6.3400   26.8160 C.3    26  PRO26       0.0282
      6  CG         3.2110    5.2430   27.0060 C.3    26  PRO26       0.0208
      7  CD         3.7030    5.3420   28.4090 C.3    26  PRO26       0.0893
      8  N          0.1500    4.5880   28.6160 N.am   27  ASP27      -0.1974
      9  CA        -1.1360    3.9210   28.8400 C.3    27  ASP27       0.1708
     10  C         -1.0950    2.8980   29.9800 C.2    27  ASP27       0.2293
     11  O         -0.0860    2.7740   30.6830 O.2    27  ASP27      -0.2864
     12  CB        -1.7210    3.3320   27.5370 C.3    27  ASP27       0.1436
     13  CG        -0.9600    2.1120   27.0210 C.2    27  ASP27       0.3671
     14  OD1       -0.2830    1.4100   27.8030 O.co2  27  ASP27      -0.2456
     15  OD2       -1.0630    1.8410   25.8080 O.co2  27  ASP27      -0.2456
     16  N          1.8080    0.2340   29.8600 N.3    30  LEU30      -0.1245
     17  CA         3.1760    0.6690   29.5530 C.3    30  LEU30       0.1561
     18  C          3.9660    1.3200   30.6930 C.2    30  LEU30       0.2260
     19  O          4.7860    2.2090   30.4580 O.2    30  LEU30      -0.2867
     20  CB         3.1810    1.5520   28.2960 C.3    30  LEU30       0.0270
     21  CG         2.8590    0.8270   26.9850 C.3    30  LEU30       0.0019
     22  CD1        2.6910    1.8160   25.8440 C.3    30  LEU30       0.0001
     23  CD2        3.9250   -0.2100   26.6420 C.3    30  LEU30       0.0001
     24  N          7.8160    2.5510   30.5390 N.3    33  PHE33      -0.1241
     25  CA         8.0760    3.0640   29.1980 C.3    33  PHE33       0.1605
     26  C          7.5970    4.5110   29.0890 C.2    33  PHE33       0.2264
     27  O          6.6980    4.9330   29.8210 O.2    33  PHE33      -0.2867
     28  CB         7.3150    2.2490   28.1480 C.3    33  PHE33       0.0534
     29  CG         7.8000    0.8340   27.9710 C.ar   33  PHE33      -0.0203
     30  CD1        8.6290    0.5020   26.9030 C.ar   33  PHE33      -0.0042
     31  CD2        7.3860   -0.1770   28.8380 C.ar   33  PHE33      -0.0042
     32  CE1        9.0590   -0.8150   26.7120 C.ar   33  PHE33      -0.0003
     33  CE2        7.8110   -1.4930   28.6590 C.ar   33  PHE33      -0.0003
     34  CZ         8.6510   -1.8140   27.5940 C.ar   33  PHE33      -0.0000
     35  N          5.9980    7.4580   26.2540 N.3    35  LYS35      -0.1231
     36  CA         5.3430    7.5650   24.9580 C.3    35  LYS35       0.1693
     37  C          6.4220    7.5980   23.8810 C.2    35  LYS35       0.2592
     38  O          7.5400    8.0670   24.1350 O.2    35  LYS35      -0.2718
     39  CB         4.5050    8.8470   24.8850 C.3    35  LYS35       0.0285
     40  CG         3.6200    8.9450   23.6380 C.3    35  LYS35       0.0035
     41  CD         2.8340   10.2440   23.5840 C.3    35  LYS35       0.0206
     42  CE         1.9650   10.3210   22.3240 C.3    35  LYS35       0.1093
     43  NZ         0.9780    9.1990   22.2360 N.3    35  LYS35      -0.1314
     44  N          6.0940    7.0880   22.6920 N.am   36  SER36      -0.1952
     45  CA         7.0110    7.1620   21.5600 C.3    36  SER36       0.1924
     46  C          7.4810    8.5950   21.3490 C.2    36  SER36       0.2314
     47  O          6.7110    9.5500   21.5030 O.2    36  SER36      -0.2863
     48  CB         6.3790    6.5980   20.2880 C.3    36  SER36       0.2116
     49  OG         6.4620    5.1840   20.2780 O.3    36  SER36      -0.2180
     50  N          7.8440   -7.9110   19.6210 N.3    95  ASN95      -0.1240
     51  CA         7.5070   -6.9710   18.5390 C.3    95  ASN95       0.1653
     52  C          8.4820   -5.7970   18.3590 C.2    95  ASN95       0.2266
     53  O          8.0690   -4.6490   18.1640 O.2    95  ASN95      -0.2867
     54  CB         6.0670   -6.4650   18.6870 C.3    95  ASN95       0.1155
     55  CG         5.5150   -5.8870   17.3960 C.2    95  ASN95       0.2627
     56  OD1        5.8290   -6.3660   16.3050 O.2    95  ASN95      -0.2716
     57  ND2        4.6990   -4.8460   17.5130 N.am   95  ASN95      -0.0877
     58  N         13.6930    1.5650   23.7200 N.3   234  PHE234     -0.1241
     59  CA        13.1950    0.3860   23.0250 C.3   234  PHE234      0.1605
     60  C         12.6790    0.8120   21.6580 C.2   234  PHE234      0.2264
     61  O         11.9280    1.7800   21.5470 O.2   234  PHE234     -0.2867
     62  CB        12.0710   -0.2860   23.8200 C.3   234  PHE234      0.0534
     63  CG        11.4390   -1.4590   23.1080 C.ar  234  PHE234     -0.0203
     64  CD1       10.0970   -1.4240   22.7400 C.ar  234  PHE234     -0.0042
     65  CD2       12.1880   -2.5940   22.8020 C.ar  234  PHE234     -0.0042
     66  CE1        9.5070   -2.5050   22.0820 C.ar  234  PHE234     -0.0003
     67  CE2       11.6080   -3.6800   22.1420 C.ar  234  PHE234     -0.0003
     68  CZ        10.2610   -3.6310   21.7820 C.ar  234  PHE234     -0.0000
     69  N         10.3920   -0.0940   18.5160 N.3   236  ASN236     -0.1225
     70  CA         9.2820   -0.9060   18.0360 C.3   236  ASN236      0.1785
     71  C          9.4960   -1.3330   16.5900 C.2   236  ASN236      0.2597
     72  O         10.3170   -0.7460   15.8810 O.2   236  ASN236     -0.2718
     73  CB         7.9720   -0.1220   18.1560 C.3   236  ASN236      0.1169
     74  CG         7.5990    0.1750   19.5940 C.2   236  ASN236      0.2627
     75  OD1        7.3800   -0.7360   20.3920 O.2   236  ASN236     -0.2716
     76  ND2        7.5110    1.4570   19.9310 N.am  236  ASN236     -0.0877
     77  N          8.7480   -2.3480   16.1570 N.am  237  ARG237     -0.1966
     78  CA         8.7560   -2.8030   14.7610 C.3   237  ARG237      0.1729
     79  C          8.7290   -1.6350   13.7700 C.2   237  ARG237      0.2616
     80  O          9.5010   -1.6150   12.8120 O.2   237  ARG237     -0.2715
     81  CB         7.5710   -3.7460   14.4990 C.3   237  ARG237      0.0348
     82  CG         7.3690   -4.1370   13.0260 C.3   237  ARG237      0.0492
     83  CD         6.0530   -4.8850   12.8190 C.3   237  ARG237      0.2205
     84  NE         5.9920   -6.0820   13.6510 N.pl3 237  ARG237     -0.0865
     85  CZ         6.3500   -7.3000   13.2570 C.cat 237  ARG237      0.5346
     86  NH1        6.7830   -7.5140   12.0200 N.pl3 237  ARG237      0.1354
     87  NH2        6.2650   -8.3130   14.1080 N.pl3 237  ARG237      0.1354
     88  N          7.8500   -0.6670   14.0230 N.am  238  SER238     -0.1950
     89  CA         7.6320    0.4740   13.1230 C.3   238  SER238      0.1924
     90  C          8.7980    1.4630   13.0840 C.2   238  SER238      0.2314
     91  O          8.8440    2.3440   12.2170 O.2   238  SER238     -0.2863
     92  CB         6.3600    1.2200   13.5270 C.3   238  SER238      0.2116
     93  OG         6.5640    1.9460   14.7330 O.3   238  SER238     -0.2180
     94  N          9.4450    3.3950   15.7670 N.3   240  SER240     -0.1217
     95  CA         9.1620    4.3230   16.8650 C.3   240  SER240      0.1889
     96  C          9.9330    3.9070   18.1170 C.2   240  SER240      0.2288
     97  O         10.1860    2.7190   18.3310 O.2   240  SER240     -0.2866
     98  CB         7.6570    4.4130   17.1430 C.3   240  SER240      0.2089
     99  OG         7.1460    3.1720   17.5940 O.3   240  SER240     -0.2183
    100  N         10.7810    4.3970   22.4300 N.3   242  GLN242     -0.1245
    101  CA        10.2850    4.7550   23.7580 C.3   242  GLN242      0.1566
    102  C         11.4020    4.5950   24.7830 C.2   242  GLN242      0.2260
    103  O         12.1190    3.5910   24.7650 O.2   242  GLN242     -0.2867
    104  CB         9.1160    3.8430   24.1530 C.3   242  GLN242      0.0367
    105  CG         7.9070    3.8870   23.2140 C.3   242  GLN242      0.0905
    106  CD         6.9100    2.7630   23.4710 C.2   242  GLN242      0.2608
    107  OE1        6.7500    1.8660   22.6470 O.2   242  GLN242     -0.2717
    108  NE2        6.2360    2.8100   24.6170 N.am  242  GLN242     -0.0878
@<TRIPOS>BOND
     1    86    85    1
     2    91    90    2
     3    80    79    2
     4    83    82    1
     5    83    84    1
     6    82    81    1
     7    90    89    1
     8    89    92    1
     9    89    88    1
    10    85    84    2
    11    85    87    1
    12    92    93    1
    13    79    88   am
    14    79    78    1
    15    81    78    1
    16    78    77    1
    17    94    95    1
    18    72    71    2
    19    77    71   am
    20    56    55    2
    21    71    70    1
    22    95    98    1
    23    95    96    1
    24    98    99    1
    25    55    57   am
    26    55    54    1
    27    70    73    1
    28    70    69    1
    29    96    97    2
    30    73    74    1
    31    53    52    2
    32    52    51    1
    33    51    54    1
    34    51    50    1
    35    74    76   am
    36    74    75    2
    37    49    48    1
    38    48    45    1
    39    46    47    2
    40    46    45    1
    41    61    60    2
    42    45    44    1
    43    60    59    1
    44    68    66   ar
    45    68    67   ar
    46    66    64   ar
    47    67    65   ar
    48    43    42    1
    49    42    41    1
    50   100   101    1
    51   107   106    2
    52    44    37   am
    53    64    63   ar
    54    65    63   ar
    55    59    58    1
    56    59    62    1
    57    63    62    1
    58   105   106    1
    59   105   104    1
    60   106   108   am
    61    41    40    1
    62    40    39    1
    63   101   104    1
    64   101   102    1
    65    37    38    2
    66    37    36    1
    67   103   102    2
    68    39    36    1
    69    36    35    1
    70    15    13   ar
    71    22    21    1
    72    23    21    1
    73    32    30   ar
    74    32    34   ar
    75     5     6    1
    76     5     2    1
    77    30    29   ar
    78    21    20    1
    79     6     7    1
    80    13    12    1
    81    13    14   ar
    82    12     9    1
    83    34    33   ar
    84     4     3    2
    85    29    28    1
    86    29    31   ar
    87    28    25    1
    88     2     3    1
    89     2     1    1
    90     3     8   am
    91    20    17    1
    92     7     1    1
    93     8     9    1
    94    33    31   ar
    95     9    10    1
    96    26    25    1
    97    26    27    2
    98    25    24    1
    99    17    16    1
   100    17    18    1
   101    10    11    2
   102    19    18    2
