@<TRIPOS>MOLECULE
tmp/3nxoA00.pdb
 161 154 0 0 0
SMALL
GASTEIGER

@<TRIPOS>ATOM
      1  N         21.8310   12.0630    1.6890 N.3     7  ILE7       -0.1231
      2  CA        21.1810   11.2080    2.6530 C.3     7  ILE7        0.1692
      3  C         21.2590    9.7890    2.1120 C.2     7  ILE7        0.2592
      4  O         20.9750    9.5480    0.9290 O.2     7  ILE7       -0.2718
      5  CB        19.7740   11.6810    3.0260 C.3     7  ILE7        0.0266
      6  CG1       19.1810   10.7750    4.1430 C.3     7  ILE7        0.0019
      7  CG2       18.7990   11.7290    1.7870 C.3     7  ILE7        0.0020
      8  CD1       17.9870   11.4490    4.8400 C.3     7  ILE7        0.0001
      9  N         21.6200    8.8270    2.9700 N.am    8  VAL8       -0.1966
     10  CA        21.8410    7.4090    2.5830 C.3     8  VAL8        0.1727
     11  C         21.5670    6.5290    3.7880 C.2     8  VAL8        0.2616
     12  O         21.7430    6.9540    4.9480 O.2     8  VAL8       -0.2715
     13  CB        23.2610    7.2250    2.0550 C.3     8  VAL8        0.0290
     14  CG1       24.2900    7.2930    3.2090 C.3     8  VAL8        0.0023
     15  CG2       23.3240    5.8790    1.3050 C.3     8  VAL8        0.0023
     16  N         21.1910    5.3000    3.5270 N.am    9  ALA9       -0.1977
     17  CA        21.2310    4.1710    4.5030 C.3     9  ALA9        0.1597
     18  C         22.2260    3.1660    3.9910 C.2     9  ALA9        0.2287
     19  O         22.2230    2.8360    2.7690 O.2     9  ALA9       -0.2864
     20  CB        19.8000    3.6170    4.6950 C.3     9  ALA9        0.0319
     21  N         18.7550   -3.0360   -7.7980 N.3    20  GLY20      -0.1210
     22  CA        17.8170   -1.9330   -7.8410 C.3    20  GLY20       0.1956
     23  C         16.8980   -1.8380   -6.6940 C.2    20  GLY20       0.2612
     24  O         15.8850   -1.1160   -6.7560 O.2    20  GLY20      -0.2717
     25  N         17.1360   -2.5200   -5.6000 N.am   21  ASP21      -0.1959
     26  CA        16.2980   -2.4360   -4.4130 C.3    21  ASP21       0.1840
     27  C         17.2520   -2.3540   -3.2130 C.2    21  ASP21       0.2621
     28  O         18.4370   -2.4470   -3.3210 O.2    21  ASP21      -0.2715
     29  CB        15.4110   -3.7180   -4.3970 C.3    21  ASP21       0.1450
     30  CG        14.0700   -3.5540   -3.6850 C.2    21  ASP21       0.3671
     31  OD1       13.9850   -2.7960   -2.7240 O.co2  21  ASP21      -0.2456
     32  OD2       13.0810   -4.1900   -4.1410 O.co2  21  ASP21      -0.2456
     33  N         16.6430   -2.1890   -2.0550 N.am   22  LEU22      -0.1977
     34  CA        17.4550   -2.1680   -0.8570 C.3    22  LEU22       0.1596
     35  C         18.0160   -3.5450   -0.5150 C.2    22  LEU22       0.2287
     36  O         17.3870   -4.5680   -0.7460 O.2    22  LEU22      -0.2864
     37  CB        16.7730   -1.3520    0.2550 C.3    22  LEU22       0.0297
     38  CG        16.4190    0.2100    0.0150 C.3    22  LEU22       0.0022
     39  CD1       16.2560    0.9590    1.2640 C.3    22  LEU22       0.0001
     40  CD2       17.4650    1.0060   -0.7100 C.3    22  LEU22       0.0001
     41  N         12.6240    3.8660    9.2060 N.3    30  GLU30      -0.1231
     42  CA        13.8150    4.3880    8.5150 C.3    30  GLU30       0.1699
     43  C         13.3330    5.1970    7.2910 C.2    30  GLU30       0.2592
     44  O         13.8080    6.3370    7.0110 O.2    30  GLU30      -0.2718
     45  CB        14.8100    3.3190    8.2150 C.3    30  GLU30       0.0402
     46  CG        16.2760    3.7920    8.1580 C.3    30  GLU30       0.1161
     47  CD        16.5770    4.6890    6.9650 C.2    30  GLU30       0.3649
     48  OE1       17.2840    5.7370    7.1850 O.co2  30  GLU30      -0.2457
     49  OE2       16.1520    4.3540    5.8060 O.co2  30  GLU30      -0.2457
     50  N         12.3730    4.6300    6.5240 N.am   31  PHE31      -0.1976
     51  CA        11.8890    5.3270    5.3780 C.3    31  PHE31       0.1639
     52  C         11.1460    6.6250    5.8010 C.2    31  PHE31       0.2290
     53  O         11.3140    7.6880    5.1390 O.2    31  PHE31      -0.2864
     54  CB        10.9970    4.4260    4.5370 C.3    31  PHE31       0.0560
     55  CG        10.4700    5.1140    3.3760 C.ar   31  PHE31      -0.0200
     56  CD1       11.3450    5.5110    2.3710 C.ar   31  PHE31      -0.0042
     57  CD2        9.0930    5.3450    3.2610 C.ar   31  PHE31      -0.0042
     58  CE1       10.8340    6.1820    1.2180 C.ar   31  PHE31      -0.0003
     59  CE2        8.5860    5.9970    2.1170 C.ar   31  PHE31      -0.0003
     60  CZ         9.4440    6.4110    1.1130 C.ar   31  PHE31      -0.0000
     61  N         11.9100    8.4870    8.2980 N.3    33  TYR33      -0.1227
     62  CA        13.0320    9.4260    8.5910 C.3    33  TYR33       0.1736
     63  C         13.5260   10.0530    7.2900 C.2    33  TYR33       0.2595
     64  O         13.6410   11.2820    7.1930 O.2    33  TYR33      -0.2718
     65  CB        14.1490    8.6820    9.2960 C.3    33  TYR33       0.0548
     66  CG        15.4020    9.5180    9.4350 C.ar   33  TYR33      -0.0200
     67  CD1       16.5210    9.3180    8.6140 C.ar   33  TYR33      -0.0009
     68  CD2       15.5070   10.4860   10.4630 C.ar   33  TYR33      -0.0009
     69  CE1       17.7120   10.0880    8.8190 C.ar   33  TYR33       0.0417
     70  CE2       16.6310   11.2510   10.6510 C.ar   33  TYR33       0.0417
     71  CZ        17.6960   11.0480    9.8290 C.ar   33  TYR33       0.1957
     72  OH        18.8600   11.7560   10.0670 O.3    33  TYR33      -0.2866
     73  N         13.7510    9.2590    6.2790 N.am   34  PHE34      -0.1976
     74  CA        14.1730    9.7620    4.9790 C.3    34  PHE34       0.1639
     75  C         13.1300   10.7710    4.4300 C.2    34  PHE34       0.2290
     76  O         13.4990   11.8620    3.9820 O.2    34  PHE34      -0.2864
     77  CB        14.4230    8.6400    3.9720 C.3    34  PHE34       0.0560
     78  CG        14.4840    9.1010    2.5430 C.ar   34  PHE34      -0.0200
     79  CD1       15.6540    9.5640    2.0160 C.ar   34  PHE34      -0.0042
     80  CD2       13.3000    9.0680    1.7200 C.ar   34  PHE34      -0.0042
     81  CE1       15.7210   10.0260    0.6940 C.ar   34  PHE34      -0.0003
     82  CE2       13.3750    9.5540    0.4210 C.ar   34  PHE34      -0.0003
     83  CZ        14.5590    9.9800   -0.1250 C.ar   34  PHE34      -0.0000
     84  N         18.8460   12.9740   -7.9600 N.3    52  MET52      -0.1245
     85  CA        19.1350   11.5100   -7.9710 C.3    52  MET52       0.1570
     86  C         19.5630   11.0920   -9.3340 C.2    52  MET52       0.2261
     87  O         19.1610   11.7290  -10.3550 O.2    52  MET52      -0.2867
     88  CB        17.9490   10.6940   -7.5020 C.3    52  MET52       0.0387
     89  CG        16.7830   10.6630   -8.5040 C.3    52  MET52       0.0595
     90  SD        15.2860   10.1280   -7.7310 S.3    52  MET52      -0.1393
     91  CE        14.7720   11.7000   -6.9650 C.3    52  MET52       0.0692
     92  N         18.4330    5.3690   -9.6290 N.3    56  THR56      -0.1218
     93  CA        17.7110    5.6560   -8.3640 C.3    56  THR56       0.1862
     94  C         16.2810    6.0820   -8.5930 C.2    56  THR56       0.2287
     95  O         15.3600    5.5910   -7.9380 O.2    56  THR56      -0.2866
     96  CB        18.5080    6.7280   -7.5780 C.3    56  THR56       0.1770
     97  OG1       19.7760    6.1140   -7.1920 O.3    56  THR56      -0.2211
     98  CG2       17.8390    7.1040   -6.2750 C.3    56  THR56       0.0375
     99  N         14.2090    3.1660   -9.3290 N.3    59  SER59      -0.1202
    100  CA        14.0530    2.2610   -8.2050 C.3    59  SER59       0.2020
    101  C         12.9470    2.7070   -7.2600 C.2    59  SER59       0.2619
    102  O         12.5360    1.9320   -6.3650 O.2    59  SER59      -0.2717
    103  CB        15.3750    2.1650   -7.4890 C.3    59  SER59       0.2103
    104  OG        15.5660    3.2680   -6.6170 O.3    59  SER59      -0.2182
    105  N         12.3980    3.8970   -7.4350 N.am   60  ILE60      -0.1966
    106  CA        11.3000    4.3020   -6.5740 C.3    60  ILE60       0.1712
    107  C         10.0630    3.6360   -7.2650 C.2    60  ILE60       0.2458
    108  O          9.8810    3.7280   -8.4550 O.2    60  ILE60      -0.2730
    109  CB        11.0610    5.8540   -6.5850 C.3    60  ILE60       0.0289
    110  CG1       12.2940    6.6260   -6.1610 C.3    60  ILE60       0.0022
    111  CG2        9.8940    6.2130   -5.6070 C.3    60  ILE60       0.0023
    112  CD1       12.2540    8.1140   -6.6390 C.3    60  ILE60       0.0001
    113  N          9.2170    2.9520   -6.4890 N.am   61  PRO61      -0.2727
    114  CA         7.9700    2.3770   -7.0710 C.3    61  PRO61       0.1402
    115  C          7.2450    3.4420   -7.9030 C.2    61  PRO61       0.2269
    116  O          7.1740    4.6060   -7.4670 O.2    61  PRO61      -0.2865
    117  CB         7.1520    1.9590   -5.8710 C.3    61  PRO61       0.0296
    118  CG         8.1950    1.7620   -4.7310 C.3    61  PRO61       0.0237
    119  CD         9.3420    2.7900   -5.0520 C.3    61  PRO61       0.0939
    120  N          4.5260    6.2400   -5.9270 N.3    64  ASN64      -0.1240
    121  CA         5.6320    6.7740   -5.1640 C.3    64  ASN64       0.1653
    122  C          6.5000    7.8790   -5.8030 C.2    64  ASN64       0.2266
    123  O          7.2280    8.5550   -5.1150 O.2    64  ASN64      -0.2867
    124  CB         6.5300    5.6370   -4.8420 C.3    64  ASN64       0.1155
    125  CG         6.6350    5.3420   -3.3920 C.2    64  ASN64       0.2627
    126  OD1        6.2670    4.2490   -2.9480 O.2    64  ASN64      -0.2716
    127  ND2        7.2530    6.2610   -2.6450 N.am   64  ASN64      -0.0877
    128  N          8.8470   11.9160   -5.5780 N.3    67  LEU67      -0.1245
    129  CA         8.8030   12.0710   -4.1330 C.3    67  LEU67       0.1561
    130  C          7.9680   13.3160   -3.7910 C.2    67  LEU67       0.2260
    131  O          8.3230   14.3890   -4.2060 O.2    67  LEU67      -0.2867
    132  CB        10.2080   12.0950   -3.5090 C.3    67  LEU67       0.0270
    133  CG        11.0840   10.8720   -3.8340 C.3    67  LEU67       0.0019
    134  CD1       12.4740   11.0340   -3.3380 C.3    67  LEU67       0.0001
    135  CD2       10.5060    9.6750   -3.1920 C.3    67  LEU67       0.0001
    136  N         20.0640   12.0320   -3.1300 N.3   115  VAL115     -0.1301
    137  CA        19.4540   10.8100   -2.6090 C.3   115  VAL115      0.1246
    138  C         19.9460    9.5210   -3.3730 C.3   115  VAL115      0.2009
    139  O         19.2960    8.4990   -2.9970 O.3   115  VAL115     -0.2188
    140  CB        17.9320   10.8900   -2.5110 C.3   115  VAL115      0.0202
    141  CG1       17.4270   12.1510   -1.7490 C.3   115  VAL115      0.0016
    142  CG2       17.2950   10.9180   -3.9410 C.3   115  VAL115      0.0016
    143  N         26.6500   10.3300   -5.1820 N.3   121  TYR121     -0.1241
    144  CA        27.2830   10.5390   -3.8320 C.3   121  TYR121      0.1605
    145  C         28.7630   10.8240   -3.9370 C.2   121  TYR121      0.2264
    146  O         29.2570   11.7690   -3.3160 O.2   121  TYR121     -0.2867
    147  CB        27.0490    9.3040   -2.9960 C.3   121  TYR121      0.0534
    148  CG        25.6410    8.9810   -2.5220 C.ar  121  TYR121     -0.0201
    149  CD1       25.1160    7.6820   -2.6510 C.ar  121  TYR121     -0.0009
    150  CD2       24.8280    9.9620   -1.9500 C.ar  121  TYR121     -0.0009
    151  CE1       23.8930    7.3310   -2.1650 C.ar  121  TYR121      0.0417
    152  CE2       23.6160    9.6640   -1.4770 C.ar  121  TYR121      0.0417
    153  CZ        23.1050    8.3370   -1.5620 C.ar  121  TYR121      0.1957
    154  OH        21.9070    8.0130   -1.0800 O.3   121  TYR121     -0.2866
    155  N         22.4950    6.6650    7.6930 N.3   136  THR136     -0.1218
    156  CA        21.8740    5.6580    8.5780 C.3   136  THR136      0.1862
    157  C         22.7950    4.4420    8.5070 C.2   136  THR136      0.2287
    158  O         22.9360    3.8560    7.4250 O.2   136  THR136     -0.2866
    159  CB        20.4790    5.2970    8.1610 C.3   136  THR136      0.1770
    160  OG1       19.6750    6.4790    8.2270 O.3   136  THR136     -0.2211
    161  CG2       19.9060    4.2330    9.1130 C.3   136  THR136      0.0375
@<TRIPOS>BOND
     1    87    86    2
     2    92    93    1
     3    86    85    1
     4    99   100    1
     5    94    93    1
     6    94    95    2
     7    89    90    1
     8    89    88    1
     9   108   107    2
    10    93    96    1
    11   100   103    1
    12   100   101    1
    13    85    84    1
    14    85    88    1
    15   115   116    2
    16   115   114    1
    17    22    21    1
    18    22    23    1
    19    90    91    1
    20    96    97    1
    21    96    98    1
    22   103   104    1
    23   105   101   am
    24   105   106    1
    25   107   106    1
    26   107   113   am
    27   101   102    2
    28   114   113    1
    29   114   117    1
    30    24    23    2
    31    23    25   am
    32   112   110    1
    33   109   106    1
    34   109   110    1
    35   109   111    1
    36   113   119    1
    37   120   121    1
    38   117   118    1
    39   122   121    1
    40   122   123    2
    41    25    26    1
    42   128   129    1
    43   143   144    1
    44   121   124    1
    45   119   118    1
    46   124   125    1
    47    26    29    1
    48    26    27    1
    49    29    30    1
    50   131   130    2
    51    32    30   ar
    52   129   130    1
    53   129   132    1
    54   142   140    1
    55   145   144    1
    56   145   146    2
    57   133   132    1
    58   133   134    1
    59   133   135    1
    60   144   147    1
    61    30    31   ar
    62   125   126    2
    63   125   127   am
    64   138   139    1
    65   138   137    1
    66    28    27    2
    67    27    33   am
    68   136   137    1
    69   147   148    1
    70   149   148   ar
    71   149   151   ar
    72   137   140    1
    73   148   150   ar
    74   140   141    1
    75   151   153   ar
    76    33    34    1
    77   150   152   ar
    78   153   152   ar
    79   153   154    1
    80    34    35    1
    81    34    37    1
    82    36    35    2
    83    40    38    1
    84    83    82   ar
    85    83    81   ar
    86    38    37    1
    87    38    39    1
    88    82    80   ar
    89    81    79   ar
    90     4     3    2
    91    60    58   ar
    92    60    59   ar
    93    58    56   ar
    94    15    13    1
    95     1     2    1
    96    80    78   ar
    97     7     5    1
    98    79    78   ar
    99    13    10    1
   100    13    14    1
   101     3     2    1
   102     3     9   am
   103    59    57   ar
   104    56    55   ar
   105    78    77    1
   106    10     9    1
   107    10    11    1
   108     2     5    1
   109    19    18    2
   110     5     6    1
   111    57    55   ar
   112    55    54    1
   113    16    11   am
   114    16    17    1
   115    11    12    2
   116    77    74    1
   117    76    75    2
   118    18    17    1
   119     6     8    1
   120    75    74    1
   121    17    20    1
   122    54    51    1
   123    74    73    1
   124    53    52    2
   125    51    52    1
   126    51    50    1
   127    49    47   ar
   128    73    63   am
   129    50    43   am
   130    47    48   ar
   131    47    46    1
   132    44    43    2
   133    64    63    2
   134    63    62    1
   135    43    42    1
   136   158   157    2
   137   155   156    1
   138    46    45    1
   139   159   160    1
   140   159   156    1
   141   159   161    1
   142    45    42    1
   143    61    62    1
   144   157   156    1
   145    42    41    1
   146    62    65    1
   147    67    69   ar
   148    67    66   ar
   149    69    71   ar
   150    65    66    1
   151    66    68   ar
   152    71    72    1
   153    71    70   ar
   154    68    70   ar
