@<TRIPOS>MOLECULE
tmp/3nxqB00.pdb
 264 260 0 0 0
SMALL
GASTEIGER

@<TRIPOS>ATOM
      1  N         11.9500   14.6150   31.1840 N.3    43  ASP43      -0.1239
      2  CA        11.3840   15.4420   30.1200 C.3    43  ASP43       0.1674
      3  C         11.4580   16.9530   30.3800 C.2    43  ASP43       0.2266
      4  O         11.4220   17.7570   29.4360 O.2    43  ASP43      -0.2867
      5  CB         9.9490   15.0110   29.8230 C.3    43  ASP43       0.1410
      6  CG         9.8720   13.6260   29.1860 C.2    43  ASP43       0.3668
      7  OD1        8.7500   13.1990   28.8610 O.co2  43  ASP43      -0.2456
      8  OD2       10.9190   12.9640   29.0080 O.co2  43  ASP43      -0.2456
      9  N          0.4650   19.7370    8.7290 N.3   259  GLN259     -0.1245
     10  CA        -0.6540   19.0420    9.3770 C.3   259  GLN259      0.1566
     11  C         -1.7950   19.9790    9.7690 C.2   259  GLN259      0.2260
     12  O         -2.9340   19.5460    9.9200 O.2   259  GLN259     -0.2867
     13  CB        -0.1750   18.2410   10.5960 C.3   259  GLN259      0.0367
     14  CG         0.0780   19.0610   11.8540 C.3   259  GLN259      0.0905
     15  CD         0.5880   18.2160   13.0120 C.2   259  GLN259      0.2608
     16  OE1        1.6190   17.5420   12.9010 O.2   259  GLN259     -0.2717
     17  NE2       -0.1280   18.2510   14.1340 N.am  259  GLN259     -0.0878
     18  N         11.8590   18.5540   26.7060 N.3   329  VAL329     -0.1245
     19  CA        10.9590   18.1050   25.6550 C.3   329  VAL329      0.1561
     20  C          9.9180   19.2070   25.5440 C.2   329  VAL329      0.2260
     21  O          9.1710   19.4540   26.4940 O.2   329  VAL329     -0.2867
     22  CB        10.2750   16.7620   26.0170 C.3   329  VAL329      0.0252
     23  CG1        9.2300   16.3890   24.9680 C.3   329  VAL329      0.0019
     24  CG2       11.3100   15.6470   26.1750 C.3   329  VAL329      0.0019
     25  N          7.4410   19.5020   23.1670 N.3   331  HIS331     -0.1226
     26  CA         6.1250   19.0300   22.7420 C.3   331  HIS331      0.1752
     27  C          5.1890   18.9810   23.9440 C.2   331  HIS331      0.2596
     28  O          5.5470   18.4410   25.0030 O.2   331  HIS331     -0.2718
     29  CB         6.2070   17.6540   22.0800 C.3   331  HIS331      0.0759
     30  CG         5.0210   17.3340   21.2240 C.ar  331  HIS331      0.0818
     31  ND1        5.0200   17.5140   19.8590 N.ar  331  HIS331     -0.2268
     32  CD2        3.7840   16.8890   21.5450 C.ar  331  HIS331      0.1154
     33  CE1        3.8410   17.1700   19.3710 C.ar  331  HIS331      0.1986
     34  NE2        3.0710   16.7880   20.3740 N.ar  331  HIS331     -0.2212
     35  N          3.9990   19.5470   23.7740 N.am  332  ALA332     -0.1966
     36  CA         3.0310   19.6850   24.8670 C.3   332  ALA332      0.1728
     37  C          2.5150   18.3340   25.3500 C.2   332  ALA332      0.2617
     38  O          2.3220   17.4040   24.5590 O.2   332  ALA332     -0.2715
     39  CB         1.8690   20.5760   24.4450 C.3   332  ALA332      0.0334
     40  N          2.3110   18.2300   26.6560 N.am  333  SER333     -0.1936
     41  CA         1.8130   16.9920   27.2490 C.3   333  SER333      0.2055
     42  C          1.1210   17.2200   28.5830 C.2   333  SER333      0.2643
     43  O          1.3940   18.2070   29.2810 O.2   333  SER333     -0.2714
     44  CB         2.9400   15.9610   27.3900 C.3   333  SER333      0.2130
     45  OG         4.0450   16.5120   28.0750 O.3   333  SER333     -0.2179
     46  N          0.2120   16.3000   28.9120 N.am  334  ALA334     -0.1963
     47  CA        -0.5360   16.3160   30.1580 C.3   334  ALA334      0.1728
     48  C         -0.2170   15.0520   30.9370 C.2   334  ALA334      0.2616
     49  O         -0.0740   13.9720   30.3520 O.2   334  ALA334     -0.2715
     50  CB        -2.0350   16.4080   29.8830 C.3   334  ALA334      0.0334
     51  N         -0.1230   15.1890   32.2540 N.am  335  TRP335     -0.1960
     52  CA         0.4410   14.1370   33.0970 C.3   335  TRP335      0.1771
     53  C         -0.4470   13.7670   34.2830 C.2   335  TRP335      0.2619
     54  O         -0.8250   14.6300   35.0910 O.2   335  TRP335     -0.2715
     55  CB         1.8030   14.5840   33.6230 C.3   335  TRP335      0.0590
     56  CG         2.8240   14.8400   32.5620 C.ar  335  TRP335      0.0006
     57  CD1        2.7990   15.8250   31.6100 C.ar  335  TRP335      0.0946
     58  CD2        4.0450   14.1190   32.3620 C.ar  335  TRP335      0.0152
     59  NE1        3.9210   15.7460   30.8190 N.ar  335  TRP335     -0.2442
     60  CE2        4.7080   14.7150   31.2640 C.ar  335  TRP335      0.0810
     61  CE3        4.6510   13.0340   33.0110 C.ar  335  TRP335      0.0012
     62  CZ2        5.9490   14.2570   30.7950 C.ar  335  TRP335      0.0191
     63  CZ3        5.8840   12.5760   32.5450 C.ar  335  TRP335      0.0001
     64  CH2        6.5170   13.1860   31.4430 C.ar  335  TRP335      0.0015
     65  N         -0.7550   12.4760   34.3840 N.am  336  ASP336     -0.1971
     66  CA        -1.4500   11.9030   35.5250 C.3   336  ASP336      0.1709
     67  C         -0.4260   11.0730   36.3070 C.2   336  ASP336      0.2293
     68  O          0.1510   10.1240   35.7710 O.2   336  ASP336     -0.2864
     69  CB        -2.5940   11.0110   35.0250 C.3   336  ASP336      0.1436
     70  CG        -3.5480   10.5680   36.1370 C.2   336  ASP336      0.3671
     71  OD1       -3.1790   10.6090   37.3290 O.co2 336  ASP336     -0.2456
     72  OD2       -4.6830   10.1600   35.7990 O.co2 336  ASP336     -0.2456
     73  N         -1.0630    9.2420   38.8770 N.3   338  TYR338     -0.1241
     74  CA        -1.7670    8.0680   39.4320 C.3   338  TYR338      0.1605
     75  C         -1.7700    7.9600   40.9670 C.2   338  TYR338      0.2264
     76  O         -1.8590    6.8630   41.5270 O.2   338  TYR338     -0.2867
     77  CB        -1.2670    6.7710   38.7690 C.3   338  TYR338      0.0534
     78  CG        -1.5530    6.7360   37.2870 C.ar  338  TYR338     -0.0201
     79  CD1       -0.5510    7.0090   36.3550 C.ar  338  TYR338     -0.0009
     80  CD2       -2.8390    6.4660   36.8150 C.ar  338  TYR338     -0.0009
     81  CE1       -0.8220    6.9960   34.9860 C.ar  338  TYR338      0.0417
     82  CE2       -3.1180    6.4450   35.4580 C.ar  338  TYR338      0.0417
     83  CZ        -2.1110    6.7150   34.5510 C.ar  338  TYR338      0.1957
     84  OH        -2.3970    6.6910   33.2100 O.3   338  TYR338     -0.2866
     85  N         -4.2940   24.8710   21.9020 N.3   358  THR358     -0.1218
     86  CA        -3.4640   23.7900   22.4480 C.3   358  THR358      0.1862
     87  C         -3.5880   23.7420   23.9770 C.2   358  THR358      0.2287
     88  O         -3.6750   22.6610   24.5670 O.2   358  THR358     -0.2866
     89  CB        -1.9830   23.9210   21.9980 C.3   358  THR358      0.1770
     90  OG1       -1.9120   23.7930   20.5730 O.3   358  THR358     -0.2211
     91  CG2       -1.1090   22.8360   22.6230 C.3   358  THR358      0.0375
     92  N         -6.6740   21.9980   24.7450 N.3   361  HIS361     -0.1226
     93  CA        -6.4560   20.5740   24.4390 C.3   361  HIS361      0.1752
     94  C         -5.8210   19.8770   25.6310 C.2   361  HIS361      0.2595
     95  O         -6.3330   18.8640   26.1120 O.2   361  HIS361     -0.2718
     96  CB        -5.5780   20.4050   23.1770 C.3   361  HIS361      0.0759
     97  CG        -5.2740   18.9740   22.8360 C.ar  361  HIS361      0.0818
     98  ND1       -6.1010   18.2090   22.0420 N.ar  361  HIS361     -0.2268
     99  CD2       -4.2470   18.1660   23.1960 C.ar  361  HIS361      0.1154
    100  CE1       -5.6030   16.9910   21.9310 C.ar  361  HIS361      0.1986
    101  NE2       -4.4780   16.9360   22.6230 N.ar  361  HIS361     -0.2212
    102  N         -4.7140   20.4320   26.1160 N.am  362  GLU362     -0.1979
    103  CA        -4.0040   19.8490   27.2530 C.3   362  GLU362      0.1602
    104  C         -4.8480   19.8690   28.5210 C.2   362  GLU362      0.2287
    105  O         -4.8120   18.9160   29.3020 O.2   362  GLU362     -0.2864
    106  CB        -2.6480   20.5430   27.5080 C.3   362  GLU362      0.0415
    107  CG        -1.6920   20.6050   26.3010 C.3   362  GLU362      0.1163
    108  CD        -1.4490   19.2580   25.6440 C.2   362  GLU362      0.3649
    109  OE1       -1.2940   18.2430   26.3580 O.co2 362  GLU362     -0.2457
    110  OE2       -1.4110   19.2130   24.4010 O.co2 362  GLU362     -0.2457
    111  N         -7.2290   16.9700   28.7320 N.3   365  HIS365     -0.1241
    112  CA        -6.6240   15.7540   29.3000 C.3   365  HIS365      0.1621
    113  C         -6.6380   15.8140   30.8350 C.2   365  HIS365      0.2264
    114  O         -6.9930   14.8390   31.4990 O.2   365  HIS365     -0.2867
    115  CB        -5.1810   15.5640   28.8100 C.3   365  HIS365      0.0745
    116  CG        -5.0550   15.2040   27.3580 C.ar  365  HIS365      0.0817
    117  ND1       -5.7290   14.1460   26.7860 N.ar  365  HIS365     -0.2268
    118  CD2       -4.2930   15.7370   26.3730 C.ar  365  HIS365      0.1154
    119  CE1       -5.4020   14.0530   25.5080 C.ar  365  HIS365      0.1986
    120  NE2       -4.5250   15.0020   25.2320 N.ar  365  HIS365     -0.2212
    121  N         -8.5620   13.3980   33.7770 N.3   369  TYR369     -0.1241
    122  CA        -7.9070   12.8010   34.9480 C.3   369  TYR369      0.1605
    123  C         -8.6340   13.1440   36.2530 C.2   369  TYR369      0.2264
    124  O         -8.8140   12.2790   37.1080 O.2   369  TYR369     -0.2867
    125  CB        -6.4380   13.2180   35.0900 C.3   369  TYR369      0.0534
    126  CG        -5.5190   13.0570   33.8860 C.ar  369  TYR369     -0.0201
    127  CD1       -4.4520   13.9420   33.7030 C.ar  369  TYR369     -0.0009
    128  CD2       -5.6950   12.0350   32.9510 C.ar  369  TYR369     -0.0009
    129  CE1       -3.5850   13.8210   32.6310 C.ar  369  TYR369      0.0417
    130  CE2       -4.8300   11.9040   31.8630 C.ar  369  TYR369      0.0417
    131  CZ        -3.7770   12.8060   31.7160 C.ar  369  TYR369      0.1957
    132  OH        -2.9200   12.7120   30.6550 O.3   369  TYR369     -0.2866
    133  N         -8.5360    5.8520   32.0900 N.3   381  ARG381     -0.1245
    134  CA        -8.2070    6.2040   30.7090 C.3   381  ARG381      0.1563
    135  C         -9.5100    6.6170   30.0310 C.2   381  ARG381      0.2260
    136  O        -10.5850    6.4280   30.6010 O.2   381  ARG381     -0.2867
    137  CB        -7.5770    5.0140   29.9540 C.3   381  ARG381      0.0307
    138  CG        -6.1980    4.5040   30.4570 C.3   381  ARG381      0.0489
    139  CD        -5.1640    5.6290   30.6990 C.3   381  ARG381      0.2205
    140  NE        -4.7050    6.2860   29.4800 N.pl3 381  ARG381     -0.0865
    141  CZ        -4.2890    7.5540   29.4030 C.cat 381  ARG381      0.5346
    142  NH1       -4.2820    8.3490   30.4730 N.pl3 381  ARG381      0.1354
    143  NH2       -3.8840    8.0350   28.2380 N.pl3 381  ARG381      0.1354
    144  N        -10.0890   10.9220   24.7420 N.3   388  HIS388     -0.1226
    145  CA        -9.1590   11.7370   25.5120 C.3   388  HIS388      0.1752
    146  C         -8.6970   12.9370   24.6940 C.2   388  HIS388      0.2595
    147  O         -8.6070   14.0460   25.2190 O.2   388  HIS388     -0.2718
    148  CB        -7.9570   10.9010   25.9640 C.3   388  HIS388      0.0759
    149  CG        -7.6870   10.9750   27.4340 C.ar  388  HIS388      0.0818
    150  ND1       -7.4060   12.1570   28.0860 N.ar  388  HIS388     -0.2268
    151  CD2       -7.6420   10.0060   28.3790 C.ar  388  HIS388      0.1154
    152  CE1       -7.2020   11.9140   29.3670 C.ar  388  HIS388      0.1986
    153  NE2       -7.3490   10.6170   29.5740 N.ar  388  HIS388     -0.2212
    154  N         -8.4340   12.7120   23.4070 N.am  389  GLU389     -0.1979
    155  CA        -7.9350   13.7570   22.5130 C.3   389  GLU389      0.1602
    156  C         -9.0190   14.7680   22.1180 C.2   389  GLU389      0.2287
    157  O         -8.7100   15.8770   21.6800 O.2   389  GLU389     -0.2864
    158  CB        -7.2860   13.1540   21.2460 C.3   389  GLU389      0.0415
    159  CG        -6.0720   12.2110   21.4740 C.3   389  GLU389      0.1163
    160  CD        -4.9610   12.8120   22.3420 C.2   389  GLU389      0.3649
    161  OE1       -4.7630   14.0420   22.3040 O.co2 389  GLU389     -0.2457
    162  OE2       -4.2710   12.0440   23.0570 O.co2 389  GLU389     -0.2457
    163  N         -5.9650   18.7610    8.6450 N.3   435  PHE435     -0.1241
    164  CA        -5.3730   17.7320    9.4930 C.3   435  PHE435      0.1605
    165  C         -5.8300   16.3230    9.1280 C.2   435  PHE435      0.2264
    166  O         -5.0580   15.3710    9.2400 O.2   435  PHE435     -0.2867
    167  CB        -5.6430   17.9980   10.9870 C.3   435  PHE435      0.0534
    168  CG        -5.0350   16.9610   11.8960 C.ar  435  PHE435     -0.0203
    169  CD1       -3.6850   17.0330   12.2540 C.ar  435  PHE435     -0.0042
    170  CD2       -5.7970   15.8930   12.3650 C.ar  435  PHE435     -0.0042
    171  CE1       -3.1110   16.0670   13.0760 C.ar  435  PHE435     -0.0003
    172  CE2       -5.2290   14.9230   13.1900 C.ar  435  PHE435     -0.0003
    173  CZ        -3.8790   15.0210   13.5500 C.ar  435  PHE435     -0.0000
    174  N          8.7350   13.5670   13.0470 N.3   489  LYS489     -0.1231
    175  CA         7.4500   13.8530   13.6820 C.3   489  LYS489      0.1693
    176  C          7.4530   13.2470   15.0940 C.2   489  LYS489      0.2592
    177  O          7.6420   12.0380   15.2420 O.2   489  LYS489     -0.2718
    178  CB         6.3100   13.2790   12.8210 C.3   489  LYS489      0.0285
    179  CG         4.9160   13.3710   13.4420 C.3   489  LYS489      0.0035
    180  CD         4.4670   14.8120   13.5790 C.3   489  LYS489      0.0206
    181  CE         3.2110   14.9190   14.4200 C.3   489  LYS489      0.1093
    182  NZ         2.9730   16.3360   14.7920 N.3   489  LYS489     -0.1314
    183  N          7.2390   14.0900   16.1120 N.am  490  PHE490     -0.1962
    184  CA         7.3470   13.7180   17.5460 C.3   490  PHE490      0.1771
    185  C          6.8690   12.3220   17.9360 C.2   490  PHE490      0.2619
    186  O          7.5930   11.5650   18.5820 O.2   490  PHE490     -0.2715
    187  CB         6.6500   14.7680   18.4540 C.3   490  PHE490      0.0574
    188  CG         6.5640   14.3580   19.9080 C.ar  490  PHE490     -0.0200
    189  CD1        7.6020   14.6460   20.7880 C.ar  490  PHE490     -0.0042
    190  CD2        5.4470   13.6890   20.3970 C.ar  490  PHE490     -0.0042
    191  CE1        7.5350   14.2630   22.1320 C.ar  490  PHE490     -0.0003
    192  CE2        5.3740   13.2950   21.7330 C.ar  490  PHE490     -0.0003
    193  CZ         6.4240   13.5940   22.6040 C.ar  490  PHE490     -0.0000
    194  N          5.6440   11.9890   17.5580 N.am  491  HIS491     -0.1973
    195  CA         5.0010   10.7560   18.0180 C.3   491  HIS491      0.1656
    196  C          5.6860    9.4630   17.5610 C.2   491  HIS491      0.2291
    197  O          5.4840    8.4040   18.1670 O.2   491  HIS491     -0.2864
    198  CB         3.5150   10.7650   17.6230 C.3   491  HIS491      0.0771
    199  CG         2.7930   12.0070   18.0430 C.ar  491  HIS491      0.0820
    200  ND1        1.8660   12.0240   19.0640 N.ar  491  HIS491     -0.2267
    201  CD2        2.8880   13.2830   17.6000 C.ar  491  HIS491      0.1154
    202  CE1        1.4130   13.2550   19.2240 C.ar  491  HIS491      0.1986
    203  NE2        2.0170   14.0380   18.3500 N.ar  491  HIS491     -0.2212
    204  N          8.8780    8.9530   19.8300 N.3   494  ASN494     -0.1240
    205  CA         8.3450    8.8720   21.1800 C.3   494  ASN494      0.1653
    206  C          7.3270    7.7540   21.3380 C.2   494  ASN494      0.2266
    207  O          6.7010    7.6160   22.3840 O.2   494  ASN494     -0.2867
    208  CB         7.8010   10.2290   21.6240 C.3   494  ASN494      0.1155
    209  CG         8.9170   11.1990   21.9630 C.2   494  ASN494      0.2627
    210  OD1        9.3740   11.2400   23.0980 O.2   494  ASN494     -0.2716
    211  ND2        9.3930   11.9470   20.9690 N.am  494  ASN494     -0.0877
    212  N          4.2790    6.8870   20.4490 N.3   496  THR496     -0.1218
    213  CA         2.9160    7.0850   20.9060 C.3   496  THR496      0.1862
    214  C          1.9820    7.1120   19.6890 C.2   496  THR496      0.2287
    215  O          2.2930    7.7570   18.6790 O.2   496  THR496     -0.2866
    216  CB         2.8040    8.3220   21.8650 C.3   496  THR496      0.1770
    217  OG1        1.4580    8.4640   22.3390 O.3   496  THR496     -0.2211
    218  CG2        3.2600    9.6040   21.1790 C.3   496  THR496      0.0375
    219  N         -1.1250    7.4180   16.8470 N.3   498  TYR498     -0.1241
    220  CA        -1.6000    8.6220   16.1930 C.3   498  TYR498      0.1605
    221  C         -3.0550    8.5780   15.7400 C.2   498  TYR498      0.2264
    222  O         -3.6800    9.6280   15.5770 O.2   498  TYR498     -0.2867
    223  CB        -0.6990    8.9820   15.0080 C.3   498  TYR498      0.0534
    224  CG        -0.6100   10.4650   14.8110 C.ar  498  TYR498     -0.0201
    225  CD1        0.1860   11.2460   15.6520 C.ar  498  TYR498     -0.0009
    226  CD2       -1.3380   11.1010   13.8100 C.ar  498  TYR498     -0.0009
    227  CE1        0.2580   12.6210   15.4900 C.ar  498  TYR498      0.0417
    228  CE2       -1.2730   12.4780   13.6430 C.ar  498  TYR498      0.0417
    229  CZ        -0.4800   13.2290   14.4950 C.ar  498  TYR498      0.1957
    230  OH        -0.4040   14.5900   14.3390 O.3   498  TYR498     -0.2866
    231  N         -5.6650    8.0540   17.1710 N.3   500  ARG500     -0.1231
    232  CA        -6.4920    8.7580   18.1570 C.3   500  ARG500      0.1694
    233  C         -6.8720   10.1660   17.7060 C.2   500  ARG500      0.2592
    234  O         -7.9750   10.6390   17.9990 O.2   500  ARG500     -0.2718
    235  CB        -5.7740    8.8230   19.5120 C.3   500  ARG500      0.0321
    236  CG        -4.3620    9.4360   19.4400 C.3   500  ARG500      0.0489
    237  CD        -3.6020    9.2790   20.7480 C.3   500  ARG500      0.2205
    238  NE        -3.5540    7.8790   21.1730 N.pl3 500  ARG500     -0.0865
    239  CZ        -2.9520    7.4500   22.2770 C.cat 500  ARG500      0.5346
    240  NH1       -2.3330    8.3080   23.0840 N.pl3 500  ARG500      0.1354
    241  NH2       -2.9760    6.1600   22.5780 N.pl3 500  ARG500      0.1354
    242  N         -5.9540   10.8290   17.0040 N.am  501  TYR501     -0.1976
    243  CA        -6.1740   12.1950   16.5340 C.3   501  TYR501      0.1639
    244  C         -7.1530   12.2520   15.3710 C.2   501  TYR501      0.2290
    245  O         -8.0220   13.1200   15.3380 O.2   501  TYR501     -0.2864
    246  CB        -4.8480   12.8600   16.1780 C.3   501  TYR501      0.0560
    247  CG        -3.8960   12.9330   17.3460 C.ar  501  TYR501     -0.0198
    248  CD1       -2.7150   12.1970   17.3470 C.ar  501  TYR501     -0.0009
    249  CD2       -4.1840   13.7270   18.4620 C.ar  501  TYR501     -0.0009
    250  CE1       -1.8300   12.2490   18.4200 C.ar  501  TYR501      0.0417
    251  CE2       -3.3010   13.7890   19.5460 C.ar  501  TYR501      0.0417
    252  CZ        -2.1300   13.0400   19.5140 C.ar  501  TYR501      0.1957
    253  OH        -1.2510   13.0940   20.5640 O.3   501  TYR501     -0.2866
    254  N        -10.7530   14.0540   15.6990 N.3   505  PHE505     -0.1241
    255  CA       -11.1580   15.1720   14.8570 C.3   505  PHE505      0.1605
    256  C        -12.5600   14.9720   14.2790 C.2   505  PHE505      0.2264
    257  O        -13.2520   15.9410   13.9710 O.2   505  PHE505     -0.2867
    258  CB       -10.1090   15.4460   13.7740 C.3   505  PHE505      0.0534
    259  CG        -9.0620   16.4450   14.1870 C.ar  505  PHE505     -0.0203
    260  CD1       -8.2460   16.2130   15.2980 C.ar  505  PHE505     -0.0042
    261  CD2       -8.8930   17.6250   13.4680 C.ar  505  PHE505     -0.0042
    262  CE1       -7.2740   17.1330   15.6770 C.ar  505  PHE505     -0.0003
    263  CE2       -7.9250   18.5570   13.8430 C.ar  505  PHE505     -0.0003
    264  CZ        -7.1150   18.3090   14.9520 C.ar  505  PHE505     -0.0000
@<TRIPOS>BOND
     1   163   164    1
     2     9    10    1
     3   165   166    2
     4   165   164    1
     5    10    11    1
     6    10    13    1
     7   164   167    1
     8    11    12    2
     9    13    14    1
    10   167   168    1
    11    14    15    1
    12   168   169   ar
    13   168   170   ar
    14   169   171   ar
    15   170   172   ar
    16   178   179    1
    17   178   175    1
    18    16    15    2
    19    15    17   am
    20   174   175    1
    21   171   173   ar
    22   172   173   ar
    23   179   180    1
    24   261   263   ar
    25   261   259   ar
    26   180   181    1
    27   228   226   ar
    28   228   229   ar
    29   175   176    1
    30   258   259    1
    31   258   255    1
    32   226   224   ar
    33   263   264   ar
    34   257   256    2
    35   259   260   ar
    36   256   255    1
    37   230   229    1
    38   181   182    1
    39   229   227   ar
    40   224   223    1
    41   224   225   ar
    42   255   254    1
    43   264   262   ar
    44   223   220    1
    45   176   177    2
    46   176   183   am
    47   260   262   ar
    48   245   244    2
    49   244   243    1
    50   227   225   ar
    51   222   221    2
    52   221   220    1
    53   183   184    1
    54   246   243    1
    55   246   247    1
    56   220   219    1
    57   243   242    1
    58   242   233   am
    59   231   232    1
    60   247   248   ar
    61   247   249   ar
    62   248   250   ar
    63   184   185    1
    64   184   187    1
    65   194   185   am
    66   194   195    1
    67   196   195    1
    68   196   197    2
    69   201   199   ar
    70   201   203   ar
    71   198   195    1
    72   198   199    1
    73   233   234    2
    74   233   232    1
    75   185   186    2
    76   199   200   ar
    77   232   235    1
    78   203   202   ar
    79   250   252   ar
    80   187   188    1
    81   249   251   ar
    82   215   214    2
    83   200   202   ar
    84    33    31   ar
    85    33    34   ar
    86   236   235    1
    87   236   237    1
    88   252   251   ar
    89   252   253    1
    90   214   213    1
    91   204   205    1
    92    31    30   ar
    93   188   190   ar
    94   188   189   ar
    95    34    32   ar
    96   190   192   ar
    97   212   213    1
    98    90    89    1
    99   237   238    1
   100   189   191   ar
   101   213   216    1
   102   211   209   am
   103   238   239    2
   104   218   216    1
   105   205   206    1
   106   205   208    1
   107    30    32   ar
   108    30    29    1
   109   158   159    1
   110   158   155    1
   111   206   207    2
   112   159   160    1
   113   208   209    1
   114   157   156    2
   115   192   193   ar
   116   216   217    1
   117    85    86    1
   118   100    98   ar
   119   100   101   ar
   120   209   210    2
   121    89    86    1
   122    89    91    1
   123    98    97   ar
   124    29    26    1
   125   156   155    1
   126   191   193   ar
   127   239   241    1
   128   239   240    1
   129   161   160   ar
   130   160   162   ar
   131    86    87    1
   132   155   154    1
   133   101    99   ar
   134    26    25    1
   135    26    27    1
   136    97    96    1
   137    97    99   ar
   138    96    93    1
   139   154   146   am
   140    35    27   am
   141    35    36    1
   142    27    28    2
   143    87    88    2
   144   110   108   ar
   145    93    92    1
   146    93    94    1
   147    39    36    1
   148    38    37    2
   149   146   147    2
   150   146   145    1
   151   144   145    1
   152    36    37    1
   153    23    22    1
   154   120   119   ar
   155   120   118   ar
   156    37    40   am
   157   119   117   ar
   158   145   148    1
   159    20    19    1
   160    20    21    2
   161    94    95    2
   162    94   102   am
   163   108   107    1
   164   108   109   ar
   165    19    22    1
   166    19    18    1
   167   148   149    1
   168    22    24    1
   169   102   103    1
   170   107   106    1
   171   118   116   ar
   172    40    41    1
   173   117   116   ar
   174    41    44    1
   175    41    42    1
   176   103   106    1
   177   103   104    1
   178   116   115    1
   179    44    45    1
   180   149   150   ar
   181   149   151   ar
   182   150   152   ar
   183   143   141    1
   184   151   153   ar
   185   104   105    2
   186    42    46   am
   187    42    43    2
   188   111   112    1
   189   115   112    1
   190     7     6   ar
   191    46    47    1
   192     8     6   ar
   193     6     5    1
   194   112   113    1
   195   152   153   ar
   196   141   140    2
   197   141   142    1
   198     4     3    2
   199   140   139    1
   200     5     2    1
   201    50    47    1
   202   137   138    1
   203   137   134    1
   204   135   136    2
   205   135   134    1
   206     2     3    1
   207     2     1    1
   208    47    48    1
   209    49    48    2
   210   138   139    1
   211   132   131    1
   212   134   133    1
   213    62    60   ar
   214    62    64   ar
   215    59    60   ar
   216    59    57   ar
   217   113   114    2
   218    48    51   am
   219    60    58   ar
   220    64    63   ar
   221    57    56   ar
   222   131   130   ar
   223   131   129   ar
   224   130   128   ar
   225    51    52    1
   226    58    56   ar
   227    58    61   ar
   228    63    61   ar
   229    56    55    1
   230   129   127   ar
   231   128   126   ar
   232    52    55    1
   233    52    53    1
   234    84    83    1
   235   127   126   ar
   236   121   122    1
   237   126   125    1
   238    53    65   am
   239    53    54    2
   240    65    66    1
   241    83    81   ar
   242    83    82   ar
   243   122   125    1
   244   122   123    1
   245    81    79   ar
   246    69    66    1
   247    69    70    1
   248    82    80   ar
   249    66    67    1
   250    68    67    2
   251    72    70   ar
   252    70    71   ar
   253   123   124    2
   254    79    78   ar
   255    80    78   ar
   256    78    77    1
   257    77    74    1
   258    73    74    1
   259    74    75    1
   260    75    76    2
