@<TRIPOS>MOLECULE
tmp/3nxqB03.pdb
 100 95 0 0 0
SMALL
GASTEIGER

@<TRIPOS>ATOM
      1  N        -18.1490   35.3650   18.3810 N.3   403  GLU403     -0.1245
      2  CA       -18.9830   35.7880   19.5010 C.3   403  GLU403      0.1567
      3  C        -18.2760   35.5540   20.8310 C.2   403  GLU403      0.2260
      4  O        -18.3100   36.4140   21.7050 O.2   403  GLU403     -0.2867
      5  CB       -20.3370   35.0670   19.4870 C.3   403  GLU403      0.0388
      6  CG       -21.2190   35.4520   18.2900 C.3   403  GLU403      0.1160
      7  CD       -21.0640   34.5180   17.0760 C.2   403  GLU403      0.3649
      8  OE1      -20.3230   33.4990   17.1460 O.co2 403  GLU403     -0.2457
      9  OE2      -21.7040   34.8080   16.0360 O.co2 403  GLU403     -0.2457
     10  N        -17.0410   43.1370   18.2040 N.3   413  ARG413     -0.1245
     11  CA       -18.2430   42.4140   17.7760 C.3   413  ARG413      0.1563
     12  C        -18.2900   42.3670   16.2510 C.2   413  ARG413      0.2260
     13  O        -18.2760   43.4050   15.5880 O.2   413  ARG413     -0.2867
     14  CB       -19.5060   43.0650   18.3510 C.3   413  ARG413      0.0307
     15  CG       -20.8060   42.4130   17.9130 C.3   413  ARG413      0.0489
     16  CD       -20.9160   40.9700   18.4000 C.3   413  ARG413      0.2205
     17  NE       -22.0980   40.3000   17.8590 N.pl3 413  ARG413     -0.0865
     18  CZ       -23.3530   40.6750   18.0900 C.cat 413  ARG413      0.5346
     19  NH1      -23.6110   41.7230   18.8650 N.pl3 413  ARG413      0.1354
     20  NH2      -24.3570   40.0070   17.5380 N.pl3 413  ARG413      0.1354
     21  N        -22.4140   40.2130   11.4270 N.3   416  ASN416     -0.1225
     22  CA       -22.9400   38.9010   11.0810 C.3   416  ASN416      0.1785
     23  C        -23.4350   38.8250    9.6300 C.2   416  ASN416      0.2597
     24  O        -24.6410   38.8170    9.3650 O.2   416  ASN416     -0.2718
     25  CB       -24.0360   38.5110   12.0760 C.3   416  ASN416      0.1169
     26  CG       -24.4960   37.0790   11.9180 C.2   416  ASN416      0.2627
     27  OD1      -23.7120   36.1840   11.5930 O.2   416  ASN416     -0.2716
     28  ND2      -25.7840   36.8560   12.1570 N.am  416  ASN416     -0.0877
     29  N        -22.4840   38.7790    8.7000 N.am  417  ASP417     -0.1960
     30  CA       -22.7850   38.6660    7.2730 C.3   417  ASP417      0.1840
     31  C        -22.1540   37.4160    6.6500 C.2   417  ASP417      0.2622
     32  O        -21.4210   36.6780    7.3160 O.2   417  ASP417     -0.2715
     33  CB       -22.3660   39.9370    6.5100 C.3   417  ASP417      0.1450
     34  CG       -20.9240   40.3690    6.7990 C.2   417  ASP417      0.3671
     35  OD1      -20.0340   39.5070    6.9640 O.co2 417  ASP417     -0.2456
     36  OD2      -20.6780   41.5920    6.8500 O.co2 417  ASP417     -0.2456
     37  N        -22.4470   37.1960    5.3710 N.am  418  THR418     -0.1951
     38  CA       -21.9600   36.0350    4.6310 C.3   418  THR418      0.1897
     39  C        -20.4340   35.9860    4.6110 C.2   418  THR418      0.2313
     40  O        -19.8460   34.9230    4.8050 O.2   418  THR418     -0.2863
     41  CB       -22.4990   36.0300    3.1780 C.3   418  THR418      0.1794
     42  OG1      -23.8900   36.3790    3.1780 O.3   418  THR418     -0.2208
     43  CG2      -22.3170   34.6580    2.5260 C.3   418  THR418      0.0378
     44  N        -18.7190   34.8900    7.9140 N.3   421  ASP421     -0.1239
     45  CA       -18.9640   33.4650    8.0860 C.3   421  ASP421      0.1674
     46  C        -17.9530   32.6350    7.2880 C.2   421  ASP421      0.2266
     47  O        -17.3700   31.6780    7.8060 O.2   421  ASP421     -0.2867
     48  CB       -20.3890   33.1350    7.6340 C.3   421  ASP421      0.1410
     49  CG       -21.1830   32.3870    8.6900 C.2   421  ASP421      0.3668
     50  OD1      -20.7800   32.4010    9.8750 O.co2 421  ASP421     -0.2456
     51  OD2      -22.2270   31.7950    8.3310 O.co2 421  ASP421     -0.2456
     52  N        -29.2370   25.4720   22.2010 N.3   521  TYR521     -0.1227
     53  CA       -28.8790   26.3300   21.0790 C.3   521  TYR521      0.1736
     54  C        -29.6030   25.8660   19.8170 C.2   521  TYR521      0.2595
     55  O        -29.7640   24.6640   19.5950 O.2   521  TYR521     -0.2718
     56  CB       -27.3620   26.3340   20.8780 C.3   521  TYR521      0.0548
     57  CG       -26.8890   27.2620   19.7880 C.ar  521  TYR521     -0.0200
     58  CD1      -26.8220   28.6420   19.9970 C.ar  521  TYR521     -0.0009
     59  CD2      -26.5050   26.7620   18.5470 C.ar  521  TYR521     -0.0009
     60  CE1      -26.3880   29.4990   18.9910 C.ar  521  TYR521      0.0417
     61  CE2      -26.0680   27.6060   17.5400 C.ar  521  TYR521      0.0417
     62  CZ       -26.0100   28.9690   17.7670 C.ar  521  TYR521      0.1957
     63  OH       -25.5760   29.7980   16.7640 O.3   521  TYR521     -0.2866
     64  N        -30.0350   26.8200   18.9960 N.am  522  GLU522     -0.1965
     65  CA       -30.8800   26.5210   17.8400 C.3   522  GLU522      0.1733
     66  C        -30.3720   27.0960   16.5120 C.2   522  GLU522      0.2617
     67  O        -30.8890   26.7480   15.4470 O.2   522  GLU522     -0.2715
     68  CB       -32.3180   26.9820   18.1030 C.3   522  GLU522      0.0429
     69  CG       -32.9810   26.2840   19.2640 C.3   522  GLU522      0.1163
     70  CD       -33.2290   24.8220   19.0710 C.2   522  GLU522      0.3649
     71  OE1      -33.1790   24.3130   17.9200 O.co2 522  GLU522     -0.2457
     72  OE2      -33.5880   24.2030   20.0840 O.co2 522  GLU522     -0.2457
     73  N        -29.3670   27.9690   16.5770 N.am  523  GLY523     -0.1941
     74  CA       -28.7870   28.5890   15.3780 C.3   523  GLY523      0.1998
     75  C        -27.8510   27.6890   14.5820 C.2   523  GLY523      0.2480
     76  O        -27.8720   26.4680   14.7490 O.2   523  GLY523     -0.2729
     77  N        -27.0230   28.2860   13.6990 N.am  524  PRO524     -0.2726
     78  CA       -26.0370   27.5310   12.9230 C.3   524  PRO524      0.1402
     79  C        -24.9930   26.8860   13.8360 C.2   524  PRO524      0.2269
     80  O        -24.5130   27.5240   14.7730 O.2   524  PRO524     -0.2865
     81  CB       -25.3860   28.6030   12.0390 C.3   524  PRO524      0.0296
     82  CG       -26.3620   29.7190   12.0040 C.3   524  PRO524      0.0237
     83  CD       -26.9950   29.7180   13.3560 C.3   524  PRO524      0.0939
     84  N        -21.6780   28.5460   14.9280 N.3   527  GLN527     -0.1245
     85  CA       -21.7630   29.7940   15.6930 C.3   527  GLN527      0.1566
     86  C        -22.0940   29.5330   17.1620 C.2   527  GLN527      0.2260
     87  O        -22.1730   30.4580   17.9730 O.2   527  GLN527     -0.2867
     88  CB       -22.7880   30.7500   15.0740 C.3   527  GLN527      0.0367
     89  CG       -22.3940   31.2680   13.6980 C.3   527  GLN527      0.0905
     90  CD       -23.2660   32.4130   13.2190 C.2   527  GLN527      0.2608
     91  OE1      -24.4300   32.5280   13.5950 O.2   527  GLN527     -0.2717
     92  NE2      -22.6980   33.2700   12.3810 N.am  527  GLN527     -0.0878
     93  N        -21.3440   25.3840    4.6310 N.3   576  LEU576     -0.1245
     94  CA       -21.3210   26.6450    3.8850 C.3   576  LEU576      0.1561
     95  C        -20.0040   26.8720    3.1520 C.2   576  LEU576      0.2260
     96  O        -20.0040   27.3540    2.0180 O.2   576  LEU576     -0.2867
     97  CB       -21.6230   27.8350    4.8040 C.3   576  LEU576      0.0270
     98  CG       -23.0590   27.9770    5.3190 C.3   576  LEU576      0.0019
     99  CD1      -23.1240   28.9990    6.4530 C.3   576  LEU576      0.0001
    100  CD2      -24.0320   28.3450    4.1880 C.3   576  LEU576      0.0001
@<TRIPOS>BOND
     1    96    95    2
     2    43    41    1
     3    95    94    1
     4    41    42    1
     5    41    38    1
     6    94    93    1
     7    94    97    1
     8   100    98    1
     9    39    38    1
    10    39    40    2
    11    38    37    1
    12    97    98    1
    13    98    99    1
    14    37    31   am
    15    33    34    1
    16    33    30    1
    17    31    30    1
    18    31    32    2
    19    34    36   ar
    20    34    35   ar
    21    30    29    1
    22    46    47    2
    23    46    45    1
    24    48    45    1
    25    48    49    1
    26    44    45    1
    27    51    49   ar
    28    49    50   ar
    29    29    23   am
    30    24    23    2
    31    23    22    1
    32    22    21    1
    33    22    25    1
    34    27    26    2
    35    26    25    1
    36    26    28   am
    37    82    81    1
    38    82    83    1
    39    81    78    1
    40    92    90   am
    41    78    77    1
    42    78    79    1
    43    90    91    2
    44    90    89    1
    45    83    77    1
    46    89    88    1
    47    77    75   am
    48    79    80    2
    49    75    76    2
    50    75    74    1
    51    84    85    1
    52    88    85    1
    53    74    73    1
    54    67    66    2
    55    13    12    2
    56    85    86    1
    57     9     7   ar
    58    12    11    1
    59    66    73   am
    60    66    65    1
    61    63    62    1
    62     7     8   ar
    63     7     6    1
    64    86    87    2
    65    20    18    1
    66    61    62   ar
    67    61    59   ar
    68    62    60   ar
    69    11    10    1
    70    11    14    1
    71    65    68    1
    72    65    64    1
    73    17    18    2
    74    17    16    1
    75    15    14    1
    76    15    16    1
    77    71    70   ar
    78    18    19    1
    79    68    69    1
    80     6     5    1
    81     1     2    1
    82    59    57   ar
    83    60    58   ar
    84    64    54   am
    85    70    69    1
    86    70    72   ar
    87     5     2    1
    88     2     3    1
    89    55    54    2
    90    57    58   ar
    91    57    56    1
    92    54    53    1
    93     3     4    2
    94    56    53    1
    95    53    52    1
