@<TRIPOS>MOLECULE
tmp/3nxtA01.pdb
 149 143 0 0 0
SMALL
GASTEIGER

@<TRIPOS>ATOM
      1  N         21.9480   12.1070    1.6980 N.3     7  ILE7       -0.1231
      2  CA        21.3140   11.2350    2.6790 C.3     7  ILE7        0.1692
      3  C         21.3760    9.8060    2.1180 C.2     7  ILE7        0.2592
      4  O         21.1560    9.5930    0.8900 O.2     7  ILE7       -0.2718
      5  CB        19.8590   11.6710    3.0490 C.3     7  ILE7        0.0266
      6  CG1       19.2600   10.7570    4.1390 C.3     7  ILE7        0.0019
      7  CG2       18.9280   11.6860    1.7840 C.3     7  ILE7        0.0020
      8  CD1       18.0390   11.4670    4.8240 C.3     7  ILE7        0.0001
      9  N         21.6960    8.8560    3.0210 N.am    8  VAL8       -0.1966
     10  CA        21.8390    7.4290    2.6160 C.3     8  VAL8        0.1727
     11  C         21.5950    6.5480    3.8250 C.2     8  VAL8        0.2616
     12  O         21.7980    7.0270    4.9580 O.2     8  VAL8       -0.2715
     13  CB        23.3050    7.1800    2.1220 C.3     8  VAL8        0.0290
     14  CG1       24.3820    7.3330    3.2460 C.3     8  VAL8        0.0023
     15  CG2       23.3880    5.8330    1.3820 C.3     8  VAL8        0.0023
     16  N         21.1800    5.2970    3.5810 N.am    9  ALA9       -0.1977
     17  CA        21.2470    4.2260    4.6050 C.3     9  ALA9        0.1597
     18  C         22.2490    3.1950    4.0420 C.2     9  ALA9        0.2287
     19  O         22.1980    2.8120    2.8240 O.2     9  ALA9       -0.2864
     20  CB        19.8730    3.6140    4.7820 C.3     9  ALA9        0.0319
     21  N         17.1100   -2.5700   -5.4980 N.3    21  ASP21      -0.1225
     22  CA        16.2530   -2.4320   -4.3380 C.3    21  ASP21       0.1805
     23  C         17.1930   -2.3630   -3.1120 C.2    21  ASP21       0.2594
     24  O         18.4180   -2.4370   -3.2400 O.2    21  ASP21      -0.2718
     25  CB        15.3530   -3.6850   -4.2840 C.3    21  ASP21       0.1424
     26  CG        13.9020   -3.4360   -3.6830 C.2    21  ASP21       0.3668
     27  OD1       13.7350   -2.6250   -2.7490 O.co2  21  ASP21      -0.2456
     28  OD2       12.9390   -4.1180   -4.1680 O.co2  21  ASP21      -0.2456
     29  N         16.5270   -2.4300   -1.9460 N.am   22  LEU22      -0.2033
     30  CA        17.1800   -2.4380   -0.6380 C.3    22  LEU22       0.1282
     31  C         17.9310   -3.7340   -0.4100 C.3    22  LEU22       0.2036
     32  O         17.3530   -4.8630   -0.6400 O.3    22  LEU22      -0.2185
     33  CB        16.1920   -2.2280    0.5160 C.3    22  LEU22       0.0244
     34  CG        14.9730   -1.3270    0.4420 C.3    22  LEU22       0.0018
     35  CD1       14.3850   -1.0990    1.9120 C.3    22  LEU22       0.0001
     36  CD2       15.1900   -0.0580   -0.4110 C.3    22  LEU22       0.0001
     37  N         12.6780    4.0670    9.3470 N.3    30  GLU30      -0.1231
     38  CA        13.9040    4.6060    8.6810 C.3    30  GLU30       0.1699
     39  C         13.4940    5.3390    7.4180 C.2    30  GLU30       0.2592
     40  O         13.9240    6.4620    7.1660 O.2    30  GLU30      -0.2718
     41  CB        14.9160    3.4600    8.4150 C.3    30  GLU30       0.0402
     42  CG        16.3890    3.9600    8.3000 C.3    30  GLU30       0.1161
     43  CD        16.6680    4.8330    7.0630 C.2    30  GLU30       0.3649
     44  OE1       17.4130    5.8230    7.3040 O.co2  30  GLU30      -0.2457
     45  OE2       16.2290    4.4830    5.8850 O.co2  30  GLU30      -0.2457
     46  N         12.5100    4.7740    6.7190 N.am   31  PHE31      -0.1976
     47  CA        12.0390    5.4220    5.5290 C.3    31  PHE31       0.1639
     48  C         11.3190    6.7470    5.8980 C.2    31  PHE31       0.2290
     49  O         11.5170    7.8010    5.2110 O.2    31  PHE31      -0.2864
     50  CB        11.0700    4.5000    4.7740 C.3    31  PHE31       0.0560
     51  CG        10.6740    5.0850    3.4690 C.ar   31  PHE31      -0.0200
     52  CD1       11.5930    5.2150    2.4530 C.ar   31  PHE31      -0.0042
     53  CD2        9.3990    5.5900    3.2780 C.ar   31  PHE31      -0.0042
     54  CE1       11.2610    5.8250    1.2200 C.ar   31  PHE31      -0.0003
     55  CE2        9.0520    6.1690    2.0100 C.ar   31  PHE31      -0.0003
     56  CZ        10.0030    6.2940    1.0080 C.ar   31  PHE31      -0.0000
     57  N         12.0170    8.6350    8.3430 N.3    33  TYR33      -0.1227
     58  CA        13.0880    9.5790    8.6650 C.3    33  TYR33       0.1736
     59  C         13.6130   10.1700    7.3470 C.2    33  TYR33       0.2595
     60  O         13.7840   11.4260    7.2340 O.2    33  TYR33      -0.2718
     61  CB        14.2110    8.8570    9.3990 C.3    33  TYR33       0.0548
     62  CG        15.5010    9.6840    9.5320 C.ar   33  TYR33      -0.0200
     63  CD1       16.6040    9.4610    8.6920 C.ar   33  TYR33      -0.0009
     64  CD2       15.5810   10.6970   10.5300 C.ar   33  TYR33      -0.0009
     65  CE1       17.7750   10.2210    8.8610 C.ar   33  TYR33       0.0417
     66  CE2       16.7950   11.4040   10.7460 C.ar   33  TYR33       0.0417
     67  CZ        17.8190   11.1840    9.8670 C.ar   33  TYR33       0.1957
     68  OH        18.9880   11.8860   10.1320 O.3    33  TYR33      -0.2866
     69  N         13.8970    9.3080    6.3560 N.am   34  PHE34      -0.1976
     70  CA        14.2850    9.8390    5.0260 C.3    34  PHE34       0.1639
     71  C         13.2710   10.8770    4.4520 C.2    34  PHE34       0.2290
     72  O         13.6550   12.0090    4.0390 O.2    34  PHE34      -0.2864
     73  CB        14.5180    8.6900    4.0500 C.3    34  PHE34       0.0560
     74  CG        14.5340    9.1140    2.6090 C.ar   34  PHE34      -0.0200
     75  CD1       15.7150    9.6560    2.0530 C.ar   34  PHE34      -0.0042
     76  CD2       13.3740    9.0530    1.7970 C.ar   34  PHE34      -0.0042
     77  CE1       15.7730   10.0740    0.7350 C.ar   34  PHE34      -0.0003
     78  CE2       13.4440    9.4990    0.4480 C.ar   34  PHE34      -0.0003
     79  CZ        14.5900    9.9800   -0.0960 C.ar   34  PHE34      -0.0000
     80  N         18.4890    5.3770   -9.5580 N.3    56  THR56      -0.1218
     81  CA        17.7700    5.6650   -8.2990 C.3    56  THR56       0.1862
     82  C         16.3790    6.1010   -8.5480 C.2    56  THR56       0.2287
     83  O         15.4530    5.6000   -7.8870 O.2    56  THR56      -0.2866
     84  CB        18.6130    6.6710   -7.4700 C.3    56  THR56       0.1770
     85  OG1       19.8920    6.0400   -7.1380 O.3    56  THR56      -0.2211
     86  CG2       17.8170    7.0980   -6.2520 C.3    56  THR56       0.0375
     87  N         14.2950    3.1360   -9.3260 N.3    59  SER59      -0.1202
     88  CA        14.1020    2.2520   -8.1570 C.3    59  SER59       0.2020
     89  C         12.9280    2.6770   -7.2810 C.2    59  SER59       0.2619
     90  O         12.4460    1.8370   -6.4530 O.2    59  SER59      -0.2717
     91  CB        15.4030    2.1820   -7.3720 C.3    59  SER59       0.2103
     92  OG        15.5440    3.3240   -6.5000 O.3    59  SER59      -0.2182
     93  N         12.3760    3.8780   -7.4990 N.am   60  ILE60      -0.1966
     94  CA        11.1880    4.2970   -6.7370 C.3    60  ILE60       0.1712
     95  C         10.0200    3.6640   -7.4820 C.2    60  ILE60       0.2458
     96  O          9.9300    3.7790   -8.6790 O.2    60  ILE60      -0.2730
     97  CB        11.0500    5.8550   -6.8320 C.3    60  ILE60       0.0289
     98  CG1       12.2470    6.5530   -6.1380 C.3    60  ILE60       0.0022
     99  CG2        9.7250    6.2940   -6.1550 C.3    60  ILE60       0.0023
    100  CD1       12.4160    8.0710   -6.6250 C.3    60  ILE60       0.0001
    101  N          9.1470    2.9620   -6.7700 N.am   61  PRO61      -0.2727
    102  CA         7.9730    2.3900   -7.4620 C.3    61  PRO61       0.1402
    103  C          7.1830    3.4460   -8.2320 C.2    61  PRO61       0.2269
    104  O          7.1080    4.5550   -7.7980 O.2    61  PRO61      -0.2865
    105  CB         7.1910    1.8090   -6.3200 C.3    61  PRO61       0.0296
    106  CG         8.3220    1.2830   -5.4020 C.3    61  PRO61       0.0237
    107  CD         9.1450    2.5920   -5.3570 C.3    61  PRO61       0.0939
    108  N          5.1410    5.9090   -6.5560 N.3    64  ASN64      -0.1240
    109  CA         5.7000    6.7430   -5.5190 C.3    64  ASN64       0.1653
    110  C          6.5290    7.8770   -6.1590 C.2    64  ASN64       0.2266
    111  O          7.1410    8.6440   -5.4180 O.2    64  ASN64      -0.2867
    112  CB         6.5160    5.9590   -4.4720 C.3    64  ASN64       0.1155
    113  CG         5.6410    5.0540   -3.5270 C.2    64  ASN64       0.2627
    114  OD1        4.4950    5.4020   -3.1620 O.2    64  ASN64      -0.2716
    115  ND2        6.2100    3.9140   -3.1110 N.am   64  ASN64      -0.0877
    116  N          8.9280   11.9120   -5.5990 N.3    67  LEU67      -0.1245
    117  CA         8.9180   12.0610   -4.1450 C.3    67  LEU67       0.1561
    118  C          8.1430   13.3270   -3.7690 C.2    67  LEU67       0.2260
    119  O          8.4860   14.4200   -4.2390 O.2    67  LEU67      -0.2867
    120  CB        10.3740   12.1200   -3.6150 C.3    67  LEU67       0.0270
    121  CG        11.2020   10.8660   -3.9720 C.3    67  LEU67       0.0019
    122  CD1       12.5670   11.0700   -3.3140 C.3    67  LEU67       0.0001
    123  CD2       10.5170    9.6180   -3.2820 C.3    67  LEU67       0.0001
    124  N         20.2050   11.9780   -3.1420 N.3   115  VAL115     -0.1245
    125  CA        19.5680   10.7890   -2.5320 C.3   115  VAL115      0.1561
    126  C         19.9730    9.4980   -3.3150 C.2   115  VAL115      0.2260
    127  O         19.2660    8.5020   -3.1860 O.2   115  VAL115     -0.2867
    128  CB        18.0290   10.8840   -2.4910 C.3   115  VAL115      0.0252
    129  CG1       17.5470   12.0880   -1.6480 C.3   115  VAL115      0.0019
    130  CG2       17.3680   11.0250   -3.9400 C.3   115  VAL115      0.0019
    131  N         26.6340   10.2890   -5.1390 N.3   121  TYR121     -0.1241
    132  CA        27.2750   10.5150   -3.7910 C.3   121  TYR121      0.1605
    133  C         28.7600   10.7910   -3.8830 C.2   121  TYR121      0.2264
    134  O         29.2170   11.6930   -3.1940 O.2   121  TYR121     -0.2867
    135  CB        27.0810    9.2800   -2.9440 C.3   121  TYR121      0.0534
    136  CG        25.6630    8.9690   -2.4780 C.ar  121  TYR121     -0.0201
    137  CD1       25.1250    7.6370   -2.6260 C.ar  121  TYR121     -0.0009
    138  CD2       24.8660    9.9280   -1.8350 C.ar  121  TYR121     -0.0009
    139  CE1       23.8900    7.3010   -2.1260 C.ar  121  TYR121      0.0417
    140  CE2       23.5940    9.6270   -1.3880 C.ar  121  TYR121      0.0417
    141  CZ        23.1100    8.3130   -1.4880 C.ar  121  TYR121      0.1957
    142  OH        21.8810    8.0160   -0.9700 O.3   121  TYR121     -0.2866
    143  N         22.5880    6.7210    7.7290 N.3   136  THR136     -0.1218
    144  CA        21.9820    5.7620    8.6630 C.3   136  THR136      0.1862
    145  C         22.8480    4.5280    8.5930 C.2   136  THR136      0.2287
    146  O         22.9820    3.9290    7.5150 O.2   136  THR136     -0.2866
    147  CB        20.5970    5.3580    8.2420 C.3   136  THR136      0.1770
    148  OG1       19.7540    6.5240    8.2880 O.3   136  THR136     -0.2211
    149  CG2       20.0700    4.2780    9.2130 C.3   136  THR136      0.0375
@<TRIPOS>BOND
     1    80    81    1
     2    87    88    1
     3    96    95    2
     4    82    81    1
     5    82    83    2
     6    81    84    1
     7   103   104    2
     8   103   102    1
     9    88    91    1
    10    88    89    1
    11    93    89   am
    12    93    94    1
    13    95   101   am
    14    95    94    1
    15    84    85    1
    16    84    86    1
    17   102   101    1
    18   102   105    1
    19    91    92    1
    20    89    90    2
    21    97    94    1
    22    97    99    1
    23    97    98    1
    24   101   107    1
    25   100    98    1
    26   108   109    1
    27   105   106    1
    28   110   109    1
    29   110   111    2
    30   116   117    1
    31   109   112    1
    32    21    22    1
    33   106   107    1
    34   131   132    1
    35   112   113    1
    36    22    25    1
    37    22    23    1
    38    25    26    1
    39   119   118    2
    40    28    26   ar
    41   117   118    1
    42   117   120    1
    43   121   120    1
    44   121   122    1
    45   121   123    1
    46   130   128    1
    47   133   132    1
    48   133   134    2
    49   132   135    1
    50    26    27   ar
    51   113   114    2
    52   113   115   am
    53   126   127    2
    54   126   125    1
    55    24    23    2
    56   124   125    1
    57    23    29   am
    58   135   136    1
    59   137   136   ar
    60   137   139   ar
    61   125   128    1
    62   128   129    1
    63   136   138   ar
    64   139   141   ar
    65    29    30    1
    66   138   140   ar
    67   141   140   ar
    68   141   142    1
    69    32    31    1
    70    30    31    1
    71    30    33    1
    72    36    34    1
    73    79    78   ar
    74    79    77   ar
    75    34    33    1
    76    34    35    1
    77    78    76   ar
    78    77    75   ar
    79     4     3    2
    80    56    54   ar
    81    56    55   ar
    82    54    52   ar
    83    15    13    1
    84     1     2    1
    85     7     5    1
    86    76    74   ar
    87    55    53   ar
    88    75    74   ar
    89     3     2    1
    90     3     9   am
    91    13    10    1
    92    13    14    1
    93    52    51   ar
    94    74    73    1
    95    10     9    1
    96    10    11    1
    97     2     5    1
    98    19    18    2
    99     5     6    1
   100    53    51   ar
   101    51    50    1
   102    16    11   am
   103    16    17    1
   104    11    12    2
   105    72    71    2
   106    18    17    1
   107    73    70    1
   108     6     8    1
   109    71    70    1
   110    17    20    1
   111    50    47    1
   112    70    69    1
   113    49    48    2
   114    47    48    1
   115    47    46    1
   116    45    43   ar
   117    69    59   am
   118    46    39   am
   119    43    44   ar
   120    43    42    1
   121    40    39    2
   122    60    59    2
   123    59    58    1
   124    39    38    1
   125   146   145    2
   126   143   144    1
   127   147   148    1
   128   147   144    1
   129   147   149    1
   130    42    41    1
   131    57    58    1
   132    41    38    1
   133   145   144    1
   134    58    61    1
   135    38    37    1
   136    63    65   ar
   137    63    62   ar
   138    65    67   ar
   139    61    62    1
   140    62    64   ar
   141    67    68    1
   142    67    66   ar
   143    64    66   ar
