@<TRIPOS>MOLECULE
tmp/3nxvA00.pdb
 168 162 0 0 0
SMALL
GASTEIGER

@<TRIPOS>ATOM
      1  N         -0.4860   25.0780   -1.7310 N.3     7  ILE7       -0.1231
      2  CA        -0.9180   24.0520   -2.6870 C.3     7  ILE7        0.1692
      3  C         -2.1890   23.3700   -2.1310 C.2     7  ILE7        0.2592
      4  O         -2.3130   23.1410   -0.9200 O.2     7  ILE7       -0.2718
      5  CB         0.1880   23.0380   -2.9980 C.3     7  ILE7        0.0266
      6  CG1       -0.2800   22.0970   -4.1430 C.3     7  ILE7        0.0019
      7  CG2        0.6780   22.2380   -1.7320 C.3     7  ILE7        0.0020
      8  CD1        0.8570   21.2260   -4.7600 C.3     7  ILE7        0.0001
      9  N         -3.1250   23.0490   -3.0260 N.am    8  VAL8       -0.1966
     10  CA        -4.4160   22.5450   -2.5740 C.3     8  VAL8        0.1727
     11  C         -5.0900   21.8590   -3.7520 C.2     8  VAL8        0.2616
     12  O         -4.8240   22.2310   -4.9100 O.2     8  VAL8       -0.2715
     13  CB        -5.3560   23.7530   -2.1040 C.3     8  VAL8        0.0290
     14  CG1       -5.7590   24.7380   -3.2950 C.3     8  VAL8        0.0023
     15  CG2       -6.6390   23.1880   -1.4780 C.3     8  VAL8        0.0023
     16  N         -5.9580   20.8850   -3.4600 N.am    9  ALA9       -0.1977
     17  CA        -6.9390   20.4660   -4.4610 C.3     9  ALA9        0.1597
     18  C         -8.3260   20.8090   -3.9360 C.2     9  ALA9        0.2287
     19  O         -8.6520   20.5480   -2.7650 O.2     9  ALA9       -0.2864
     20  CB        -6.8440   19.0120   -4.7720 C.3     9  ALA9        0.0319
     21  N        -11.7850   14.7420    7.6790 N.3    20  GLY20      -0.1210
     22  CA       -10.3790   14.4060    7.7690 C.3    20  GLY20       0.1956
     23  C         -9.8690   13.5740    6.6210 C.2    20  GLY20       0.2612
     24  O         -8.7740   13.0040    6.7210 O.2    20  GLY20      -0.2717
     25  N        -10.6590   13.4860    5.5460 N.am   21  ASP21      -0.1959
     26  CA       -10.2540   12.7870    4.3750 C.3    21  ASP21       0.1840
     27  C        -10.6150   13.6520    3.1740 C.2    21  ASP21       0.2621
     28  O        -11.3130   14.6480    3.3000 O.2    21  ASP21      -0.2715
     29  CB       -11.0360   11.4760    4.2870 C.3    21  ASP21       0.1450
     30  CG       -10.2010   10.3230    3.7900 C.2    21  ASP21       0.3671
     31  OD1       -9.4670   10.4950    2.7720 O.co2  21  ASP21      -0.2456
     32  OD2      -10.2820    9.2400    4.4480 O.co2  21  ASP21      -0.2456
     33  N        -10.2070   13.2140    1.9910 N.am   22  LEU22      -0.1977
     34  CA       -10.5070   13.9690    0.7730 C.3    22  LEU22       0.1596
     35  C        -11.9710   13.7660    0.3760 C.2    22  LEU22       0.2287
     36  O        -12.5590   12.6660    0.6090 O.2    22  LEU22      -0.2864
     37  CB        -9.5120   13.6680   -0.3740 C.3    22  LEU22       0.0297
     38  CG        -8.0730   14.2920   -0.1100 C.3    22  LEU22       0.0022
     39  CD1       -7.2830   14.3860   -1.3790 C.3    22  LEU22       0.0001
     40  CD2       -7.9810   15.6800    0.6590 C.3    22  LEU22       0.0001
     41  N         -9.7050    8.5660   -4.0570 N.3    26  PRO26      -0.2102
     42  CA        -8.2760    8.7540   -4.3690 C.3    26  PRO26       0.1504
     43  C         -7.9600    8.9600   -5.8670 C.2    26  PRO26       0.2575
     44  O         -8.3940    8.1470   -6.7300 O.2    26  PRO26      -0.2718
     45  CB        -7.6410    7.4490   -3.8660 C.3    26  PRO26       0.0282
     46  CG        -8.5490    7.0470   -2.7430 C.3    26  PRO26       0.0208
     47  CD        -9.9050    7.2940   -3.3120 C.3    26  PRO26       0.0893
     48  N         -7.2250   10.0480   -6.1560 N.am   27  LEU27      -0.1980
     49  CA        -6.7650   10.3320   -7.5120 C.3    27  LEU27       0.1596
     50  C         -5.2680   10.1980   -7.4750 C.2    27  LEU27       0.2287
     51  O         -4.5520   11.1060   -7.0090 O.2    27  LEU27      -0.2864
     52  CB        -7.1480   11.7270   -7.9480 C.3    27  LEU27       0.0297
     53  CG        -8.6110   12.0520   -7.7610 C.3    27  LEU27       0.0022
     54  CD1       -8.8900   13.5380   -8.0520 C.3    27  LEU27       0.0001
     55  CD2       -9.3630   11.1000   -8.6510 C.3    27  LEU27       0.0001
     56  N         -2.9560   12.7480   -9.1700 N.3    30  GLU30      -0.1231
     57  CA        -3.1450   14.0470   -8.5120 C.3    30  GLU30       0.1699
     58  C         -2.2820   14.1290   -7.2750 C.2    30  GLU30       0.2592
     59  O         -1.6420   15.1430   -7.0240 O.2    30  GLU30      -0.2718
     60  CB        -4.6180   14.3310   -8.1720 C.3    30  GLU30       0.0402
     61  CG        -4.9480   15.8690   -8.1620 C.3    30  GLU30       0.1161
     62  CD        -4.3340   16.6460   -6.9720 C.2    30  GLU30       0.3649
     63  OE1       -3.8230   17.7800   -7.1690 O.co2  30  GLU30      -0.2457
     64  OE2       -4.3910   16.1710   -5.8280 O.co2  30  GLU30      -0.2457
     65  N         -2.2840   13.0450   -6.5000 N.am   31  PHE31      -0.1976
     66  CA        -1.4720   13.0080   -5.3150 C.3    31  PHE31       0.1639
     67  C         -0.0090   12.9550   -5.7380 C.2    31  PHE31       0.2290
     68  O          0.8130   13.6150   -5.1300 O.2    31  PHE31      -0.2864
     69  CB        -1.8200   11.8060   -4.3990 C.3    31  PHE31       0.0560
     70  CG        -0.9910   11.7750   -3.1430 C.ar   31  PHE31      -0.0200
     71  CD1       -1.0490   12.8390   -2.2160 C.ar   31  PHE31      -0.0042
     72  CD2       -0.1120   10.6880   -2.8900 C.ar   31  PHE31      -0.0042
     73  CE1       -0.2620   12.8390   -1.0450 C.ar   31  PHE31      -0.0003
     74  CE2        0.6810   10.6900   -1.6930 C.ar   31  PHE31      -0.0003
     75  CZ         0.5730   11.7570   -0.7770 C.ar   31  PHE31      -0.0000
     76  N          1.3290   14.5140   -8.1850 N.3    33  TYR33      -0.1227
     77  CA         1.6070   15.9090   -8.5020 C.3    33  TYR33       0.1736
     78  C          1.8530   16.6630   -7.2100 C.2    33  TYR33       0.2595
     79  O          2.8200   17.4180   -7.1300 O.2    33  TYR33      -0.2718
     80  CB         0.4550   16.5160   -9.2760 C.3    33  TYR33       0.0548
     81  CG         0.5330   18.0420   -9.4650 C.ar   33  TYR33      -0.0200
     82  CD1       -0.1780   18.9210   -8.6300 C.ar   33  TYR33      -0.0009
     83  CD2        1.3350   18.5980  -10.4760 C.ar   33  TYR33      -0.0009
     84  CE1       -0.1190   20.3060   -8.8380 C.ar   33  TYR33       0.0417
     85  CE2        1.3820   19.9600  -10.6650 C.ar   33  TYR33       0.0417
     86  CZ         0.6410   20.7880   -9.8690 C.ar   33  TYR33       0.1957
     87  OH         0.7150   22.1440  -10.0620 O.3    33  TYR33      -0.2866
     88  N          0.9730   16.5150   -6.2160 N.am   34  PHE34      -0.1976
     89  CA         1.2560   17.1490   -4.9160 C.3    34  PHE34       0.1639
     90  C          2.6730   16.7950   -4.3690 C.2    34  PHE34       0.2290
     91  O          3.4570   17.6780   -3.8910 O.2    34  PHE34      -0.2864
     92  CB         0.1640   16.7690   -3.8860 C.3    34  PHE34       0.0560
     93  CG         0.5310   17.1140   -2.4520 C.ar   34  PHE34      -0.0200
     94  CD1        0.2900   18.4100   -1.9400 C.ar   34  PHE34      -0.0042
     95  CD2        1.1780   16.1580   -1.6360 C.ar   34  PHE34      -0.0042
     96  CE1        0.6640   18.7360   -0.6230 C.ar   34  PHE34      -0.0003
     97  CE2        1.5310   16.4790   -0.3110 C.ar   34  PHE34      -0.0003
     98  CZ         1.2640   17.7260    0.2120 C.ar   34  PHE34      -0.0000
     99  N          1.7570   22.8000    7.9320 N.3    52  MET52      -0.1245
    100  CA         0.3570   22.3260    7.9580 C.3    52  MET52       0.1570
    101  C         -0.2030   22.5280    9.3620 C.2    52  MET52       0.2261
    102  O          0.5520   22.5270   10.3780 O.2    52  MET52      -0.2867
    103  CB         0.2360   20.8380    7.5450 C.3    52  MET52       0.0387
    104  CG         0.7860   19.8430    8.5950 C.3    52  MET52       0.0595
    105  SD         1.0850   18.2850    7.7580 S.3    52  MET52      -0.1393
    106  CE         2.7080   18.5500    7.0120 C.3    52  MET52       0.0692
    107  N         -4.5460   18.6330    9.6310 N.3    56  THR56      -0.1218
    108  CA        -3.9730   18.1510    8.3650 C.3    56  THR56       0.1862
    109  C         -2.8580   17.1530    8.5970 C.2    56  THR56       0.2287
    110  O         -2.7920   16.0770    7.9120 O.2    56  THR56      -0.2866
    111  CB        -3.4790   19.4090    7.5790 C.3    56  THR56       0.1770
    112  OG1       -4.6180   20.2580    7.3160 O.3    56  THR56      -0.2211
    113  CG2       -2.7310   19.0130    6.3340 C.3    56  THR56       0.0375
    114  N         -4.3680   13.8740    9.4280 N.3    59  SER59      -0.1202
    115  CA        -5.0760   13.3140    8.2620 C.3    59  SER59       0.2020
    116  C         -4.1680   12.4900    7.3540 C.2    59  SER59       0.2619
    117  O         -4.6890   11.6730    6.5420 O.2    59  SER59      -0.2717
    118  CB        -5.8090   14.3920    7.4980 C.3    59  SER59       0.2103
    119  OG        -4.9490   15.0990    6.6350 O.3    59  SER59      -0.2182
    120  N         -2.8410   12.6020    7.5350 N.am   60  ILE60      -0.1966
    121  CA        -1.9140   11.7900    6.7760 C.3    60  ILE60       0.1712
    122  C         -1.9070   10.3930    7.4500 C.2    60  ILE60       0.2458
    123  O         -1.7990   10.2940    8.6740 O.2    60  ILE60      -0.2730
    124  CB        -0.4400   12.3750    6.7900 C.3    60  ILE60       0.0289
    125  CG1       -0.3820   13.8440    6.2980 C.3    60  ILE60       0.0022
    126  CG2        0.4840   11.5350    5.8840 C.3    60  ILE60       0.0023
    127  CD1        0.8270   14.6350    6.8550 C.3    60  ILE60       0.0001
    128  N         -1.9800    9.3230    6.6430 N.am   61  PRO61      -0.2727
    129  CA        -1.9190    7.9820    7.2660 C.3    61  PRO61       0.1402
    130  C         -0.6970    7.8650    8.1970 C.2    61  PRO61       0.2269
    131  O          0.3480    8.3560    7.8780 O.2    61  PRO61      -0.2865
    132  CB        -1.8270    7.0370    6.0750 C.3    61  PRO61       0.0296
    133  CG        -2.6410    7.8100    4.9250 C.3    61  PRO61       0.0237
    134  CD        -2.4590    9.3040    5.2420 C.3    61  PRO61       0.0939
    135  N          5.8430   13.4960    5.6020 N.3    67  LEU67      -0.1245
    136  CA         5.9990   13.5160    4.1140 C.3    67  LEU67       0.1561
    137  C          7.5340   13.5190    3.7990 C.2    67  LEU67       0.2260
    138  O          8.2870   14.3540    4.3410 O.2    67  LEU67      -0.2867
    139  CB         5.3580   14.8220    3.5980 C.3    67  LEU67       0.0270
    140  CG         3.8250   14.9390    3.7940 C.3    67  LEU67       0.0019
    141  CD1        3.3360   16.3310    3.3470 C.3    67  LEU67       0.0001
    142  CD2        3.1170   13.8560    2.9410 C.3    67  LEU67       0.0001
    143  N          0.2160   23.5340    3.2180 N.3   115  VAL115     -0.1245
    144  CA        -0.5510   22.3920    2.6880 C.3   115  VAL115      0.1561
    145  C         -1.8290   22.1830    3.4550 C.2   115  VAL115      0.2260
    146  O         -2.4850   21.1490    3.2620 O.2   115  VAL115     -0.2867
    147  CB         0.3160   21.0750    2.6370 C.3   115  VAL115      0.0252
    148  CG1        1.4500   21.2930    1.7920 C.3   115  VAL115      0.0019
    149  CG2        0.7230   20.6420    4.0660 C.3   115  VAL115      0.0019
    150  N         -4.4170   28.2870    5.1700 N.3   121  TYR121     -0.1241
    151  CA        -4.5860   28.8820    3.8130 C.3   121  TYR121      0.1605
    152  C         -5.0150   30.3400    3.8730 C.2   121  TYR121      0.2264
    153  O         -4.3880   31.2150    3.2630 O.2   121  TYR121     -0.2867
    154  CB        -5.5960   28.0520    3.0420 C.3   121  TYR121      0.0534
    155  CG        -5.1370   26.6680    2.5610 C.ar  121  TYR121     -0.0201
    156  CD1       -5.9780   25.5580    2.7000 C.ar  121  TYR121     -0.0009
    157  CD2       -3.8960   26.4790    1.9370 C.ar  121  TYR121     -0.0009
    158  CE1       -5.6290   24.3130    2.1560 C.ar  121  TYR121      0.0417
    159  CE2       -3.4880   25.1980    1.4710 C.ar  121  TYR121      0.0417
    160  CZ        -4.3660   24.1380    1.5760 C.ar  121  TYR121      0.1957
    161  OH        -4.0540   22.9150    1.0730 O.3   121  TYR121     -0.2866
    162  N         -5.4530   22.7500   -7.6830 N.3   136  THR136     -0.1218
    163  CA        -6.0090   21.7910   -8.6060 C.3   136  THR136      0.1862
    164  C         -7.5300   21.9540   -8.5030 C.2   136  THR136      0.2287
    165  O         -8.1070   21.7850   -7.4210 O.2   136  THR136     -0.2866
    166  CB        -5.5860   20.3100   -8.2320 C.3   136  THR136      0.1770
    167  OG1       -4.1450   20.1870   -8.2820 O.3   136  THR136     -0.2211
    168  CG2       -6.2240   19.2630   -9.1790 C.3   136  THR136      0.0375
@<TRIPOS>BOND
     1    85    83   ar
     2    85    86   ar
     3    83    81   ar
     4    87    86    1
     5    86    84   ar
     6    81    80    1
     7    81    82   ar
     8    80    77    1
     9   168   166    1
    10    56    57    1
    11    84    82   ar
    12    55    53    1
    13   163   164    1
    14   163   166    1
    15   163   162    1
    16    57    60    1
    17    57    58    1
    18   164   165    2
    19    77    76    1
    20    77    78    1
    21   167   166    1
    22    60    61    1
    23    61    62    1
    24    54    53    1
    25    52    53    1
    26    52    49    1
    27    49    50    1
    28    49    48    1
    29    50    51    2
    30    58    59    2
    31    58    65   am
    32    78    79    2
    33    78    88   am
    34    63    62   ar
    35    62    64   ar
    36    44    43    2
    37    65    66    1
    38    88    89    1
    39    48    43   am
    40    43    42    1
    41    67    66    1
    42    67    68    2
    43    66    69    1
    44    89    90    1
    45    89    92    1
    46    12    11    2
    47    20    17    1
    48     8     6    1
    49    17    18    1
    50    17    16    1
    51    69    70    1
    52    42    41    1
    53    42    45    1
    54    90    91    2
    55     6     5    1
    56    41    47    1
    57    18    19    2
    58    92    93    1
    59    45    46    1
    60    11    16   am
    61    11    10    1
    62    47    46    1
    63    14    13    1
    64    70    72   ar
    65    70    71   ar
    66     9    10    1
    67     9     3   am
    68     5     2    1
    69     5     7    1
    70    72    74   ar
    71     2     3    1
    72     2     1    1
    73    10    13    1
    74    93    94   ar
    75    93    95   ar
    76    71    73   ar
    77     3     4    2
    78    13    15    1
    79    94    96   ar
    80    74    75   ar
    81    95    97   ar
    82    39    38    1
    83    73    75   ar
    84    96    98   ar
    85    37    38    1
    86    37    34    1
    87    97    98   ar
    88    38    40    1
    89    35    36    2
    90    35    34    1
    91    34    33    1
    92   161   160    1
    93   159   160   ar
    94   159   157   ar
    95   160   158   ar
    96   148   147    1
    97   157   155   ar
    98    33    27   am
    99   158   156   ar
   100   155   156   ar
   101   155   154    1
   102   147   144    1
   103   147   149    1
   104   144   143    1
   105   144   145    1
   106    31    30   ar
   107   142   140    1
   108   154   151    1
   109    27    28    2
   110    27    26    1
   111   146   145    2
   112   153   152    2
   113   141   140    1
   114   139   140    1
   115   139   136    1
   116    30    29    1
   117    30    32   ar
   118   137   136    1
   119   137   138    2
   120   151   152    1
   121   151   150    1
   122   136   135    1
   123    29    26    1
   124    26    25    1
   125   133   134    1
   126   133   132    1
   127   134   128    1
   128    25    23   am
   129   126   124    1
   130   132   129    1
   131   125   124    1
   132   125   127    1
   133   113   111    1
   134   117   116    2
   135    23    24    2
   136    23    22    1
   137   119   118    1
   138   128   129    1
   139   128   122   am
   140   121   124    1
   141   121   122    1
   142   121   120    1
   143   106   105    1
   144   129   130    1
   145   112   111    1
   146   116   120   am
   147   116   115    1
   148   122   123    2
   149   118   115    1
   150   103   100    1
   151   103   104    1
   152   111   108    1
   153    21    22    1
   154   105   104    1
   155   131   130    2
   156   110   109    2
   157    99   100    1
   158   100   101    1
   159   115   114    1
   160   108   109    1
   161   108   107    1
   162   101   102    2
