@<TRIPOS>MOLECULE
tmp/3ny3A00.pdb
 113 108 0 0 0
SMALL
GASTEIGER

@<TRIPOS>ATOM
      1  N         18.0390   -4.1570   14.4750 N.3     6  PHE6       -0.1241
      2  CA        18.5590   -5.3550   13.7990 C.3     6  PHE6        0.1605
      3  C         20.0050   -5.6180   14.1240 C.2     6  PHE6        0.2264
      4  O         20.8070   -4.6870   14.2410 O.2     6  PHE6       -0.2867
      5  CB        18.4030   -5.2290   12.2890 C.3     6  PHE6        0.0534
      6  CG        16.9780   -5.1210   11.8590 C.ar    6  PHE6       -0.0203
      7  CD1       16.0860   -6.1520   12.1110 C.ar    6  PHE6       -0.0042
      8  CD2       16.5240   -3.9660   11.2300 C.ar    6  PHE6       -0.0042
      9  CE1       14.7540   -6.0440   11.7110 C.ar    6  PHE6       -0.0003
     10  CE2       15.2000   -3.8510   10.8300 C.ar    6  PHE6       -0.0003
     11  CZ        14.3190   -4.8910   11.0740 C.ar    6  PHE6       -0.0000
     12  N         15.5890   -9.6570    7.7120 N.3    12  THR12      -0.1218
     13  CA        14.5910   -8.5910    7.7920 C.3    12  THR12       0.1862
     14  C         13.6870   -8.6910    6.5790 C.2    12  THR12       0.2287
     15  O         14.0990   -9.1930    5.5280 O.2    12  THR12      -0.2866
     16  CB        15.2200   -7.1890    7.8890 C.3    12  THR12       0.1770
     17  OG1       15.7400   -6.7840    6.6180 O.3    12  THR12      -0.2211
     18  CG2       16.3310   -7.1730    8.9230 C.3    12  THR12       0.0375
     19  N          7.9940    2.5920    1.1430 N.3    21  ASP21      -0.1225
     20  CA         9.2550    2.6850    0.4110 C.3    21  ASP21       0.1790
     21  C         10.1950    1.5220    0.7820 C.2    21  ASP21       0.2440
     22  O          9.9190    0.7710    1.7290 O.2    21  ASP21      -0.2733
     23  CB         9.8980    4.0790    0.5900 C.3    21  ASP21       0.1423
     24  CG        10.4830    4.2970    1.9730 C.2    21  ASP21       0.3668
     25  OD1       10.1780    5.3480    2.5830 O.co2  21  ASP21      -0.2456
     26  OD2       11.2610    3.4390    2.4320 O.co2  21  ASP21      -0.2456
     27  N         11.3090    1.3690    0.0380 N.am   22  PRO22      -0.2718
     28  CA        12.1450    0.1770    0.2270 C.3    22  PRO22       0.1535
     29  C         12.8670    0.0870    1.5780 C.2    22  PRO22       0.2599
     30  O         13.3810   -0.9870    1.9180 O.2    22  PRO22      -0.2715
     31  CB        13.1610    0.2650   -0.9320 C.3    22  PRO22       0.0310
     32  CG        12.6090    1.2890   -1.8840 C.3    22  PRO22       0.0237
     33  CD        11.8200    2.2390   -1.0410 C.3    22  PRO22       0.0939
     34  N         12.8910    1.1840    2.3380 N.am   23  THR23      -0.1937
     35  CA        13.5460    1.2000    3.6500 C.3    23  THR23       0.2028
     36  C         12.6260    0.6960    4.7630 C.2    23  THR23       0.2642
     37  O         13.0630    0.5590    5.9150 O.2    23  THR23      -0.2714
     38  CB        14.0250    2.5980    4.0440 C.3    23  THR23       0.1808
     39  OG1       12.8950    3.4220    4.3700 O.3    23  THR23      -0.2208
     40  CG2       14.8540    3.2500    2.9160 C.3    23  THR23       0.0379
     41  N         11.3560    0.4870    4.4280 N.am   24  CYS24      -0.1953
     42  CA        10.3540   -0.0180    5.3680 C.3    24  CYS24       0.1843
     43  C         10.5010   -1.5220    5.5740 C.2    24  CYS24       0.2625
     44  O         10.3860   -2.3120    4.6270 O.2    24  CYS24      -0.2714
     45  CB         8.9350    0.3290    4.8950 C.3    24  CYS24       0.0997
     46  SG         8.6630    2.1270    4.7610 S.3    24  CYS24      -0.0797
     47  N         10.7150   -1.9130    6.8230 N.am   25  VAL25      -0.1977
     48  CA        11.1270   -3.2720    7.1370 C.3    25  VAL25       0.1596
     49  C         10.5250   -3.7700    8.4530 C.2    25  VAL25       0.2287
     50  O         10.1550   -2.9690    9.3350 O.2    25  VAL25      -0.2864
     51  CB        12.6870   -3.3480    7.1820 C.3    25  VAL25       0.0276
     52  CG1       13.2430   -2.3890    8.2170 C.3    25  VAL25       0.0022
     53  CG2       13.1850   -4.7540    7.4330 C.3    25  VAL25       0.0022
     54  N         15.8590   -9.5490    3.2880 N.3    44  THR44      -0.1218
     55  CA        17.2580   -9.1500    3.1620 C.3    44  THR44       0.1862
     56  C         17.9740   -9.5110    4.4620 C.2    44  THR44       0.2287
     57  O         17.3570   -9.5550    5.5220 O.2    44  THR44      -0.2866
     58  CB        17.4190   -7.6390    2.8620 C.3    44  THR44       0.1770
     59  OG1       17.0540   -6.8700    4.0160 O.3    44  THR44      -0.2211
     60  CG2       16.5580   -7.2150    1.6690 C.3    44  THR44       0.0375
     61  N         23.2520   -4.9960   10.2670 N.3    48  GLY48      -0.1210
     62  CA        23.2450   -4.4470   11.6170 C.3    48  GLY48       0.1956
     63  C         22.7910   -2.9980   11.6340 C.2    48  GLY48       0.2612
     64  O         23.1260   -2.2200   10.7440 O.2    48  GLY48      -0.2717
     65  N         22.0380   -2.6340   12.6600 N.am   49  GLY49      -0.1942
     66  CA        21.5350   -1.2610   12.7520 C.3    49  GLY49       0.2014
     67  C         20.2140   -1.1440   12.0080 C.2    49  GLY49       0.2639
     68  O         19.7720   -2.0780   11.3090 O.2    49  GLY49      -0.2714
     69  N         19.5610   -0.0010   12.1510 N.am   50  GLY50      -0.1939
     70  CA        18.1920    0.1320   11.6500 C.3    50  GLY50       0.2014
     71  C         17.2460   -0.5750   12.5950 C.2    50  GLY50       0.2638
     72  O         17.6740   -1.2420   13.5360 O.2    50  GLY50      -0.2714
     73  N         15.9500   -0.4500   12.3540 N.am   51  PHE51      -0.1973
     74  CA        14.9790   -0.9660   13.3230 C.3    51  PHE51       0.1639
     75  C         13.6790   -1.3890   12.6550 C.2    51  PHE51       0.2290
     76  O         13.4000   -0.9990   11.5230 O.2    51  PHE51      -0.2864
     77  CB        14.6650    0.0790   14.4060 C.3    51  PHE51       0.0560
     78  CG        14.1630    1.3850   13.8530 C.ar   51  PHE51      -0.0200
     79  CD1       15.0480    2.4200   13.5660 C.ar   51  PHE51      -0.0042
     80  CD2       12.8110    1.5730   13.6170 C.ar   51  PHE51      -0.0042
     81  CE1       14.5840    3.6240   13.0440 C.ar   51  PHE51      -0.0003
     82  CE2       12.3280    2.7860   13.0900 C.ar   51  PHE51      -0.0003
     83  CZ        13.2270    3.8080   12.8030 C.ar   51  PHE51      -0.0000
     84  N          9.8510   -1.5680   11.7390 N.3    53  ASP53      -0.1239
     85  CA         8.8260   -0.5540   11.5140 C.3    53  ASP53       0.1674
     86  C          7.4070   -1.0000   11.8840 C.2    53  ASP53       0.2266
     87  O          6.4330   -0.3520   11.5090 O.2    53  ASP53      -0.2867
     88  CB         8.8610   -0.0870   10.0550 C.3    53  ASP53       0.1410
     89  CG        10.1580    0.5920    9.7070 C.2    53  ASP53       0.3668
     90  OD1       10.5450    1.5570   10.4150 O.co2  53  ASP53      -0.2456
     91  OD2       10.7940    0.1530    8.7340 O.co2  53  ASP53      -0.2456
     92  N          4.1630    1.4940   12.4650 N.3    56  ASP56      -0.1239
     93  CA         4.2560    2.7800   11.7830 C.3    56  ASP56       0.1674
     94  C          3.3060    2.8760   10.6100 C.2    56  ASP56       0.2266
     95  O          3.5420    2.3050    9.5390 O.2    56  ASP56      -0.2867
     96  CB         5.6990    3.0880   11.3340 C.3    56  ASP56       0.1410
     97  CG         5.8830    4.5610   10.9350 C.2    56  ASP56       0.3668
     98  OD1        4.8680    5.2810   10.7580 O.co2  56  ASP56      -0.2456
     99  OD2        7.0440    5.0040   10.8240 O.co2  56  ASP56      -0.2456
    100  N          2.8890    5.2970    8.6750 N.3    58  GLU58      -0.1231
    101  CA         3.5950    5.9400    7.5620 C.3    58  GLU58       0.1699
    102  C          4.4860    4.9910    6.7760 C.2    58  GLU58       0.2592
    103  O          5.0000    5.3660    5.7150 O.2    58  GLU58      -0.2718
    104  CB         4.4600    7.1100    8.0560 C.3    58  GLU58       0.0402
    105  CG         3.8950    8.4720    7.7960 C.3    58  GLU58       0.1161
    106  CD         2.4300    8.5630    8.1080 C.2    58  GLU58       0.3649
    107  OE1        1.6520    8.8170    7.1700 O.co2  58  GLU58      -0.2457
    108  OE2        2.0610    8.3730    9.2880 O.co2  58  GLU58      -0.2457
    109  N          4.7000    3.7850    7.3050 N.am   59  ALA59      -0.1980
    110  CA         5.5910    2.8260    6.6630 C.3    59  ALA59       0.1597
    111  C          4.8500    1.7900    5.8350 C.2    59  ALA59       0.2287
    112  O          5.4450    1.1540    4.9700 O.2    59  ALA59      -0.2864
    113  CB         6.4720    2.1250    7.6960 C.3    59  ALA59       0.0319
@<TRIPOS>BOND
     1    32    33    1
     2    32    31    1
     3    33    27    1
     4    31    28    1
     5    27    28    1
     6    27    21   am
     7    28    29    1
     8    20    23    1
     9    20    21    1
    10    20    19    1
    11    23    24    1
    12    21    22    2
    13    29    30    2
    14    29    34   am
    15    60    58    1
    16    24    26   ar
    17    24    25   ar
    18    34    35    1
    19    58    55    1
    20    58    59    1
    21    40    38    1
    22    55    54    1
    23    55    56    1
    24    35    38    1
    25    35    36    1
    26    38    39    1
    27    41    36   am
    28    41    42    1
    29    56    57    2
    30    44    43    2
    31    46    45    1
    32    36    37    2
    33    45    42    1
    34   112   111    2
    35    42    43    1
    36    15    14    2
    37    43    47   am
    38   103   102    2
    39   111   110    1
    40    14    13    1
    41    17    16    1
    42   110   109    1
    43   110   113    1
    44   102   109   am
    45   102   101    1
    46    47    48    1
    47    48    51    1
    48    48    49    1
    49   107   106   ar
    50    51    53    1
    51    51    52    1
    52   101   104    1
    53   101   100    1
    54    12    13    1
    55    13    16    1
    56   105   104    1
    57   105   106    1
    58    16    18    1
    59   106   108   ar
    60    49    50    2
    61    91    89   ar
    62    95    94    2
    63    89    88    1
    64    89    90   ar
    65    88    85    1
    66    61    62    1
    67    94    93    1
    68    64    63    2
    69    98    97   ar
    70    99    97   ar
    71    10    11   ar
    72    10     8   ar
    73    97    96    1
    74    11     9   ar
    75     8     6   ar
    76    68    67    2
    77    96    93    1
    78    87    86    2
    79    85    84    1
    80    85    86    1
    81    76    75    2
    82    62    63    1
    83    63    65   am
    84    70    69    1
    85    70    71    1
    86     9     7   ar
    87    93    92    1
    88     6     7   ar
    89     6     5    1
    90    67    69   am
    91    67    66    1
    92     5     2    1
    93    73    71   am
    94    73    74    1
    95    71    72    2
    96    75    74    1
    97    65    66    1
    98    83    81   ar
    99    83    82   ar
   100    81    79   ar
   101    82    80   ar
   102    74    77    1
   103    79    78   ar
   104    80    78   ar
   105     2     3    1
   106     2     1    1
   107    78    77    1
   108     3     4    2
