@<TRIPOS>MOLECULE
tmp/3ny4A01.pdb
 86 81 0 0 0
SMALL
GASTEIGER

@<TRIPOS>ATOM
      1  N         -4.8130  -15.2530    5.1690 N.3    75  ILE75      -0.1245
      2  CA        -4.1490  -13.9730    5.4250 C.3    75  ILE75       0.1561
      3  C         -4.2900  -13.6190    6.9070 C.2    75  ILE75       0.2260
      4  O         -5.4140  -13.5190    7.4130 O.2    75  ILE75      -0.2867
      5  CB        -4.7250  -12.8490    4.5240 C.3    75  ILE75       0.0252
      6  CG1       -4.2550  -13.0460    3.0810 C.3    75  ILE75       0.0019
      7  CG2       -4.3570  -11.4280    5.0590 C.3    75  ILE75       0.0019
      8  CD1       -5.0020  -12.2270    2.0710 C.3    75  ILE75       0.0001
      9  N         -2.0030  -11.0970    9.0850 N.3    77  PRO77      -0.2116
     10  CA        -0.8340  -10.2160    9.1820 C.3    77  PRO77       0.1372
     11  C         -0.2150  -10.1580   10.5840 C.2    77  PRO77       0.2244
     12  O          0.9950   -9.9760   10.7100 O.2    77  PRO77      -0.2868
     13  CB        -1.3950   -8.8440    8.7740 C.3    77  PRO77       0.0268
     14  CG        -2.5940   -9.1450    7.9430 C.3    77  PRO77       0.0207
     15  CD        -3.1840  -10.3820    8.5600 C.3    77  PRO77       0.0892
     16  N         -6.9210   -5.6930   11.3310 N.3    99  TYR99      -0.1241
     17  CA        -6.1290   -6.2580   10.2440 C.3    99  TYR99       0.1605
     18  C         -6.8340   -7.3940    9.4990 C.2    99  TYR99       0.2264
     19  O         -6.2250   -8.0060    8.6190 O.2    99  TYR99      -0.2867
     20  CB        -4.7780   -6.7450   10.7830 C.3    99  TYR99       0.0534
     21  CG        -3.8760   -5.6110   11.2130 C.ar   99  TYR99      -0.0201
     22  CD1       -3.8200   -5.1990   12.5480 C.ar   99  TYR99      -0.0009
     23  CD2       -3.0910   -4.9370   10.2840 C.ar   99  TYR99      -0.0009
     24  CE1       -2.9990   -4.1470   12.9450 C.ar   99  TYR99       0.0417
     25  CE2       -2.2700   -3.8860   10.6670 C.ar   99  TYR99       0.0417
     26  CZ        -2.2310   -3.4950   11.9890 C.ar   99  TYR99       0.1957
     27  OH        -1.4080   -2.4480   12.3310 O.3    99  TYR99      -0.2866
     28  N         -7.8680   -1.0310    7.5330 N.3   190  THR190     -0.1218
     29  CA        -8.1690   -1.5880    6.2110 C.3   190  THR190      0.1862
     30  C         -9.2290   -0.8360    5.4010 C.2   190  THR190      0.2287
     31  O         -9.4970   -1.2140    4.2590 O.2   190  THR190     -0.2866
     32  CB        -8.6670   -3.0360    6.3350 C.3   190  THR190      0.1770
     33  OG1       -9.9340   -3.0190    6.9930 O.3   190  THR190     -0.2211
     34  CG2       -7.6920   -3.9110    7.1350 C.3   190  THR190      0.0375
     35  N        -10.1550    3.3740    1.9350 N.3   193  LYS193     -0.1231
     36  CA       -10.5690    3.5730    0.5520 C.3   193  LYS193      0.1693
     37  C        -12.0040    3.1140    0.2900 C.2   193  LYS193      0.2591
     38  O        -12.4280    2.9820   -0.8640 O.2   193  LYS193     -0.2718
     39  CB        -9.5760    2.9200   -0.4050 C.3   193  LYS193      0.0285
     40  CG        -8.1590    3.4750   -0.2360 C.3   193  LYS193      0.0035
     41  CD        -7.1700    2.8990   -1.2220 C.3   193  LYS193      0.0206
     42  CE        -7.2280    3.6100   -2.5600 C.3   193  LYS193      0.1093
     43  NZ        -6.2100    3.0510   -3.4860 N.3   193  LYS193     -0.1314
     44  N        -12.7700    2.8970    1.3590 N.am  194  ARG194     -0.1980
     45  CA       -14.1490    2.4060    1.2170 C.3   194  ARG194      0.1597
     46  C        -15.1310    3.4560    1.7450 C.2   194  ARG194      0.2287
     47  O        -15.1340    4.5730    1.2290 O.2   194  ARG194     -0.2864
     48  CB       -14.3090    0.9890    1.7940 C.3   194  ARG194      0.0334
     49  CG       -13.3960    0.0080    1.0530 C.3   194  ARG194      0.0492
     50  CD       -13.4470   -1.3910    1.6310 C.3   194  ARG194      0.2205
     51  NE       -12.4100   -2.2140    1.0070 N.pl3 194  ARG194     -0.0865
     52  CZ       -12.4170   -3.5400    0.9150 C.cat 194  ARG194      0.5346
     53  NH1      -11.3960   -4.1620    0.3490 N.pl3 194  ARG194      0.1354
     54  NH2      -13.4320   -4.2550    1.3660 N.pl3 194  ARG194      0.1354
     55  N        -13.3260   -8.6980    2.2350 N.3   211  THR211     -0.1218
     56  CA       -12.8340   -8.8680    0.8670 C.3   211  THR211      0.1862
     57  C        -12.7880  -10.3720    0.6200 C.2   211  THR211      0.2287
     58  O        -12.3780  -11.1360    1.5000 O.2   211  THR211     -0.2866
     59  CB       -11.4250   -8.2510    0.7180 C.3   211  THR211      0.1770
     60  OG1      -11.4830   -6.8620    1.0470 O.3   211  THR211     -0.2211
     61  CG2      -10.8880   -8.4010   -0.7000 C.3   211  THR211      0.0375
     62  N        -11.0710   -9.2830   -9.2170 N.3   247  GLU247     -0.1231
     63  CA       -10.5530   -8.4160   -8.1700 C.3   247  GLU247      0.1684
     64  C        -11.6660   -7.6680   -7.4740 C.2   247  GLU247      0.2434
     65  O        -12.6110   -7.1910   -8.1070 O.2   247  GLU247     -0.2733
     66  CB        -9.5570   -7.3810   -8.7110 C.3   247  GLU247      0.0402
     67  CG        -8.1050   -7.8470   -8.7600 C.3   247  GLU247      0.1161
     68  CD        -7.5430   -8.1760   -7.4030 C.2   247  GLU247      0.3649
     69  OE1       -7.4150   -7.2500   -6.5740 O.co2 247  GLU247     -0.2457
     70  OE2       -7.2340   -9.3620   -7.1660 O.co2 247  GLU247     -0.2457
     71  N        -11.5450   -7.5240   -6.1620 N.am  248  PRO248     -0.2729
     72  CA       -12.4350   -6.6210   -5.4320 C.3   248  PRO248      0.1401
     73  C        -12.1980   -5.1890   -5.9180 C.2   248  PRO248      0.2269
     74  O        -11.0660   -4.8480   -6.2800 O.2   248  PRO248     -0.2865
     75  CB       -11.9890   -6.8330   -3.9800 C.3   248  PRO248      0.0296
     76  CG       -11.2790   -8.2190   -4.0200 C.3   248  PRO248      0.0237
     77  CD       -10.5410   -8.1450   -5.2810 C.3   248  PRO248      0.0939
     78  N        -12.5670   -1.5950   -4.5120 N.3   250  GLU250     -0.1245
     79  CA       -12.8380   -0.6800   -3.4010 C.3   250  GLU250      0.1567
     80  C        -13.5280    0.5850   -3.8730 C.2   250  GLU250      0.2260
     81  O        -14.3540    1.1450   -3.1510 O.2   250  GLU250     -0.2867
     82  CB       -11.5470   -0.2750   -2.6970 C.3   250  GLU250      0.0388
     83  CG       -10.7790   -1.4330   -2.1150 C.3   250  GLU250      0.1160
     84  CD        -9.7710   -0.9530   -1.1010 C.2   250  GLU250      0.3649
     85  OE1       -8.7080   -0.4100   -1.4950 O.co2 250  GLU250     -0.2457
     86  OE2      -10.0510   -1.1240    0.1050 O.co2 250  GLU250     -0.2457
@<TRIPOS>BOND
     1    62    63    1
     2    67    66    1
     3    67    68    1
     4    66    63    1
     5    63    64    1
     6    65    64    2
     7    64    71   am
     8    68    70   ar
     9    68    69   ar
    10    74    73    2
    11    71    72    1
    12    71    77    1
    13    73    72    1
    14    72    75    1
    15    77    76    1
    16    78    79    1
    17    76    75    1
    18    80    79    1
    19    80    81    2
    20    43    42    1
    21    79    82    1
    22    82    83    1
    23    42    41    1
    24    83    84    1
    25    85    84   ar
    26    41    40    1
    27    84    86   ar
    28    38    37    2
    29    61    59    1
    30    39    40    1
    31    39    36    1
    32    37    36    1
    33    37    44   am
    34    53    52    1
    35    36    35    1
    36    57    56    1
    37    57    58    2
    38    59    56    1
    39    59    60    1
    40    56    55    1
    41    52    51    2
    42    52    54    1
    43    51    50    1
    44    49    50    1
    45    49    48    1
    46    45    44    1
    47    45    46    1
    48    45    48    1
    49    47    46    2
    50     8     6    1
    51     6     5    1
    52    31    30    2
    53     5     7    1
    54     5     2    1
    55     1     2    1
    56    30    29    1
    57     2     3    1
    58    29    32    1
    59    29    28    1
    60    32    33    1
    61    32    34    1
    62     3     4    2
    63    14    15    1
    64    14    13    1
    65    15     9    1
    66    19    18    2
    67    13    10    1
    68     9    10    1
    69    10    11    1
    70    18    17    1
    71    17    20    1
    72    17    16    1
    73    23    25   ar
    74    23    21   ar
    75    11    12    2
    76    25    26   ar
    77    20    21    1
    78    21    22   ar
    79    26    27    1
    80    26    24   ar
    81    22    24   ar
