@<TRIPOS>MOLECULE
tmp/3ny4A02.pdb
 79 75 0 0 0
SMALL
GASTEIGER

@<TRIPOS>ATOM
      1  N        -23.2720   -1.1100   18.2030 N.3   168  VAL168     -0.1231
      2  CA       -22.5590    0.1530   18.3700 C.3   168  VAL168      0.1692
      3  C        -23.4300    1.2480   18.9860 C.2   168  VAL168      0.2591
      4  O        -22.9700    1.9870   19.8560 O.2   168  VAL168     -0.2718
      5  CB       -21.9670    0.6450   17.0240 C.3   168  VAL168      0.0266
      6  CG1      -21.3540    2.0400   17.1700 C.3   168  VAL168      0.0020
      7  CG2      -20.9230   -0.3420   16.5200 C.3   168  VAL168      0.0020
      8  N        -24.6740    1.3650   18.5270 N.am  169  LEU169     -0.1980
      9  CA       -25.5630    2.4510   18.9530 C.3   169  LEU169      0.1596
     10  C        -26.5970    2.0040   19.9770 C.2   169  LEU169      0.2287
     11  O        -27.1470    2.8290   20.7080 O.2   169  LEU169     -0.2864
     12  CB       -26.2580    3.0940   17.7420 C.3   169  LEU169      0.0297
     13  CG       -25.3450    3.7490   16.6980 C.3   169  LEU169      0.0022
     14  CD1      -26.1430    4.2170   15.4810 C.3   169  LEU169      0.0001
     15  CD2      -24.5220    4.8970   17.3000 C.3   169  LEU169      0.0001
     16  N        -21.7930   -0.6550   28.2210 N.3   175  PRO175     -0.2116
     17  CA       -20.9060    0.3800   27.7000 C.3   175  PRO175      0.1372
     18  C        -19.4080    0.0460   27.7300 C.2   175  PRO175      0.2244
     19  O        -18.6940    0.4130   26.7940 O.2   175  PRO175     -0.2868
     20  CB       -21.2680    1.5980   28.5550 C.3   175  PRO175      0.0268
     21  CG       -22.7350    1.4140   28.7720 C.3   175  PRO175      0.0207
     22  CD       -22.8750   -0.0650   29.0360 C.3   175  PRO175      0.0892
     23  N        -18.8580   -2.3510   24.8490 N.3   178  ARG178     -0.1231
     24  CA       -19.1910   -1.6040   23.6440 C.3   178  ARG178      0.1694
     25  C        -18.0300   -0.6950   23.2330 C.2   178  ARG178      0.2591
     26  O        -17.6910   -0.6100   22.0470 O.2   178  ARG178     -0.2718
     27  CB       -20.4460   -0.7740   23.8790 C.3   178  ARG178      0.0321
     28  CG       -21.0620   -0.1750   22.6180 C.3   178  ARG178      0.0489
     29  CD       -22.2800    0.7010   22.9240 C.3   178  ARG178      0.2205
     30  NE       -23.1310    0.1160   23.9580 N.pl3 178  ARG178     -0.0865
     31  CZ       -24.0160    0.7860   24.6860 C.cat 178  ARG178      0.5346
     32  NH1      -24.2170    2.0830   24.4770 N.pl3 178  ARG178      0.1354
     33  NH2      -24.7150    0.1410   25.6100 N.pl3 178  ARG178      0.1354
     34  N        -17.4160   -0.0190   24.2100 N.am  179  ALA179     -0.1980
     35  CA       -16.2990    0.8750   23.9390 C.3   179  ALA179      0.1597
     36  C        -15.0920    0.1310   23.3560 C.2   179  ALA179      0.2287
     37  O        -14.4030    0.6680   22.4960 O.2   179  ALA179     -0.2864
     38  CB       -15.9070    1.6350   25.1930 C.3   179  ALA179      0.0319
     39  N        -16.0680   -0.5960   19.6400 N.3   182  THR182     -0.1218
     40  CA       -16.1210    0.6440   18.8770 C.3   182  THR182      0.1862
     41  C        -14.7190    1.2010   18.6430 C.2   182  THR182      0.2287
     42  O        -14.4020    1.6500   17.5290 O.2   182  THR182     -0.2866
     43  CB       -17.0710    1.6740   19.5820 C.3   182  THR182      0.1770
     44  OG1      -18.3960    1.1320   19.6270 O.3   182  THR182     -0.2211
     45  CG2      -17.1420    2.9820   18.8740 C.3   182  THR182      0.0375
     46  N        -17.1010   11.4870   11.4040 N.3   204  LYS204     -0.1245
     47  CA       -16.3540   10.3770   11.9940 C.3   204  LYS204      0.1561
     48  C        -16.8450    9.0720   11.3950 C.2   204  LYS204      0.2260
     49  O        -18.0450    8.8840   11.2270 O.2   204  LYS204     -0.2867
     50  CB       -16.5580   10.3440   13.5010 C.3   204  LYS204      0.0271
     51  CG       -15.8500    9.1940   14.1960 C.3   204  LYS204      0.0035
     52  CD       -16.1530    9.1900   15.6710 C.3   204  LYS204      0.0206
     53  CE       -15.5360    7.9760   16.3020 C.3   204  LYS204      0.1093
     54  NZ       -16.5310    7.3170   17.1790 N.3   204  LYS204     -0.1314
     55  N        -20.6800    9.3840   12.1300 N.3   224  TRP224     -0.1241
     56  CA       -21.2970   10.4860   12.8780 C.3   224  TRP224      0.1605
     57  C        -21.0860   11.7770   12.1150 C.2   224  TRP224      0.2264
     58  O        -19.9770   12.0870   11.6580 O.2   224  TRP224     -0.2867
     59  CB       -20.6930   10.6340   14.2710 C.3   224  TRP224      0.0550
     60  CG       -21.1090    9.5970   15.2580 C.ar  224  TRP224      0.0003
     61  CD1      -22.0590    9.7300   16.2100 C.ar  224  TRP224      0.0946
     62  CD2      -20.5920    8.2610   15.3890 C.ar  224  TRP224      0.0152
     63  NE1      -22.1590    8.5840   16.9620 N.ar  224  TRP224     -0.2442
     64  CE2      -21.2830    7.6570   16.4690 C.ar  224  TRP224      0.0810
     65  CE3      -19.6190    7.5090   14.7020 C.ar  224  TRP224      0.0012
     66  CZ2      -21.0250    6.3510   16.8900 C.ar  224  TRP224      0.0191
     67  CZ3      -19.3640    6.2050   15.1280 C.ar  224  TRP224      0.0001
     68  CH2      -20.0660    5.6440   16.2080 C.ar  224  TRP224      0.0015
     69  N        -22.7160   15.1900   15.5060 N.3   228  GLY228     -0.1225
     70  CA       -22.9420   14.0240   16.3580 C.3   228  GLY228      0.1811
     71  C        -24.1780   13.1980   16.0550 C.2   228  GLY228      0.2280
     72  O        -24.6400   12.4440   16.9100 O.2   228  GLY228     -0.2866
     73  N        -25.7090   10.0510   14.3380 N.3   230  PRO230     -0.2116
     74  CA       -25.1360    8.8300   13.7590 C.3   230  PRO230      0.1372
     75  C        -26.0080    8.1710   12.7100 C.2   230  PRO230      0.2244
     76  O        -27.2480    8.2620   12.7620 O.2   230  PRO230     -0.2868
     77  CB       -25.0160    7.8970   14.9650 C.3   230  PRO230      0.0268
     78  CG       -26.2020    8.2850   15.8380 C.3   230  PRO230      0.0207
     79  CD       -26.3750    9.7950   15.6370 C.3   230  PRO230      0.0892
@<TRIPOS>BOND
     1    49    48    2
     2    48    47    1
     3    46    47    1
     4    58    57    2
     5    47    50    1
     6    57    56    1
     7    55    56    1
     8    75    76    2
     9    75    74    1
    10    56    59    1
    11    50    51    1
    12    74    73    1
    13    74    77    1
    14    51    52    1
    15    59    60    1
    16    73    79    1
    17    65    67   ar
    18    65    62   ar
    19    77    78    1
    20    67    68   ar
    21    60    62   ar
    22    60    61   ar
    23    62    64   ar
    24    14    13    1
    25    69    70    1
    26    79    78    1
    27    52    53    1
    28    71    70    1
    29    71    72    2
    30    68    66   ar
    31    61    63   ar
    32    53    54    1
    33    64    66   ar
    34    64    63   ar
    35     7     5    1
    36    13    15    1
    37    13    12    1
    38     5     6    1
    39     5     2    1
    40    42    41    2
    41    12     9    1
    42     1     2    1
    43     2     3    1
    44     8     9    1
    45     8     3   am
    46    41    40    1
    47    45    43    1
    48    40    43    1
    49    40    39    1
    50     9    10    1
    51     3     4    2
    52    43    44    1
    53    10    11    2
    54    26    25    2
    55    37    36    2
    56    28    29    1
    57    28    27    1
    58    29    30    1
    59    25    24    1
    60    25    34   am
    61    36    35    1
    62    24    27    1
    63    24    23    1
    64    35    34    1
    65    35    38    1
    66    30    31    2
    67    32    31    1
    68    31    33    1
    69    19    18    2
    70    17    18    1
    71    17    16    1
    72    17    20    1
    73    16    22    1
    74    20    21    1
    75    21    22    1
