@<TRIPOS>MOLECULE
tmp/3ny4A00.pdb
 166 158 0 0 0
SMALL
GASTEIGER

@<TRIPOS>ATOM
      1  N        -14.7810  -10.8000    5.9080 N.3    42  SER42      -0.1217
      2  CA       -14.3520  -10.4490    7.2670 C.3    42  SER42       0.1889
      3  C        -15.2790   -9.5200    8.0220 C.2    42  SER42       0.2288
      4  O        -15.0040   -9.1840    9.1740 O.2    42  SER42      -0.2866
      5  CB       -12.9450   -9.8780    7.2860 C.3    42  SER42       0.2089
      6  OG       -12.0230  -10.9020    7.0210 O.3    42  SER42      -0.2183
      7  N         -4.6320  -18.7010    6.2340 N.3    74  SER74      -0.1202
      8  CA        -5.3540  -17.5910    5.6310 C.3    74  SER74       0.2020
      9  C         -4.5240  -16.3370    5.8850 C.2    74  SER74       0.2618
     10  O         -3.6440  -16.3500    6.7450 O.2    74  SER74      -0.2717
     11  CB        -6.7610  -17.4400    6.2560 C.3    74  SER74       0.2103
     12  OG        -6.7130  -17.0610    7.6210 O.3    74  SER74      -0.2182
     13  N         -4.8130  -15.2530    5.1690 N.am   75  ILE75      -0.1979
     14  CA        -4.1490  -13.9730    5.4250 C.3    75  ILE75       0.1595
     15  C         -4.2900  -13.6190    6.9070 C.2    75  ILE75       0.2287
     16  O         -5.4140  -13.5190    7.4130 O.2    75  ILE75      -0.2864
     17  CB        -4.7250  -12.8490    4.5240 C.3    75  ILE75       0.0276
     18  CG1       -4.2550  -13.0460    3.0810 C.3    75  ILE75       0.0022
     19  CG2       -4.3570  -11.4280    5.0590 C.3    75  ILE75       0.0022
     20  CD1       -5.0020  -12.2270    2.0710 C.3    75  ILE75       0.0001
     21  N         -6.9210   -5.6930   11.3310 N.3    99  TYR99      -0.1227
     22  CA        -6.1290   -6.2580   10.2440 C.3    99  TYR99       0.1736
     23  C         -6.8340   -7.3940    9.4990 C.2    99  TYR99       0.2596
     24  O         -6.2250   -8.0060    8.6190 O.2    99  TYR99      -0.2718
     25  CB        -4.7780   -6.7450   10.7830 C.3    99  TYR99       0.0548
     26  CG        -3.8760   -5.6110   11.2130 C.ar   99  TYR99      -0.0200
     27  CD1       -3.8200   -5.1990   12.5480 C.ar   99  TYR99      -0.0009
     28  CD2       -3.0910   -4.9370   10.2840 C.ar   99  TYR99      -0.0009
     29  CE1       -2.9990   -4.1470   12.9450 C.ar   99  TYR99       0.0417
     30  CE2       -2.2700   -3.8860   10.6670 C.ar   99  TYR99       0.0417
     31  CZ        -2.2310   -3.4950   11.9890 C.ar   99  TYR99       0.1957
     32  OH        -1.4080   -2.4480   12.3310 O.3    99  TYR99      -0.2866
     33  N         -8.1020   -7.6680    9.8240 N.am  100  SER100     -0.1952
     34  CA        -8.8470   -8.7890    9.2160 C.3   100  SER100      0.1924
     35  C         -8.0250  -10.0650    9.2850 C.2   100  SER100      0.2314
     36  O         -7.9870  -10.8580    8.3350 O.2   100  SER100     -0.2863
     37  CB        -9.2450   -8.4990    7.7680 C.3   100  SER100      0.2116
     38  OG       -10.1060   -7.4000    7.7190 O.3   100  SER100     -0.2180
     39  N         -7.1520  -13.6130    9.7120 N.3   102  GLY102     -0.1225
     40  CA        -8.0060  -14.7790    9.5800 C.3   102  GLY102      0.1811
     41  C         -7.7650  -15.8390   10.6370 C.2   102  GLY102      0.2280
     42  O         -8.6970  -16.4890   11.1080 O.2   102  GLY102     -0.2866
     43  N        -12.0880  -19.3130    8.2570 N.3   140  GLU140     -0.1231
     44  CA       -11.1610  -18.7250    7.2860 C.3   140  GLU140      0.1684
     45  C        -10.2050  -19.7820    6.7730 C.2   140  GLU140      0.2434
     46  O         -9.6880  -20.5570    7.5780 O.2   140  GLU140     -0.2733
     47  CB       -10.3430  -17.6250    7.9520 C.3   140  GLU140      0.0402
     48  CG       -11.1720  -16.4690    8.4330 C.3   140  GLU140      0.1161
     49  CD       -11.6370  -15.5820    7.3170 C.2   140  GLU140      0.3649
     50  OE1      -11.2340  -15.7950    6.1480 O.co2 140  GLU140     -0.2457
     51  OE2      -12.4340  -14.6630    7.6070 O.co2 140  GLU140     -0.2457
     52  N         -9.9300  -19.8160    5.4570 N.am  141  PRO141     -0.2729
     53  CA       -10.3450  -18.8910    4.3890 C.3   141  PRO141      0.1401
     54  C        -11.6110  -19.3140    3.6540 C.2   141  PRO141      0.2269
     55  O        -12.0880  -18.5710    2.7860 O.2   141  PRO141     -0.2865
     56  CB        -9.1650  -18.9730    3.4170 C.3   141  PRO141      0.0296
     57  CG        -8.7480  -20.4060    3.5170 C.3   141  PRO141      0.0237
     58  CD        -8.8890  -20.7600    4.9820 C.3   141  PRO141      0.0939
     59  N        -14.8170  -17.2750    2.4550 N.3   144  ASN144     -0.1225
     60  CA       -14.7340  -16.2680    1.3940 C.3   144  ASN144      0.1785
     61  C        -14.9960  -16.8070   -0.0040 C.2   144  ASN144      0.2597
     62  O        -15.0470  -16.0460   -0.9630 O.2   144  ASN144     -0.2718
     63  CB       -13.3410  -15.6290    1.4000 C.3   144  ASN144      0.1169
     64  CG       -13.0150  -14.9930    2.7150 C.2   144  ASN144      0.2627
     65  OD1      -13.6200  -13.9910    3.0900 O.2   144  ASN144     -0.2716
     66  ND2      -12.0710  -15.5690    3.4360 N.am  144  ASN144     -0.0877
     67  N        -15.1750  -18.1300   -0.1040 N.am  145  ARG145     -0.1979
     68  CA       -15.0660  -18.8730   -1.3630 C.3   145  ARG145      0.1597
     69  C        -16.3760  -19.4280   -1.9090 C.2   145  ARG145      0.2287
     70  O        -16.3760  -20.0460   -2.9770 O.2   145  ARG145     -0.2864
     71  CB       -14.1160  -20.0640   -1.1810 C.3   145  ARG145      0.0334
     72  CG       -12.7140  -19.6640   -0.8250 C.3   145  ARG145      0.0492
     73  CD       -11.8780  -20.8960   -0.6630 C.3   145  ARG145      0.2205
     74  NE       -10.4830  -20.5470   -0.4380 N.pl3 145  ARG145     -0.0865
     75  CZ        -9.5640  -21.4100   -0.0280 C.cat 145  ARG145      0.5346
     76  NH1       -9.8950  -22.6760    0.2150 N.pl3 145  ARG145      0.1354
     77  NH2       -8.3060  -21.0060    0.1010 N.pl3 145  ARG145      0.1354
     78  N         -7.4010   -0.4370   10.1900 N.3   189  THR189     -0.1203
     79  CA        -6.3650   -0.0670    9.2060 C.3   189  THR189      0.1994
     80  C         -6.7380   -0.3700    7.7630 C.2   189  THR189      0.2618
     81  O         -6.0130    0.0070    6.8640 O.2   189  THR189     -0.2717
     82  CB        -4.9870   -0.7350    9.4850 C.3   189  THR189      0.1784
     83  OG1       -5.0220   -2.1320    9.1380 O.3   189  THR189     -0.2211
     84  CG2       -4.5550   -0.5360   10.9410 C.3   189  THR189      0.0376
     85  N         -7.8680   -1.0310    7.5330 N.am  190  THR190     -0.1952
     86  CA        -8.1690   -1.5880    6.2110 C.3   190  THR190      0.1897
     87  C         -9.2290   -0.8360    5.4010 C.2   190  THR190      0.2313
     88  O         -9.4970   -1.2140    4.2590 O.2   190  THR190     -0.2863
     89  CB        -8.6670   -3.0360    6.3350 C.3   190  THR190      0.1794
     90  OG1       -9.9340   -3.0190    6.9930 O.3   190  THR190     -0.2208
     91  CG2       -7.6920   -3.9110    7.1350 C.3   190  THR190      0.0378
     92  N        -12.7700    2.8970    1.3590 N.3   194  ARG194     -0.1245
     93  CA       -14.1490    2.4060    1.2170 C.3   194  ARG194      0.1563
     94  C        -15.1310    3.4560    1.7450 C.2   194  ARG194      0.2260
     95  O        -15.1340    4.5730    1.2290 O.2   194  ARG194     -0.2867
     96  CB       -14.3090    0.9890    1.7940 C.3   194  ARG194      0.0307
     97  CG       -13.3960    0.0080    1.0530 C.3   194  ARG194      0.0489
     98  CD       -13.4470   -1.3910    1.6310 C.3   194  ARG194      0.2205
     99  NE       -12.4100   -2.2140    1.0070 N.pl3 194  ARG194     -0.0865
    100  CZ       -12.4170   -3.5400    0.9150 C.cat 194  ARG194      0.5346
    101  NH1      -11.3960   -4.1620    0.3490 N.pl3 194  ARG194      0.1354
    102  NH2      -13.4320   -4.2550    1.3660 N.pl3 194  ARG194      0.1354
    103  N        -15.7310   -1.9520    9.6160 N.3   208  LYS208     -0.1231
    104  CA       -15.1110   -3.2460    9.4280 C.3   208  LYS208      0.1693
    105  C        -15.3310   -3.6540    7.9830 C.2   208  LYS208      0.2593
    106  O        -16.4700   -3.7100    7.5060 O.2   208  LYS208     -0.2718
    107  CB       -15.7320   -4.2890   10.3570 C.3   208  LYS208      0.0285
    108  CG       -15.1390   -5.6900   10.1710 C.3   208  LYS208      0.0035
    109  CD       -13.7340   -5.8370   10.7850 C.3   208  LYS208      0.0206
    110  CE       -12.8870   -6.9330   10.1530 C.3   208  LYS208      0.1093
    111  NZ       -12.4300   -6.5840    8.7840 N.3   208  LYS208     -0.1314
    112  N        -14.2430   -3.9830    7.3000 N.am  209  THR209     -0.1939
    113  CA       -14.2800   -4.3560    5.8960 C.3   209  THR209      0.2028
    114  C        -14.4210   -5.8730    5.7230 C.2   209  THR209      0.2643
    115  O        -14.2840   -6.6460    6.6760 O.2   209  THR209     -0.2714
    116  CB       -12.9630   -3.9310    5.2060 C.3   209  THR209      0.1808
    117  OG1      -11.8700   -4.4880    5.9420 O.3   209  THR209     -0.2208
    118  CG2      -12.7960   -2.4410    5.1780 C.3   209  THR209      0.0379
    119  N        -14.6860   -6.2660    4.4850 N.am  210  GLY210     -0.1939
    120  CA       -14.5350   -7.6490    4.0610 C.3   210  GLY210      0.2014
    121  C        -14.1190   -7.6890    2.6030 C.2   210  GLY210      0.2640
    122  O        -14.5370   -6.8300    1.8260 O.2   210  GLY210     -0.2714
    123  N        -13.3260   -8.6980    2.2350 N.am  211  THR211     -0.1936
    124  CA       -12.8340   -8.8680    0.8670 C.3   211  THR211      0.2028
    125  C        -12.7880  -10.3720    0.6200 C.2   211  THR211      0.2643
    126  O        -12.3780  -11.1360    1.5000 O.2   211  THR211     -0.2714
    127  CB       -11.4250   -8.2510    0.7180 C.3   211  THR211      0.1808
    128  OG1      -11.4830   -6.8620    1.0470 O.3   211  THR211     -0.2208
    129  CG2      -10.8880   -8.4010   -0.7000 C.3   211  THR211      0.0379
    130  N        -13.2150  -10.8110   -0.5620 N.am  212  GLY212     -0.1939
    131  CA       -13.2580  -12.2350   -0.8430 C.3   212  GLY212      0.2014
    132  C        -13.0430  -12.5500   -2.3010 C.2   212  GLY212      0.2638
    133  O        -12.7180  -11.6850   -3.1090 O.2   212  GLY212     -0.2714
    134  N        -13.2060  -13.8240   -2.6320 N.am  213  ASP213     -0.1971
    135  CA       -13.1560  -14.2710   -4.0220 C.3   213  ASP213      0.1709
    136  C        -14.3630  -13.7500   -4.8030 C.2   213  ASP213      0.2293
    137  O        -15.2470  -13.1220   -4.2260 O.2   213  ASP213     -0.2864
    138  CB       -13.0060  -15.7880   -4.0690 C.3   213  ASP213      0.1436
    139  CG       -11.7980  -16.2140   -3.3020 C.2   213  ASP213      0.3671
    140  OD1      -10.6740  -15.9420   -3.7880 O.co2 213  ASP213     -0.2456
    141  OD2      -11.9560  -16.7620   -2.1770 O.co2 213  ASP213     -0.2456
    142  N        -11.0710   -9.2830   -9.2170 N.3   247  GLU247     -0.1231
    143  CA       -10.5530   -8.4160   -8.1700 C.3   247  GLU247      0.1684
    144  C        -11.6660   -7.6680   -7.4740 C.2   247  GLU247      0.2434
    145  O        -12.6110   -7.1910   -8.1070 O.2   247  GLU247     -0.2733
    146  CB        -9.5570   -7.3810   -8.7110 C.3   247  GLU247      0.0402
    147  CG        -8.1050   -7.8470   -8.7600 C.3   247  GLU247      0.1161
    148  CD        -7.5430   -8.1760   -7.4030 C.2   247  GLU247      0.3649
    149  OE1       -7.4150   -7.2500   -6.5740 O.co2 247  GLU247     -0.2457
    150  OE2       -7.2340   -9.3620   -7.1660 O.co2 247  GLU247     -0.2457
    151  N        -11.5450   -7.5240   -6.1620 N.am  248  PRO248     -0.2729
    152  CA       -12.4350   -6.6210   -5.4320 C.3   248  PRO248      0.1401
    153  C        -12.1980   -5.1890   -5.9180 C.2   248  PRO248      0.2269
    154  O        -11.0660   -4.8480   -6.2800 O.2   248  PRO248     -0.2865
    155  CB       -11.9890   -6.8330   -3.9800 C.3   248  PRO248      0.0296
    156  CG       -11.2790   -8.2190   -4.0200 C.3   248  PRO248      0.0237
    157  CD       -10.5410   -8.1450   -5.2810 C.3   248  PRO248      0.0939
    158  N        -12.5670   -1.5950   -4.5120 N.3   250  GLU250     -0.1245
    159  CA       -12.8380   -0.6800   -3.4010 C.3   250  GLU250      0.1567
    160  C        -13.5280    0.5850   -3.8730 C.2   250  GLU250      0.2260
    161  O        -14.3540    1.1450   -3.1510 O.2   250  GLU250     -0.2867
    162  CB       -11.5470   -0.2750   -2.6970 C.3   250  GLU250      0.0388
    163  CG       -10.7790   -1.4330   -2.1150 C.3   250  GLU250      0.1160
    164  CD        -9.7710   -0.9530   -1.1010 C.2   250  GLU250      0.3649
    165  OE1       -8.7080   -0.4100   -1.4950 O.co2 250  GLU250     -0.2457
    166  OE2      -10.0510   -1.1240    0.1050 O.co2 250  GLU250     -0.2457
@<TRIPOS>BOND
     1   142   143    1
     2   147   146    1
     3   147   148    1
     4   146   143    1
     5   143   144    1
     6   145   144    2
     7   144   151   am
     8   148   150   ar
     9   148   149   ar
    10   154   153    2
    11   151   152    1
    12   151   157    1
    13   153   152    1
    14   152   155    1
    15   157   156    1
    16   136   137    2
    17   136   135    1
    18   158   159    1
    19   138   135    1
    20   138   139    1
    21   135   134    1
    22   156   155    1
    23   160   159    1
    24   160   161    2
    25   140   139   ar
    26   159   162    1
    27   139   141   ar
    28   133   132    2
    29    70    69    2
    30   162   163    1
    31   134   132   am
    32   132   131    1
    33   163   164    1
    34    69    68    1
    35   165   164   ar
    36    68    71    1
    37    68    67    1
    38    71    72    1
    39   164   166   ar
    40    62    61    2
    41   131   130    1
    42    72    73    1
    43   129   127    1
    44    73    74    1
    45   130   125   am
    46    74    75    2
    47    67    61   am
    48    75    77    1
    49    75    76    1
    50    61    60    1
    51   101   100    1
    52   125   124    1
    53   125   126    2
    54   127   124    1
    55   127   128    1
    56   124   123    1
    57   100    99    2
    58   100   102    1
    59    99    98    1
    60    97    98    1
    61    97    96    1
    62    93    92    1
    63    93    94    1
    64    93    96    1
    65    95    94    2
    66    60    63    1
    67    60    59    1
    68    63    64    1
    69   122   121    2
    70    20    18    1
    71   123   121   am
    72   121   120    1
    73    64    65    2
    74    64    66   am
    75    55    54    2
    76    18    17    1
    77    56    57    1
    78    56    53    1
    79    57    58    1
    80    54    53    1
    81   120   119    1
    82    88    87    2
    83    53    52    1
    84   119   114   am
    85    17    19    1
    86    17    14    1
    87    58    52    1
    88    13    14    1
    89    13     9   am
    90   118   116    1
    91   116   113    1
    92   116   117    1
    93    87    86    1
    94    14    15    1
    95    52    45   am
    96     8     9    1
    97     8     7    1
    98     8    11    1
    99   114   113    1
   100   114   115    2
   101     9    10    2
   102   113   112    1
   103     1     2    1
   104    50    49   ar
   105    86    89    1
   106    86    85    1
   107    11    12    1
   108    89    90    1
   109    89    91    1
   110    45    44    1
   111    45    46    2
   112    81    80    2
   113    15    16    2
   114     6     5    1
   115     2     5    1
   116     2     3    1
   117    44    47    1
   118    44    43    1
   119   112   105   am
   120    49    51   ar
   121    49    48    1
   122   106   105    2
   123    85    80   am
   124    38    37    1
   125    80    79    1
   126    37    34    1
   127    47    48    1
   128   105   104    1
   129     3     4    2
   130    36    35    2
   131    24    23    2
   132   111   110    1
   133    83    82    1
   134    79    82    1
   135    79    78    1
   136    34    35    1
   137    34    33    1
   138   104   103    1
   139   104   107    1
   140    82    84    1
   141    23    33   am
   142    23    22    1
   143    40    39    1
   144    40    41    1
   145   110   109    1
   146   108   107    1
   147   108   109    1
   148    22    25    1
   149    22    21    1
   150    28    30   ar
   151    28    26   ar
   152    41    42    2
   153    30    31   ar
   154    25    26    1
   155    26    27   ar
   156    31    32    1
   157    31    29   ar
   158    27    29   ar
