@<TRIPOS>MOLECULE
tmp/3ny7A00.pdb
 93 92 0 0 0
SMALL
GASTEIGER

@<TRIPOS>ATOM
      1  N         27.9230   20.4420   45.9400 N.3    84  ASN84      -0.1225
      2  CA        28.3230   21.3620   47.0090 C.3    84  ASN84       0.1785
      3  C         28.3010   22.8230   46.5760 C.2    84  ASN84       0.2597
      4  O         29.2350   23.5790   46.8690 O.2    84  ASN84      -0.2718
      5  CB        29.7160   21.0220   47.5450 C.3    84  ASN84       0.1169
      6  CG        29.7410   19.7070   48.2930 C.2    84  ASN84       0.2627
      7  OD1       29.3550   19.6350   49.4610 O.2    84  ASN84      -0.2716
      8  ND2       30.1870   18.6600   47.6220 N.am   84  ASN84      -0.0877
      9  N         27.2390   23.2160   45.8810 N.am   85  VAL85      -0.1980
     10  CA        27.0270   24.6280   45.5560 C.3    85  VAL85       0.1595
     11  C         26.6940   25.4240   46.8220 C.2    85  VAL85       0.2287
     12  O         25.7710   25.0720   47.5780 O.2    85  VAL85      -0.2864
     13  CB        25.9010   24.8060   44.5310 C.3    85  VAL85       0.0276
     14  CG1       25.8610   26.2480   44.0440 C.3    85  VAL85       0.0022
     15  CG2       26.0910   23.8370   43.3450 C.3    85  VAL85       0.0022
     16  N         24.2470   29.3510   44.6000 N.3    90  LEU90      -0.1245
     17  CA        22.9740   28.6540   44.4780 C.3    90  LEU90       0.1561
     18  C         21.8030   29.6410   44.3500 C.2    90  LEU90       0.2260
     19  O         20.9150   29.4510   43.5140 O.2    90  LEU90      -0.2867
     20  CB        22.7600   27.6790   45.6520 C.3    90  LEU90       0.0270
     21  CG        21.6110   26.6700   45.4990 C.3    90  LEU90       0.0019
     22  CD1       21.6890   25.9690   44.1350 C.3    90  LEU90       0.0001
     23  CD2       21.5850   25.6340   46.6530 C.3    90  LEU90       0.0001
     24  N         21.9950   31.1790   40.7880 N.3    93  MET93      -0.1230
     25  CA        21.4850   30.2590   39.7740 C.3    93  MET93       0.1702
     26  C         19.9810   30.0290   39.8860 C.2    93  MET93       0.2592
     27  O         19.3020   29.8410   38.8780 O.2    93  MET93      -0.2718
     28  CB        22.2290   28.9210   39.8340 C.3    93  MET93       0.0401
     29  CG        23.6650   29.0380   39.3580 C.3    93  MET93       0.0596
     30  SD        24.5160   27.4550   39.2500 S.3    93  MET93      -0.1393
     31  CE        24.4440   26.9210   40.9510 C.3    93  MET93       0.0692
     32  N         19.4640   30.0370   41.1120 N.am   94  ALA94      -0.1980
     33  CA        18.0240   29.9310   41.3190 C.3    94  ALA94       0.1597
     34  C         17.2970   31.1420   40.7370 C.2    94  ALA94       0.2287
     35  O         16.2890   30.9960   40.0440 O.2    94  ALA94      -0.2864
     36  CB        17.6960   29.7710   42.7980 C.3    94  ALA94       0.0319
     37  N         17.0210   30.9270   37.1490 N.3    97  GLY97      -0.1210
     38  CA        16.2500   29.7910   36.6740 C.3    97  GLY97       0.1956
     39  C         17.0550   28.6870   36.0030 C.2    97  GLY97       0.2612
     40  O         16.5420   28.0020   35.1200 O.2    97  GLY97      -0.2717
     41  N         18.3090   28.5070   36.4130 N.am   98  ILE98      -0.1965
     42  CA        19.1250   27.4020   35.8980 C.3    98  ILE98       0.1727
     43  C         18.4270   26.0700   36.1640 C.2    98  ILE98       0.2616
     44  O         17.8960   25.8480   37.2460 O.2    98  ILE98      -0.2715
     45  CB        20.5370   27.3720   36.5450 C.3    98  ILE98       0.0290
     46  CG1       21.3100   28.6540   36.2310 C.3    98  ILE98       0.0022
     47  CG2       21.3270   26.1330   36.0900 C.3    98  ILE98       0.0023
     48  CD1       21.3410   29.0220   34.7610 C.3    98  ILE98       0.0001
     49  N         18.4110   25.1890   35.1700 N.am   99  GLN99      -0.1964
     50  CA        17.8060   23.8700   35.3320 C.3    99  GLN99       0.1718
     51  C         18.7890   22.7890   34.9090 C.2    99  GLN99       0.2458
     52  O         19.6920   23.0380   34.1120 O.2    99  GLN99      -0.2730
     53  CB        16.5200   23.7270   34.5010 C.3    99  GLN99       0.0407
     54  CG        15.3920   24.6950   34.8640 C.3    99  GLN99       0.0908
     55  CD        15.1160   24.7740   36.3620 C.2    99  GLN99       0.2608
     56  OE1       14.8020   25.8460   36.8830 O.2    99  GLN99      -0.2717
     57  NE2       15.2300   23.6430   37.0590 N.am   99  GLN99      -0.0878
     58  N         18.6110   21.5710   35.4280 N.am  100  PRO100     -0.2727
     59  CA        19.4680   20.5150   34.8840 C.3   100  PRO100      0.1402
     60  C         19.1060   20.2280   33.4150 C.2   100  PRO100      0.2269
     61  O         18.0210   20.5890   32.9580 O.2   100  PRO100     -0.2865
     62  CB        19.1490   19.3070   35.7710 C.3   100  PRO100      0.0296
     63  CG        17.7950   19.5840   36.3460 C.3   100  PRO100      0.0237
     64  CD        17.6520   21.0770   36.4350 C.3   100  PRO100      0.0939
     65  N         22.9720   18.4410   39.0480 N.3   107  PHE107     -0.1227
     66  CA        23.4460   18.9740   40.3280 C.3   107  PHE107      0.1736
     67  C         23.1820   17.9670   41.4310 C.2   107  PHE107      0.2595
     68  O         22.2180   17.2110   41.3520 O.2   107  PHE107     -0.2718
     69  CB        22.7490   20.2930   40.6740 C.3   107  PHE107      0.0547
     70  CG        23.0680   21.4060   39.7200 C.ar  107  PHE107     -0.0202
     71  CD1       22.3270   21.5710   38.5580 C.ar  107  PHE107     -0.0042
     72  CD2       24.1270   22.2710   39.9730 C.ar  107  PHE107     -0.0042
     73  CE1       22.6190   22.6000   37.6720 C.ar  107  PHE107     -0.0003
     74  CE2       24.4310   23.3010   39.0860 C.ar  107  PHE107     -0.0003
     75  CZ        23.6730   23.4630   37.9380 C.ar  107  PHE107     -0.0000
     76  N         24.0340   17.9880   42.4570 N.am  108  PHE108     -0.1963
     77  CA        24.0070   17.0260   43.5590 C.3   108  PHE108      0.1756
     78  C         24.4470   17.7420   44.8250 C.2   108  PHE108      0.2461
     79  O         25.2060   18.7110   44.7640 O.2   108  PHE108     -0.2730
     80  CB        24.9700   15.8650   43.2830 C.3   108  PHE108      0.0574
     81  CG        24.6610   15.1070   42.0240 C.ar  108  PHE108     -0.0200
     82  CD1       25.1610   15.5310   40.8030 C.ar  108  PHE108     -0.0042
     83  CD2       23.8730   13.9640   42.0630 C.ar  108  PHE108     -0.0042
     84  CE1       24.8740   14.8320   39.6400 C.ar  108  PHE108     -0.0003
     85  CE2       23.5810   13.2650   40.9040 C.ar  108  PHE108     -0.0003
     86  CZ        24.0860   13.6990   39.6960 C.ar  108  PHE108     -0.0000
     87  N         23.9630   17.2740   45.9810 N.am  109  PRO109     -0.2727
     88  CA        24.2830   17.9240   47.2520 C.3   109  PRO109      0.1402
     89  C         25.7350   17.7030   47.6490 C.2   109  PRO109      0.2269
     90  O         26.3150   18.5270   48.3540 O.2   109  PRO109     -0.2865
     91  CB        23.3470   17.2230   48.2420 C.3   109  PRO109      0.0296
     92  CG        23.0330   15.9090   47.6140 C.3   109  PRO109      0.0237
     93  CD        22.9840   16.1840   46.1420 C.3   109  PRO109      0.0939
@<TRIPOS>BOND
     1    61    60    2
     2    60    59    1
     3    52    51    2
     4    53    54    1
     5    53    50    1
     6    48    46    1
     7    54    55    1
     8    59    58    1
     9    59    62    1
    10    51    50    1
    11    51    58   am
    12    40    39    2
    13    49    50    1
    14    49    43   am
    15    58    64    1
    16    62    63    1
    17    42    43    1
    18    42    41    1
    19    42    45    1
    20    39    41   am
    21    39    38    1
    22    47    45    1
    23    43    44    2
    24    46    45    1
    25    63    64    1
    26    55    56    2
    27    55    57   am
    28    38    37    1
    29    73    75   ar
    30    73    71   ar
    31    75    74   ar
    32    71    70   ar
    33    27    26    2
    34    65    66    1
    35    74    72   ar
    36    30    29    1
    37    30    31    1
    38    29    28    1
    39    84    86   ar
    40    84    82   ar
    41    86    85   ar
    42    70    72   ar
    43    70    69    1
    44    25    28    1
    45    25    26    1
    46    25    24    1
    47    26    32   am
    48    35    34    2
    49    66    69    1
    50    66    67    1
    51    34    33    1
    52    82    81   ar
    53    85    83   ar
    54    32    33    1
    55    33    36    1
    56    68    67    2
    57    67    76   am
    58    81    83   ar
    59    81    80    1
    60    76    77    1
    61    80    77    1
    62    15    13    1
    63    19    18    2
    64    77    78    1
    65    14    13    1
    66    22    21    1
    67    18    17    1
    68    17    16    1
    69    17    20    1
    70    13    10    1
    71    79    78    2
    72    78    87   am
    73    21    20    1
    74    21    23    1
    75    10     9    1
    76    10    11    1
    77     9     3   am
    78     1     2    1
    79    87    93    1
    80    87    88    1
    81    93    92    1
    82     3     4    2
    83     3     2    1
    84    11    12    2
    85     2     5    1
    86    88    89    1
    87    88    91    1
    88     5     6    1
    89    92    91    1
    90     8     6   am
    91    89    90    2
    92     6     7    2
