@<TRIPOS>MOLECULE
tmp/3ny8A02.pdb
 186 182 0 0 0
SMALL
GASTEIGER

@<TRIPOS>ATOM
      1  N         -6.1970   12.2440   53.5860 N.3    78  TRP78      -0.1227
      2  CA        -4.9090   12.6170   52.9950 C.3    78  TRP78       0.1737
      3  C         -4.0570   11.3990   52.7590 C.2    78  TRP78       0.2596
      4  O         -3.3320   11.3280   51.7700 O.2    78  TRP78      -0.2718
      5  CB        -4.1540   13.5800   53.9090 C.3    78  TRP78       0.0564
      6  CG        -2.7500   13.8950   53.4750 C.ar   78  TRP78       0.0003
      7  CD1       -2.3740   14.6770   52.4250 C.ar   78  TRP78       0.0946
      8  CD2       -1.5350   13.4580   54.0990 C.ar   78  TRP78       0.0152
      9  NE1       -1.0000   14.7500   52.3440 N.ar   78  TRP78      -0.2442
     10  CE2       -0.4610   14.0170   53.3660 C.ar   78  TRP78       0.0810
     11  CE3       -1.2470   12.6530   55.2100 C.ar   78  TRP78       0.0012
     12  CZ2        0.8780   13.7950   53.7080 C.ar   78  TRP78       0.0191
     13  CZ3        0.0890   12.4290   55.5450 C.ar   78  TRP78       0.0001
     14  CH2        1.1320   12.9970   54.7950 C.ar   78  TRP78       0.0015
     15  N         -4.1430   10.4380   53.6730 N.am   79  THR79      -0.1953
     16  CA        -3.3520    9.2170   53.5530 C.3    79  THR79       0.1897
     17  C         -3.9560    8.2860   52.4960 C.2    79  THR79       0.2313
     18  O         -3.2260    7.6960   51.7310 O.2    79  THR79      -0.2863
     19  CB        -3.1460    8.5100   54.9320 C.3    79  THR79       0.1794
     20  OG1       -2.2710    9.3010   55.7570 O.3    79  THR79      -0.2208
     21  CG2       -2.5200    7.1410   54.7570 C.3    79  THR79       0.0378
     22  N         -3.0620    9.4280   49.2310 N.3    82  ASP82      -0.1225
     23  CA        -1.6400    9.2050   48.9740 C.3    82  ASP82       0.1805
     24  C         -1.4580    7.8060   48.4210 C.2    82  ASP82       0.2597
     25  O         -0.7580    7.6080   47.4130 O.2    82  ASP82      -0.2718
     26  CB        -0.7990    9.3980   50.2380 C.3    82  ASP82       0.1424
     27  CG         0.6930    9.3720   49.9610 C.2    82  ASP82       0.3668
     28  OD1        1.1470    8.4880   49.2240 O.co2  82  ASP82      -0.2456
     29  OD2        1.4290   10.2260   50.4900 O.co2  82  ASP82      -0.2456
     30  N         -2.1130    6.8500   49.0700 N.am   83  VAL83      -0.1980
     31  CA        -2.0450    5.4650   48.6540 C.3    83  VAL83       0.1595
     32  C         -2.6440    5.3130   47.2610 C.2    83  VAL83       0.2287
     33  O         -2.0520    4.6690   46.3930 O.2    83  VAL83      -0.2864
     34  CB        -2.7610    4.5320   49.6530 C.3    83  VAL83       0.0276
     35  CG1       -2.6860    3.0880   49.1800 C.3    83  VAL83       0.0022
     36  CG2       -2.1320    4.6630   51.0430 C.3    83  VAL83       0.0022
     37  N         -0.2670    6.2000   44.3250 N.3    86  VAL86      -0.1231
     38  CA         0.7700    5.2240   44.0160 C.3    86  VAL86       0.1692
     39  C          0.1880    3.9310   43.4500 C.2    86  VAL86       0.2592
     40  O          0.7230    3.3980   42.4710 O.2    86  VAL86      -0.2718
     41  CB         1.6520    4.8990   45.2210 C.3    86  VAL86       0.0266
     42  CG1        2.5680    3.7120   44.9010 C.3    86  VAL86       0.0020
     43  CG2        2.4510    6.1230   45.6030 C.3    86  VAL86       0.0020
     44  N         -0.8830    3.4230   44.0690 N.am   87  THR87      -0.1953
     45  CA        -1.5540    2.1950   43.6010 C.3    87  THR87       0.1897
     46  C         -1.9500    2.2920   42.1090 C.2    87  THR87       0.2313
     47  O         -1.5450    1.4490   41.2870 O.2    87  THR87      -0.2863
     48  CB        -2.8110    1.8970   44.4500 C.3    87  THR87       0.1794
     49  OG1       -2.4180    1.5000   45.7720 O.3    87  THR87      -0.2208
     50  CG2       -3.6650    0.7910   43.8180 C.3    87  THR87       0.0378
     51  N         -0.3200   12.7800   63.0540 N.3   160  CYS160     -0.1235
     52  CA        -0.7930   12.0490   61.8670 C.3   160  CYS160      0.1677
     53  C          0.3850   11.3280   61.1940 C.2   160  CYS160      0.2270
     54  O          0.7090   11.5870   60.0300 O.2   160  CYS160     -0.2867
     55  CB        -1.5220   13.0030   60.9020 C.3   160  CYS160      0.0956
     56  SG        -2.1040   12.3120   59.3200 S.3   160  CYS160     -0.0801
     57  N          2.1310    7.6160   60.0190 N.3   162  PHE162     -0.1241
     58  CA         1.5310    6.4340   59.4010 C.3   162  PHE162      0.1605
     59  C          1.8770    5.1500   60.1420 C.2   162  PHE162      0.2264
     60  O          2.7010    4.3530   59.6920 O.2   162  PHE162     -0.2867
     61  CB         1.8900    6.3300   57.9100 C.3   162  PHE162      0.0534
     62  CG         1.0190    5.3600   57.1420 C.ar  162  PHE162     -0.0203
     63  CD1       -0.3750    5.3710   57.2870 C.ar  162  PHE162     -0.0042
     64  CD2        1.5820    4.4360   56.2760 C.ar  162  PHE162     -0.0042
     65  CE1       -1.1900    4.4730   56.5800 C.ar  162  PHE162     -0.0003
     66  CE2        0.7730    3.5420   55.5650 C.ar  162  PHE162     -0.0003
     67  CZ        -0.6230    3.5670   55.7200 C.ar  162  PHE162     -0.0000
     68  N         -1.7670   -5.5240   57.3840 N.3   168  TYR168     -0.1227
     69  CA        -2.0970   -4.4760   56.4550 C.3   168  TYR168      0.1736
     70  C         -0.8570   -4.1630   55.6320 C.2   168  TYR168      0.2595
     71  O         -0.9300   -4.0980   54.4130 O.2   168  TYR168     -0.2718
     72  CB        -2.6100   -3.2240   57.1520 C.3   168  TYR168      0.0548
     73  CG        -2.7520   -2.1330   56.1590 C.ar  168  TYR168     -0.0200
     74  CD1       -3.8000   -2.1390   55.2470 C.ar  168  TYR168     -0.0009
     75  CD2       -1.8020   -1.1380   56.0630 C.ar  168  TYR168     -0.0009
     76  CE1       -3.9120   -1.1580   54.2880 C.ar  168  TYR168      0.0417
     77  CE2       -1.9070   -0.1530   55.1070 C.ar  168  TYR168      0.0417
     78  CZ        -2.9620   -0.1690   54.2260 C.ar  168  TYR168      0.1957
     79  OH        -3.0520    0.8100   53.2810 O.3   168  TYR168     -0.2866
     80  N          0.2770   -3.9920   56.3000 N.am  169  ALA169     -0.1980
     81  CA         1.5160   -3.5910   55.6370 C.3   169  ALA169      0.1597
     82  C          1.9210   -4.5440   54.5270 C.2   169  ALA169      0.2287
     83  O          2.1280   -4.1190   53.3930 O.2   169  ALA169     -0.2864
     84  CB         2.6490   -3.4650   56.6490 C.3   169  ALA169      0.0319
     85  N         -1.1410   -5.1510   51.6070 N.3   172  SER172     -0.1202
     86  CA        -1.3590   -4.0170   50.7110 C.3   172  SER172      0.2020
     87  C         -0.1890   -3.7880   49.7550 C.2   172  SER172      0.2619
     88  O         -0.4010   -3.7350   48.5390 O.2   172  SER172     -0.2717
     89  CB        -1.6390   -2.7340   51.4720 C.3   172  SER172      0.2103
     90  OG        -1.6990   -1.6560   50.5470 O.3   172  SER172     -0.2182
     91  N          1.0270   -3.6450   50.2900 N.am  173  SER173     -0.1951
     92  CA         2.2270   -3.6070   49.4520 C.3   173  SER173      0.1924
     93  C          2.1500   -4.6030   48.2930 C.2   173  SER173      0.2314
     94  O          2.2160   -4.2110   47.1310 O.2   173  SER173     -0.2863
     95  CB         3.4700   -3.9370   50.2650 C.3   173  SER173      0.2116
     96  OG         3.8480   -2.8530   51.0730 O.3   173  SER173     -0.2180
     97  N         -1.0280   -4.0950   46.0660 N.3   176  SER176     -0.1217
     98  CA        -0.9750   -2.7410   45.5110 C.3   176  SER176      0.1889
     99  C          0.2930   -2.4260   44.7150 C.2   176  SER176      0.2288
    100  O          0.2150   -1.6490   43.7830 O.2   176  SER176     -0.2866
    101  CB        -1.0950   -1.6890   46.6100 C.3   176  SER176      0.2089
    102  OG        -1.9740   -2.0920   47.6380 O.3   176  SER176     -0.2183
    103  N         10.4040    4.4870   43.7620 N.3   383  TRP383     -0.1241
    104  CA         9.5130    3.9610   44.8110 C.3   383  TRP383      0.1605
    105  C         10.0110    2.6840   45.4850 C.2   383  TRP383      0.2264
    106  O          9.7640    2.4800   46.6670 O.2   383  TRP383     -0.2867
    107  CB         8.1090    3.7420   44.2520 C.3   383  TRP383      0.0550
    108  CG         7.3710    5.0120   44.0890 C.ar  383  TRP383      0.0003
    109  CD1        7.2210    5.7340   42.9440 C.ar  383  TRP383      0.0946
    110  CD2        6.6940    5.7350   45.1150 C.ar  383  TRP383      0.0152
    111  NE1        6.4750    6.8640   43.1890 N.ar  383  TRP383     -0.2442
    112  CE2        6.1380    6.8870   44.5180 C.ar  383  TRP383      0.0810
    113  CE3        6.4990    5.5210   46.4820 C.ar  383  TRP383      0.0012
    114  CZ2        5.4050    7.8270   45.2480 C.ar  383  TRP383      0.0191
    115  CZ3        5.7660    6.4530   47.2070 C.ar  383  TRP383      0.0001
    116  CH2        5.2290    7.5910   46.5900 C.ar  383  TRP383      0.0015
    117  N         11.8990    2.6220   49.1140 N.3   386  PHE386     -0.1227
    118  CA        10.8890    2.8390   50.1610 C.3   386  PHE386      0.1736
    119  C         10.0430    1.5940   50.4430 C.2   386  PHE386      0.2595
    120  O          9.8470    1.2200   51.5990 O.2   386  PHE386     -0.2718
    121  CB         9.9920    4.0060   49.7380 C.3   386  PHE386      0.0547
    122  CG         8.7480    4.1830   50.5700 C.ar  386  PHE386     -0.0202
    123  CD1        7.5690    3.5550   50.2130 C.ar  386  PHE386     -0.0042
    124  CD2        8.7440    5.0380   51.6690 C.ar  386  PHE386     -0.0042
    125  CE1        6.4260    3.7350   50.9470 C.ar  386  PHE386     -0.0003
    126  CE2        7.5900    5.2280   52.4180 C.ar  386  PHE386     -0.0003
    127  CZ         6.4310    4.5770   52.0560 C.ar  386  PHE386     -0.0000
    128  N          9.5550    0.9510   49.3880 N.am  387  PHE387     -0.1976
    129  CA         8.6840   -0.2150   49.5530 C.3   387  PHE387      0.1639
    130  C          9.3720   -1.4650   50.0790 C.2   387  PHE387      0.2290
    131  O          8.7100   -2.3160   50.6860 O.2   387  PHE387     -0.2864
    132  CB         7.9730   -0.5410   48.2570 C.3   387  PHE387      0.0560
    133  CG         6.6840    0.1710   48.1050 C.ar  387  PHE387     -0.0200
    134  CD1        5.5300   -0.3610   48.6420 C.ar  387  PHE387     -0.0042
    135  CD2        6.6210    1.3830   47.4320 C.ar  387  PHE387     -0.0042
    136  CE1        4.3270    0.2870   48.5040 C.ar  387  PHE387     -0.0003
    137  CE2        5.4120    2.0460   47.2840 C.ar  387  PHE387     -0.0003
    138  CZ         4.2630    1.4960   47.8250 C.ar  387  PHE387     -0.0000
    139  N          9.7510   -0.4010   53.8880 N.3   390  ASN390     -0.1240
    140  CA         8.4450   -0.6250   54.5380 C.3   390  ASN390      0.1653
    141  C          8.2600   -2.1070   54.8930 C.2   390  ASN390      0.2266
    142  O          7.6310   -2.4330   55.8900 O.2   390  ASN390     -0.2867
    143  CB         7.2790   -0.1380   53.6410 C.3   390  ASN390      0.1155
    144  CG         6.1050    0.4850   54.4410 C.2   390  ASN390      0.2627
    145  OD1        6.2910    1.3770   55.2770 O.2   390  ASN390     -0.2716
    146  ND2        4.8870    0.0310   54.1470 N.am  390  ASN390     -0.0877
    147  N         13.2600    6.7020   56.3150 N.3   405  TYR405     -0.1227
    148  CA        11.8960    6.4910   55.8300 C.3   405  TYR405      0.1736
    149  C         11.3340    7.7220   55.0860 C.2   405  TYR405      0.2595
    150  O         10.8610    7.6070   53.9430 O.2   405  TYR405     -0.2718
    151  CB        11.0000    6.1140   57.0130 C.3   405  TYR405      0.0548
    152  CG         9.6200    5.5980   56.6620 C.ar  405  TYR405     -0.0200
    153  CD1        9.4390    4.3040   56.1970 C.ar  405  TYR405     -0.0009
    154  CD2        8.4920    6.3950   56.8410 C.ar  405  TYR405     -0.0009
    155  CE1        8.1790    3.8170   55.8860 C.ar  405  TYR405      0.0417
    156  CE2        7.2170    5.9210   56.5400 C.ar  405  TYR405      0.0417
    157  CZ         7.0650    4.6270   56.0570 C.ar  405  TYR405      0.1957
    158  OH         5.8000    4.1550   55.7520 O.3   405  TYR405     -0.2866
    159  N         11.4050    8.8950   55.7150 N.am  406  ILE406     -0.1980
    160  CA        10.8920   10.1330   55.0910 C.3   406  ILE406      0.1595
    161  C         11.6380   10.4490   53.7860 C.2   406  ILE406      0.2287
    162  O         11.0010   10.7800   52.7820 O.2   406  ILE406     -0.2864
    163  CB        10.9550   11.3770   56.0340 C.3   406  ILE406      0.0276
    164  CG1       10.0960   11.1790   57.2770 C.3   406  ILE406      0.0022
    165  CG2       10.4430   12.6210   55.3350 C.3   406  ILE406      0.0022
    166  CD1       10.3920   12.1910   58.3630 C.3   406  ILE406      0.0001
    167  N         10.6610    7.9380   51.0910 N.3   409  ASN409     -0.1240
    168  CA         9.3060    8.2730   50.6950 C.3   409  ASN409      0.1653
    169  C          9.2740    9.4590   49.7360 C.2   409  ASN409      0.2266
    170  O          8.5570    9.4150   48.7440 O.2   409  ASN409     -0.2867
    171  CB         8.4250    8.5850   51.9100 C.3   409  ASN409      0.1155
    172  CG         6.9260    8.5300   51.5870 C.2   409  ASN409      0.2627
    173  OD1        6.1060    8.3610   52.4750 O.2   409  ASN409     -0.2716
    174  ND2        6.5760    8.6620   50.3180 N.am  409  ASN409     -0.0877
    175  N          7.6930   10.8180   46.0720 N.3   413  TYR413     -0.1241
    176  CA         7.0080   12.0740   45.7520 C.3   413  TYR413      0.1605
    177  C          7.6280   12.8160   44.5460 C.2   413  TYR413      0.2264
    178  O          6.9230   13.2460   43.6370 O.2   413  TYR413     -0.2867
    179  CB         6.9650   12.9810   46.9910 C.3   413  TYR413      0.0534
    180  CG         6.0090   12.5640   48.1150 C.ar  413  TYR413     -0.0201
    181  CD1        5.0290   11.5890   47.9350 C.ar  413  TYR413     -0.0009
    182  CD2        6.0600   13.1980   49.3520 C.ar  413  TYR413     -0.0009
    183  CE1        4.1390   11.2420   48.9780 C.ar  413  TYR413      0.0417
    184  CE2        5.1920   12.8640   50.3930 C.ar  413  TYR413      0.0417
    185  CZ         4.2310   11.8910   50.2030 C.ar  413  TYR413      0.1957
    186  OH         3.3740   11.5730   51.2390 O.3   413  TYR413     -0.2866
@<TRIPOS>BOND
     1    47    46    2
     2    46    45    1
     3    40    39    2
     4   109   111   ar
     5   109   108   ar
     6   111   112   ar
     7    39    38    1
     8    39    44   am
     9    45    44    1
    10    45    48    1
    11   178   177    2
    12   103   104    1
    13   100    99    2
    14    50    48    1
    15    38    37    1
    16    38    41    1
    17   108   107    1
    18   108   110   ar
    19   107   104    1
    20    48    49    1
    21   112   110   ar
    22   112   114   ar
    23   177   176    1
    24    99    98    1
    25   104   105    1
    26    42    41    1
    27   110   113   ar
    28    41    43    1
    29   114   116   ar
    30   105   106    2
    31    98    97    1
    32    98   101    1
    33   176   175    1
    34   176   179    1
    35    33    32    2
    36   113   115   ar
    37   116   115   ar
    38   101   102    1
    39   179   180    1
    40    94    93    2
    41    32    31    1
    42   137   135   ar
    43   137   138   ar
    44    25    24    2
    45   135   133   ar
    46   138   136   ar
    47   181   180   ar
    48   181   183   ar
    49   133   132    1
    50   133   134   ar
    51   180   182   ar
    52   132   129    1
    53    93    92    1
    54    24    23    1
    55    24    30   am
    56   136   134   ar
    57    88    87    2
    58    31    30    1
    59    31    34    1
    60   170   169    2
    61    23    22    1
    62    23    26    1
    63   183   185   ar
    64   117   118    1
    65    35    34    1
    66    28    27   ar
    67   182   184   ar
    68   128   129    1
    69   128   119   am
    70    92    95    1
    71    92    91    1
    72   129   130    1
    73    34    36    1
    74   169   168    1
    75   121   118    1
    76   121   122    1
    77    87    91   am
    78    87    86    1
    79    27    26    1
    80    27    29   ar
    81   130   131    2
    82   118   119    1
    83   185   184   ar
    84   185   186    1
    85   123   122   ar
    86   123   125   ar
    87    95    96    1
    88   174   172   am
    89   119   120    2
    90    90    89    1
    91   122   124   ar
    92   168   167    1
    93   168   171    1
    94    86    89    1
    95    86    85    1
    96   125   127   ar
    97   172   171    1
    98   172   173    2
    99   124   126   ar
   100    18    17    2
   101     4     3    2
   102   127   126   ar
   103     9     7   ar
   104     9    10   ar
   105     7     6   ar
   106    17    16    1
   107     3     2    1
   108     3    15   am
   109   162   161    2
   110     2     1    1
   111     2     5    1
   112    79    78    1
   113    10    12   ar
   114    10     8   ar
   115    83    82    2
   116     6     5    1
   117     6     8   ar
   118    16    15    1
   119    16    19    1
   120   143   144    1
   121   143   140    1
   122    12    14   ar
   123   161   160    1
   124   139   140    1
   125   150   149    2
   126     8    11   ar
   127   146   144   am
   128    78    76   ar
   129    78    77   ar
   130    76    74   ar
   131    71    70    2
   132   144   145    2
   133    82    81    1
   134   140   141    1
   135    21    19    1
   136    14    13   ar
   137   141   142    2
   138    19    20    1
   139   149   159   am
   140   149   148    1
   141   160   159    1
   142   160   163    1
   143    77    75   ar
   144    11    13   ar
   145    74    73   ar
   146   165   163    1
   147    66    67   ar
   148    66    64   ar
   149    70    80   am
   150    70    69    1
   151    81    80    1
   152    81    84    1
   153    67    65   ar
   154   158   157    1
   155   148   147    1
   156   148   151    1
   157   155   157   ar
   158   155   153   ar
   159   163   164    1
   160   157   156   ar
   161    75    73   ar
   162    73    72    1
   163   153   152   ar
   164    64    62   ar
   165    69    72    1
   166    69    68    1
   167   156   154   ar
   168    65    63   ar
   169   152   154   ar
   170   152   151    1
   171    62    63   ar
   172    62    61    1
   173   164   166    1
   174    61    58    1
   175    56    55    1
   176    58    57    1
   177    58    59    1
   178    60    59    2
   179    54    53    2
   180    55    52    1
   181    53    52    1
   182    52    51    1
