@<TRIPOS>MOLECULE
tmp/3ny9A02.pdb
 189 185 0 0 0
SMALL
GASTEIGER

@<TRIPOS>ATOM
      1  N         -6.0760   12.5770   53.3240 N.3    78  TRP78      -0.1227
      2  CA        -4.7260   12.8060   52.7800 C.3    78  TRP78       0.1737
      3  C         -3.9840   11.4920   52.5360 C.2    78  TRP78       0.2596
      4  O         -3.3930   11.3050   51.4740 O.2    78  TRP78      -0.2718
      5  CB        -3.9140   13.7260   53.7040 C.3    78  TRP78       0.0564
      6  CG        -2.4900   13.9780   53.2670 C.ar   78  TRP78       0.0003
      7  CD1       -2.0780   14.7580   52.2250 C.ar   78  TRP78       0.0946
      8  CD2       -1.2970   13.4680   53.8770 C.ar   78  TRP78       0.0152
      9  NE1       -0.7080   14.7580   52.1370 N.ar   78  TRP78      -0.2442
     10  CE2       -0.2010   13.9750   53.1390 C.ar   78  TRP78       0.0810
     11  CE3       -1.0450   12.6310   54.9720 C.ar   78  TRP78       0.0012
     12  CZ2        1.1340   13.6710   53.4610 C.ar   78  TRP78       0.0191
     13  CZ3        0.2820   12.3280   55.2920 C.ar   78  TRP78       0.0001
     14  CH2        1.3540   12.8500   54.5370 C.ar   78  TRP78       0.0015
     15  N         -4.0440   10.5840   53.5110 N.am   79  THR79      -0.1953
     16  CA        -3.4240    9.2630   53.3930 C.3    79  THR79       0.1897
     17  C         -4.0760    8.4250   52.3020 C.2    79  THR79       0.2313
     18  O         -3.3900    7.8800   51.4510 O.2    79  THR79      -0.2863
     19  CB        -3.4680    8.4730   54.7170 C.3    79  THR79       0.1794
     20  OG1       -3.2300    9.3550   55.8180 O.3    79  THR79      -0.2208
     21  CG2       -2.4010    7.3840   54.7170 C.3    79  THR79       0.0378
     22  N         -3.2540    9.7740   48.8990 N.3    82  ASP82      -0.1225
     23  CA        -1.8400    9.5220   48.6230 C.3    82  ASP82       0.1805
     24  C         -1.6840    8.1120   48.0790 C.2    82  ASP82       0.2597
     25  O         -1.2200    7.9280   46.9460 O.2    82  ASP82      -0.2718
     26  CB        -0.9860    9.7100   49.8910 C.3    82  ASP82       0.1424
     27  CG         0.5170    9.5480   49.6360 C.2    82  ASP82       0.3668
     28  OD1        0.9130    8.7560   48.7610 O.co2  82  ASP82      -0.2456
     29  OD2        1.3170   10.2040   50.3300 O.co2  82  ASP82      -0.2456
     30  N         -2.0970    7.1300   48.8830 N.am   83  VAL83      -0.1980
     31  CA        -2.0070    5.7210   48.5150 C.3    83  VAL83       0.1595
     32  C         -2.6810    5.4620   47.1690 C.2    83  VAL83       0.2287
     33  O         -2.1340    4.7430   46.3390 O.2    83  VAL83      -0.2864
     34  CB        -2.5660    4.7880   49.6270 C.3    83  VAL83       0.0276
     35  CG1       -2.6170    3.3410   49.1660 C.3    83  VAL83       0.0022
     36  CG2       -1.7250    4.8880   50.8820 C.3    83  VAL83       0.0022
     37  N         -0.4700    6.5300   44.0700 N.3    86  VAL86      -0.1231
     38  CA         0.6530    5.6200   43.8630 C.3    86  VAL86       0.1692
     39  C          0.2120    4.2830   43.2730 C.2    86  VAL86       0.2592
     40  O          0.8250    3.7950   42.3260 O.2    86  VAL86      -0.2718
     41  CB         1.4330    5.4030   45.1610 C.3    86  VAL86       0.0266
     42  CG1        2.3900    4.2080   45.0370 C.3    86  VAL86       0.0020
     43  CG2        2.1930    6.6780   45.5180 C.3    86  VAL86       0.0020
     44  N         -0.8530    3.7120   43.8340 N.am   87  THR87      -0.1953
     45  CA        -1.4790    2.4770   43.3470 C.3    87  THR87       0.1897
     46  C         -1.9940    2.6070   41.9080 C.2    87  THR87       0.2313
     47  O         -1.6600    1.7830   41.0510 O.2    87  THR87      -0.2863
     48  CB        -2.6520    2.0580   44.2720 C.3    87  THR87       0.1794
     49  OG1       -2.1800    1.9160   45.6220 O.3    87  THR87      -0.2208
     50  CG2       -3.3060    0.7510   43.8030 C.3    87  THR87       0.0378
     51  N          1.9020    7.6380   59.8010 N.3   162  PHE162     -0.1241
     52  CA         1.2620    6.4640   59.2150 C.3   162  PHE162      0.1605
     53  C          1.6820    5.1690   59.9080 C.2   162  PHE162      0.2264
     54  O          2.5680    4.4560   59.4270 O.2   162  PHE162     -0.2867
     55  CB         1.5190    6.3890   57.7080 C.3   162  PHE162      0.0534
     56  CG         0.6400    5.3990   56.9950 C.ar  162  PHE162     -0.0203
     57  CD1       -0.7410    5.3880   57.2120 C.ar  162  PHE162     -0.0042
     58  CD2        1.1840    4.4810   56.0990 C.ar  162  PHE162     -0.0042
     59  CE1       -1.5660    4.4760   56.5520 C.ar  162  PHE162     -0.0003
     60  CE2        0.3650    3.5670   55.4270 C.ar  162  PHE162     -0.0003
     61  CZ        -1.0150    3.5690   55.6580 C.ar  162  PHE162     -0.0000
     62  N          0.8180    1.4390   60.8770 N.3   164  THR164     -0.1218
     63  CA        -0.0520    0.3180   60.5050 C.3   164  THR164      0.1862
     64  C          0.3110   -0.9770   61.2320 C.2   164  THR164      0.2287
     65  O          1.3640   -1.0760   61.8570 O.2   164  THR164     -0.2866
     66  CB        -0.1020    0.0620   58.9600 C.3   164  THR164      0.1770
     67  OG1        0.9500   -0.8300   58.5650 O.3   164  THR164     -0.2211
     68  CG2       -0.0180    1.3600   58.1720 C.3   164  THR164      0.0375
     69  N         -1.6820   -5.6800   57.3170 N.3   168  TYR168     -0.1227
     70  CA        -2.0230   -4.7000   56.2860 C.3   168  TYR168      0.1736
     71  C         -0.7630   -4.2200   55.5510 C.2   168  TYR168      0.2595
     72  O         -0.7560   -4.1370   54.3250 O.2   168  TYR168     -0.2718
     73  CB        -2.8020   -3.5250   56.8920 C.3   168  TYR168      0.0548
     74  CG        -2.8700   -2.3030   56.0070 C.ar  168  TYR168     -0.0200
     75  CD1       -1.8910   -1.3180   56.0770 C.ar  168  TYR168     -0.0009
     76  CD2       -3.9200   -2.1270   55.1060 C.ar  168  TYR168     -0.0009
     77  CE1       -1.9420   -0.1940   55.2700 C.ar  168  TYR168      0.0417
     78  CE2       -3.9880   -0.9950   54.2920 C.ar  168  TYR168      0.0417
     79  CZ        -2.9910   -0.0380   54.3810 C.ar  168  TYR168      0.1957
     80  OH        -3.0400    1.0800   53.5870 O.3   168  TYR168     -0.2866
     81  N          0.2920   -3.9130   56.3060 N.am  169  ALA169     -0.1980
     82  CA         1.5860   -3.5420   55.7340 C.3   169  ALA169      0.1597
     83  C          2.0150   -4.5000   54.6170 C.2   169  ALA169      0.2287
     84  O          2.3620   -4.0590   53.5200 O.2   169  ALA169     -0.2864
     85  CB         2.6430   -3.4840   56.8200 C.3   169  ALA169      0.0319
     86  N         -1.2660   -4.6700   51.7470 N.3   172  SER172     -0.1202
     87  CA        -1.3600   -3.4760   50.9140 C.3   172  SER172      0.2020
     88  C         -0.1930   -3.3420   49.9470 C.2   172  SER172      0.2619
     89  O         -0.3990   -3.0310   48.7790 O.2   172  SER172     -0.2717
     90  CB        -1.4580   -2.2170   51.7660 C.3   172  SER172      0.2103
     91  OG        -1.8880   -1.1290   50.9730 O.3   172  SER172     -0.2182
     92  N          1.0240   -3.5850   50.4390 N.am  173  SER173     -0.1951
     93  CA         2.2390   -3.4430   49.6400 C.3   173  SER173      0.1924
     94  C          2.3000   -4.4260   48.4820 C.2   173  SER173      0.2314
     95  O          2.6860   -4.0650   47.3610 O.2   173  SER173     -0.2863
     96  CB         3.4630   -3.6110   50.5200 C.3   173  SER173      0.2116
     97  OG         3.4980   -2.6130   51.5240 O.3   173  SER173     -0.2180
     98  N         -0.7580   -3.5340   46.0820 N.3   176  SER176     -0.1217
     99  CA        -0.6860   -2.1770   45.5480 C.3   176  SER176      0.1889
    100  C          0.5380   -1.9590   44.6940 C.2   176  SER176      0.2288
    101  O          0.4610   -1.2720   43.6840 O.2   176  SER176     -0.2866
    102  CB        -0.6740   -1.1320   46.6600 C.3   176  SER176      0.2089
    103  OG        -1.7600   -1.2950   47.5460 O.3   176  SER176     -0.2183
    104  N         10.5640    4.5600   43.6600 N.3   383  TRP383     -0.1241
    105  CA         9.6680    4.0130   44.6700 C.3   383  TRP383      0.1605
    106  C         10.1680    2.7500   45.3720 C.2   383  TRP383      0.2264
    107  O          9.9590    2.5810   46.5740 O.2   383  TRP383     -0.2867
    108  CB         8.2770    3.7990   44.0870 C.3   383  TRP383      0.0550
    109  CG         7.4540    5.0450   44.0310 C.ar  383  TRP383      0.0003
    110  CD1        7.0740    5.7220   42.9130 C.ar  383  TRP383      0.0946
    111  CD2        6.9000    5.7620   45.1430 C.ar  383  TRP383      0.0152
    112  NE1        6.3140    6.8150   43.2530 N.ar  383  TRP383     -0.2442
    113  CE2        6.1910    6.8630   44.6160 C.ar  383  TRP383      0.0810
    114  CE3        6.9310    5.5780   46.5320 C.ar  383  TRP383      0.0012
    115  CZ2        5.5170    7.7810   45.4310 C.ar  383  TRP383      0.0191
    116  CZ3        6.2600    6.4950   47.3450 C.ar  383  TRP383      0.0001
    117  CH2        5.5640    7.5810   46.7890 C.ar  383  TRP383      0.0015
    118  N         11.8570    2.7860   49.0150 N.3   386  PHE386     -0.1227
    119  CA        10.7790    3.0130   49.9790 C.3   386  PHE386      0.1736
    120  C         10.0390    1.7290   50.2980 C.2   386  PHE386      0.2595
    121  O          9.9350    1.3600   51.4580 O.2   386  PHE386     -0.2718
    122  CB         9.8050    4.0740   49.4410 C.3   386  PHE386      0.0547
    123  CG         8.5790    4.2890   50.3000 C.ar  386  PHE386     -0.0202
    124  CD1        8.6440    5.0650   51.4540 C.ar  386  PHE386     -0.0042
    125  CD2        7.3540    3.7380   49.9370 C.ar  386  PHE386     -0.0042
    126  CE1        7.5150    5.2680   52.2470 C.ar  386  PHE386     -0.0003
    127  CE2        6.2240    3.9390   50.7220 C.ar  386  PHE386     -0.0003
    128  CZ         6.3050    4.7090   51.8810 C.ar  386  PHE386     -0.0000
    129  N          9.5530    1.0410   49.2690 N.am  387  PHE387     -0.1976
    130  CA         8.7410   -0.1660   49.4630 C.3   387  PHE387      0.1639
    131  C          9.5100   -1.3760   49.9810 C.2   387  PHE387      0.2290
    132  O          8.9370   -2.1950   50.6970 O.2   387  PHE387     -0.2864
    133  CB         7.9700   -0.5280   48.1970 C.3   387  PHE387      0.0560
    134  CG         6.6540    0.1790   48.0720 C.ar  387  PHE387     -0.0200
    135  CD1        5.5210   -0.3090   48.7240 C.ar  387  PHE387     -0.0042
    136  CD2        6.5370    1.3300   47.3000 C.ar  387  PHE387     -0.0042
    137  CE1        4.2890    0.3400   48.6140 C.ar  387  PHE387     -0.0003
    138  CE2        5.3130    1.9830   47.1790 C.ar  387  PHE387     -0.0003
    139  CZ         4.1840    1.4850   47.8410 C.ar  387  PHE387     -0.0000
    140  N         10.0660   -0.4280   53.5420 N.3   390  ASN390     -0.1240
    141  CA         8.7640   -0.5940   54.1530 C.3   390  ASN390      0.1653
    142  C          8.6490   -1.9920   54.7320 C.2   390  ASN390      0.2266
    143  O          8.4080   -2.1490   55.9190 O.2   390  ASN390     -0.2867
    144  CB         7.6670   -0.3630   53.1110 C.3   390  ASN390      0.1155
    145  CG         6.3690    0.1370   53.7210 C.2   390  ASN390      0.2627
    146  OD1        6.3650    1.0590   54.5420 O.2   390  ASN390     -0.2716
    147  ND2        5.2540   -0.4590   53.3020 N.am  390  ASN390     -0.0877
    148  N         10.9450   -3.1230   57.5810 N.3   393  HIS393     -0.1241
    149  CA        10.4370   -2.6080   58.8600 C.3   393  HIS393      0.1621
    150  C          9.3970   -3.5340   59.5340 C.2   393  HIS393      0.2264
    151  O          9.1540   -3.4340   60.7420 O.2   393  HIS393     -0.2867
    152  CB         9.8580   -1.2000   58.6600 C.3   393  HIS393      0.0745
    153  CG         9.3140   -0.5800   59.9110 C.ar  393  HIS393      0.0817
    154  ND1        7.9820   -0.6530   60.2590 N.ar  393  HIS393     -0.2268
    155  CD2        9.9230    0.1160   60.9000 C.ar  393  HIS393      0.1154
    156  CE1        7.7930   -0.0240   61.4060 C.ar  393  HIS393      0.1986
    157  NE2        8.9550    0.4520   61.8160 N.ar  393  HIS393     -0.2212
    158  N         12.6820    6.8330   56.5570 N.3   405  TYR405     -0.1241
    159  CA        11.3880    6.4800   55.9750 C.3   405  TYR405      0.1605
    160  C         10.7770    7.6580   55.2000 C.2   405  TYR405      0.2264
    161  O         10.5010    7.5430   54.0010 O.2   405  TYR405     -0.2867
    162  CB        10.4480    5.9800   57.0810 C.3   405  TYR405      0.0534
    163  CG         9.0700    5.5440   56.6240 C.ar  405  TYR405     -0.0201
    164  CD1        8.8810    4.3230   55.9660 C.ar  405  TYR405     -0.0009
    165  CD2        7.9500    6.3430   56.8720 C.ar  405  TYR405     -0.0009
    166  CE1        7.6100    3.9130   55.5500 C.ar  405  TYR405      0.0417
    167  CE2        6.6770    5.9510   56.4650 C.ar  405  TYR405      0.0417
    168  CZ         6.5100    4.7360   55.8060 C.ar  405  TYR405      0.1957
    169  OH         5.2430    4.3480   55.4070 O.3   405  TYR405     -0.2866
    170  N         10.2310    8.1530   51.0750 N.3   409  ASN409     -0.1240
    171  CA         8.9320    8.5370   50.5520 C.3   409  ASN409      0.1653
    172  C          9.0120    9.7500   49.6270 C.2   409  ASN409      0.2266
    173  O          8.2950    9.8120   48.6170 O.2   409  ASN409     -0.2867
    174  CB         7.9470    8.8250   51.6880 C.3   409  ASN409      0.1155
    175  CG         6.4920    8.6640   51.2590 C.2   409  ASN409      0.2627
    176  OD1        5.6310    8.3690   52.0810 O.2   409  ASN409     -0.2716
    177  ND2        6.2190    8.8420   49.9690 N.am  409  ASN409     -0.0877
    178  N          7.8490   10.9560   45.9810 N.3   413  TYR413     -0.1241
    179  CA         7.0830   12.1620   45.6240 C.3   413  TYR413      0.1605
    180  C          7.6620   12.8640   44.4070 C.2   413  TYR413      0.2264
    181  O          6.9350   13.2520   43.4980 O.2   413  TYR413     -0.2867
    182  CB         7.0000   13.1630   46.7850 C.3   413  TYR413      0.0534
    183  CG         6.0550   12.7790   47.9050 C.ar  413  TYR413     -0.0201
    184  CD1        4.9500   11.9580   47.6710 C.ar  413  TYR413     -0.0009
    185  CD2        6.2520   13.2630   49.1980 C.ar  413  TYR413     -0.0009
    186  CE1        4.0930   11.6060   48.6960 C.ar  413  TYR413      0.0417
    187  CE2        5.3950   12.9220   50.2260 C.ar  413  TYR413      0.0417
    188  CZ         4.3190   12.0940   49.9670 C.ar  413  TYR413      0.1957
    189  OH         3.4640   11.7530   50.9880 O.3   413  TYR413     -0.2866
@<TRIPOS>BOND
     1    47    46    2
     2    46    45    1
     3    40    39    2
     4   110   112   ar
     5   110   109   ar
     6   112   113   ar
     7    39    44   am
     8    39    38    1
     9    45    44    1
    10    45    48    1
    11   181   180    2
    12   104   105    1
    13   101   100    2
    14    50    48    1
    15    38    37    1
    16    38    41    1
    17   109   108    1
    18   109   111   ar
    19   108   105    1
    20    48    49    1
    21   180   179    1
    22   113   111   ar
    23   113   115   ar
    24   105   106    1
    25   100    99    1
    26    42    41    1
    27   111   114   ar
    28    41    43    1
    29   106   107    2
    30   115   117   ar
    31    99    98    1
    32    99   102    1
    33   179   178    1
    34   179   182    1
    35    33    32    2
    36   114   116   ar
    37   102   103    1
    38   182   183    1
    39   117   116   ar
    40    25    24    2
    41    32    31    1
    42   138   136   ar
    43   138   139   ar
    44   136   134   ar
    45    95    94    2
    46   184   183   ar
    47   184   186   ar
    48   139   137   ar
    49   183   185   ar
    50   134   133    1
    51   134   135   ar
    52    24    23    1
    53    24    30   am
    54   133   130    1
    55    94    93    1
    56    31    30    1
    57    31    34    1
    58   137   135   ar
    59   173   172    2
    60    23    22    1
    61    23    26    1
    62   186   188   ar
    63    28    27   ar
    64    89    88    2
    65   118   119    1
    66    35    34    1
    67   185   187   ar
    68   129   130    1
    69   129   120   am
    70   122   119    1
    71   122   123    1
    72   130   131    1
    73   172   171    1
    74    34    36    1
    75    27    26    1
    76    27    29   ar
    77    93    92    1
    78    93    96    1
    79   125   123   ar
    80   125   127   ar
    81    88    92   am
    82    88    87    1
    83   188   187   ar
    84   188   189    1
    85   177   175   am
    86   119   120    1
    87   131   132    2
    88   120   121    2
    89   123   124   ar
    90    96    97    1
    91   171   170    1
    92   171   174    1
    93   127   128   ar
    94    87    86    1
    95    87    90    1
    96    91    90    1
    97   175   174    1
    98   175   176    2
    99    18    17    2
   100   124   126   ar
   101     4     3    2
   102   128   126   ar
   103     9     7   ar
   104     9    10   ar
   105     7     6   ar
   106    17    16    1
   107     3     2    1
   108     3    15   am
   109     2     1    1
   110     2     5    1
   111   144   145    1
   112   144   141    1
   113    10    12   ar
   114    10     8   ar
   115     6     5    1
   116     6     8   ar
   117   147   145   am
   118    16    15    1
   119    16    19    1
   120    12    14   ar
   121    84    83    2
   122   140   141    1
   123    80    79    1
   124   145   146    2
   125     8    11   ar
   126   161   160    2
   127   141   142    1
   128    78    79   ar
   129    78    76   ar
   130    72    71    2
   131    79    77   ar
   132    14    13   ar
   133    83    82    1
   134    19    21    1
   135    19    20    1
   136   142   143    2
   137    11    13   ar
   138    76    74   ar
   139   160   159    1
   140    77    75   ar
   141   169   168    1
   142    60    61   ar
   143    60    58   ar
   144   166   168   ar
   145   166   164   ar
   146    71    70    1
   147    71    81   am
   148    61    59   ar
   149    82    81    1
   150    82    85    1
   151   168   167   ar
   152   164   163   ar
   153   159   158    1
   154   159   162    1
   155    74    75   ar
   156    74    73    1
   157    58    56   ar
   158    70    73    1
   159    70    69    1
   160   167   165   ar
   161    59    57   ar
   162   163   165   ar
   163   163   162    1
   164    56    57   ar
   165    56    55    1
   166   148   149    1
   167    55    52    1
   168    68    66    1
   169    67    66    1
   170   152   149    1
   171   152   153    1
   172   149   150    1
   173    66    63    1
   174    52    51    1
   175    52    53    1
   176    54    53    2
   177   150   151    2
   178   153   154   ar
   179   153   155   ar
   180   154   156   ar
   181    63    62    1
   182    63    64    1
   183   155   157   ar
   184    64    65    2
   185   156   157   ar
