@<TRIPOS>MOLECULE
tmp/3ny9A03.pdb
 86 80 0 0 0
SMALL
GASTEIGER

@<TRIPOS>ATOM
      1  N          9.1610   24.6770   45.0180 N.3    11  LEU11      -0.1245
      2  CA         9.5870   24.5090   43.6280 C.3    11  LEU11       0.1561
      3  C          9.1750   23.1370   43.0770 C.2    11  LEU11       0.2260
      4  O          8.8900   22.9960   41.8840 O.2    11  LEU11      -0.2867
      5  CB        11.1060   24.6830   43.4930 C.3    11  LEU11       0.0270
      6  CG        11.8080   26.0110   43.8270 C.3    11  LEU11       0.0019
      7  CD1       13.3110   25.8070   43.7940 C.3    11  LEU11       0.0001
      8  CD2       11.4160   27.1470   42.8930 C.3    11  LEU11       0.0001
      9  N          5.2170   23.0370   42.3180 N.3    14  LEU14      -0.1231
     10  CA         5.0100   23.7740   41.0760 C.3    14  LEU14       0.1693
     11  C          5.3550   22.9550   39.8320 C.2    14  LEU14       0.2591
     12  O          4.5670   22.9140   38.8840 O.2    14  LEU14      -0.2718
     13  CB         5.8020   25.0830   41.0860 C.3    14  LEU14       0.0284
     14  CG         5.4060   26.1500   42.1090 C.3    14  LEU14       0.0019
     15  CD1        6.3780   27.3180   42.0140 C.3    14  LEU14       0.0001
     16  CD2        3.9540   26.6210   41.9400 C.3    14  LEU14       0.0001
     17  N          6.5190   22.3020   39.8510 N.am   15  ALA15      -0.1980
     18  CA         6.9940   21.4930   38.7180 C.3    15  ALA15       0.1597
     19  C          6.0790   20.3070   38.4400 C.2    15  ALA15       0.2287
     20  O          5.8420   19.9380   37.2850 O.2    15  ALA15      -0.2864
     21  CB         8.4280   21.0220   38.9540 C.3    15  ALA15       0.0319
     22  N          2.7500   20.1960   39.2280 N.3    17  VAL17      -0.1231
     23  CA         1.5210   20.7730   38.6540 C.3    17  VAL17       0.1692
     24  C          1.7290   21.3100   37.2340 C.2    17  VAL17       0.2592
     25  O          0.9410   20.9990   36.3290 O.2    17  VAL17      -0.2718
     26  CB         0.9380   21.9080   39.5290 C.3    17  VAL17       0.0266
     27  CG1       -0.2750   22.5270   38.8480 C.3    17  VAL17       0.0020
     28  CG2        0.5810   21.4000   40.9210 C.3    17  VAL17       0.0020
     29  N          2.7800   22.1170   37.0530 N.am   18  PHE18      -0.1976
     30  CA         3.0620   22.7630   35.7690 C.3    18  PHE18       0.1639
     31  C          3.2720   21.7030   34.7220 C.2    18  PHE18       0.2290
     32  O          2.5780   21.6810   33.7060 O.2    18  PHE18      -0.2864
     33  CB         4.2900   23.6750   35.8680 C.3    18  PHE18       0.0560
     34  CG         4.7690   24.2290   34.5380 C.ar   18  PHE18      -0.0200
     35  CD1        4.0830   25.2690   33.9070 C.ar   18  PHE18      -0.0042
     36  CD2        5.9330   23.7340   33.9380 C.ar   18  PHE18      -0.0042
     37  CE1        4.5320   25.7940   32.6840 C.ar   18  PHE18      -0.0003
     38  CE2        6.3960   24.2470   32.7190 C.ar   18  PHE18      -0.0003
     39  CZ         5.6950   25.2810   32.0920 C.ar   18  PHE18      -0.0000
     40  N         -0.1320   19.3750   34.2040 N.3    21  VAL21      -0.1231
     41  CA        -1.2270   20.0820   33.5140 C.3    21  VAL21       0.1692
     42  C         -0.8750   20.3140   32.0430 C.2    21  VAL21       0.2591
     43  O         -1.7550   20.3320   31.1840 O.2    21  VAL21      -0.2718
     44  CB        -1.6260   21.4030   34.2110 C.3    21  VAL21       0.0266
     45  CG1       -2.2020   22.4060   33.2170 C.3    21  VAL21       0.0020
     46  CG2       -2.6330   21.1320   35.3010 C.3    21  VAL21       0.0020
     47  N          0.4150   20.4700   31.7580 N.am   22  LEU22      -0.1980
     48  CA         0.8960   20.5440   30.3830 C.3    22  LEU22       0.1596
     49  C          0.5600   19.2500   29.6100 C.2    22  LEU22       0.2287
     50  O         -0.1280   19.2850   28.5840 O.2    22  LEU22      -0.2864
     51  CB         2.4000   20.8300   30.3800 C.3    22  LEU22       0.0297
     52  CG         3.0670   21.6380   29.2620 C.3    22  LEU22       0.0022
     53  CD1        2.3250   22.9470   28.9560 C.3    22  LEU22       0.0001
     54  CD2        4.5260   21.9210   29.6240 C.3    22  LEU22       0.0001
     55  N         -3.1840   18.7080   28.9890 N.3    25  THR25      -0.1218
     56  CA        -3.7300   19.6120   27.9550 C.3    25  THR25       0.1862
     57  C         -3.2180   19.3360   26.5320 C.2    25  THR25       0.2287
     58  O         -3.9650   19.4860   25.5630 O.2    25  THR25      -0.2866
     59  CB        -3.5140   21.1040   28.3060 C.3    25  THR25       0.1770
     60  OG1       -3.4560   21.2600   29.7240 O.3    25  THR25      -0.2211
     61  CG2       -4.6640   21.9560   27.7720 C.3    25  THR25       0.0375
     62  N         -6.0440   18.5600   23.6860 N.3    29  LYS29      -0.1245
     63  CA        -6.2530   19.5160   22.5890 C.3    29  LYS29       0.1561
     64  C         -5.7600   19.0530   21.2080 C.2    29  LYS29       0.2260
     65  O         -6.2840   19.5030   20.1900 O.2    29  LYS29      -0.2867
     66  CB        -5.6620   20.8900   22.9380 C.3    29  LYS29       0.0271
     67  CG        -6.3490   21.5840   24.0610 C.3    29  LYS29       0.0035
     68  CD        -7.6870   22.1430   23.6860 C.3    29  LYS29       0.0206
     69  CE        -8.3550   22.8740   24.8780 C.3    29  LYS29       0.1093
     70  NZ        -8.9650   21.9790   25.8710 N.3    29  LYS29      -0.1314
     71  N          1.7750   25.0860   23.0940 N.3   436  LEU436     -0.1231
     72  CA         1.0800   25.4400   24.3300 C.3   436  LEU436      0.1693
     73  C          1.8440   26.4560   25.1720 C.2   436  LEU436      0.2591
     74  O          1.2390   27.2160   25.9220 O.2   436  LEU436     -0.2718
     75  CB         0.7750   24.1940   25.1620 C.3   436  LEU436      0.0284
     76  CG        -0.1770   23.1330   24.6030 C.3   436  LEU436      0.0019
     77  CD1       -0.4420   22.0900   25.6730 C.3   436  LEU436      0.0001
     78  CD2       -1.4830   23.7190   24.0950 C.3   436  LEU436      0.0001
     79  N          3.1680   26.4600   25.0550 N.am  437  LEU437     -0.1980
     80  CA         4.0000   27.4450   25.7380 C.3   437  LEU437      0.1596
     81  C          4.2220   28.6870   24.8760 C.2   437  LEU437      0.2287
     82  O          4.9290   29.6110   25.2810 O.2   437  LEU437     -0.2864
     83  CB         5.3470   26.8350   26.1390 C.3   437  LEU437      0.0297
     84  CG         5.3700   25.9210   27.3650 C.3   437  LEU437      0.0022
     85  CD1        6.5780   24.9990   27.3220 C.3   437  LEU437      0.0001
     86  CD2        5.3390   26.7250   28.6590 C.3   437  LEU437      0.0001
@<TRIPOS>BOND
     1    65    64    2
     2    64    63    1
     3    63    66    1
     4    63    62    1
     5    66    67    1
     6    71    72    1
     7    68    67    1
     8    68    69    1
     9    78    76    1
    10    72    75    1
    11    72    73    1
    12    76    75    1
    13    76    77    1
    14    81    82    2
    15    81    80    1
    16    69    70    1
    17    79    73   am
    18    79    80    1
    19    73    74    2
    20    58    57    2
    21    80    83    1
    22    83    84    1
    23    57    56    1
    24    85    84    1
    25    84    86    1
    26    61    59    1
    27    56    59    1
    28    56    55    1
    29    59    60    1
    30    50    49    2
    31    53    52    1
    32    52    54    1
    33    52    51    1
    34    49    48    1
    35    51    48    1
    36    48    47    1
    37    43    42    2
    38    47    42   am
    39    42    41    1
    40    39    37   ar
    41    39    38   ar
    42    37    35   ar
    43    38    36   ar
    44    45    44    1
    45    41    40    1
    46    41    44    1
    47    32    31    2
    48    35    34   ar
    49    36    34   ar
    50    44    46    1
    51    34    33    1
    52    31    30    1
    53    30    33    1
    54    30    29    1
    55    25    24    2
    56    29    24   am
    57    24    23    1
    58    20    19    2
    59    19    18    1
    60    23    22    1
    61    23    26    1
    62    18    21    1
    63    18    17    1
    64    27    26    1
    65    12    11    2
    66    26    28    1
    67    11    17   am
    68    11    10    1
    69    10    13    1
    70    10     9    1
    71    13    14    1
    72     4     3    2
    73    16    14    1
    74    15    14    1
    75     8     6    1
    76     3     2    1
    77     5     2    1
    78     5     6    1
    79     2     1    1
    80     7     6    1
