@<TRIPOS>MOLECULE
tmp/3nyaA02.pdb
 193 188 0 0 0
SMALL
GASTEIGER

@<TRIPOS>ATOM
      1  N          5.9260   12.1290  -53.2680 N.3    78  TRP78      -0.1227
      2  CA         4.6170   12.3990  -52.6500 C.3    78  TRP78       0.1737
      3  C          3.8850   11.1020  -52.3430 C.2    78  TRP78       0.2596
      4  O          3.3170   10.9420  -51.2770 O.2    78  TRP78      -0.2718
      5  CB         3.7810   13.2680  -53.5910 C.3    78  TRP78       0.0564
      6  CG         2.3650   13.5160  -53.1870 C.ar   78  TRP78       0.0003
      7  CD1        1.9250   14.3490  -52.1990 C.ar   78  TRP78       0.0946
      8  CD2        1.1930   12.9760  -53.8020 C.ar   78  TRP78       0.0152
      9  NE1        0.5520   14.3410  -52.1440 N.ar   78  TRP78      -0.2442
     10  CE2        0.0770   13.5070  -53.1180 C.ar   78  TRP78       0.0810
     11  CE3        0.9770   12.0830  -54.8560 C.ar   78  TRP78       0.0012
     12  CZ2       -1.2360   13.1730  -53.4500 C.ar   78  TRP78       0.0191
     13  CZ3       -0.3290   11.7520  -55.1890 C.ar   78  TRP78       0.0001
     14  CH2       -1.4210   12.3000  -54.4860 C.ar   78  TRP78       0.0015
     15  N          3.9300   10.1740  -53.2870 N.am   79  THR79      -0.1953
     16  CA         3.3210    8.8630  -53.1260 C.3    79  THR79       0.1897
     17  C          3.9470    8.0570  -51.9870 C.2    79  THR79       0.2313
     18  O          3.2480    7.6090  -51.0830 O.2    79  THR79      -0.2863
     19  CB         3.4410    8.0410  -54.4240 C.3    79  THR79       0.1794
     20  OG1        3.0450    8.8460  -55.5420 O.3    79  THR79      -0.2208
     21  CG2        2.5580    6.8000  -54.3530 C.3    79  THR79       0.0378
     22  N          3.1340    9.4000  -48.7130 N.3    82  ASP82      -0.1225
     23  CA         1.7190    9.0900  -48.4700 C.3    82  ASP82       0.1805
     24  C          1.5270    7.6270  -48.0730 C.2    82  ASP82       0.2597
     25  O          0.8570    7.3270  -47.0750 O.2    82  ASP82      -0.2718
     26  CB         0.8850    9.4360  -49.7150 C.3    82  ASP82       0.1424
     27  CG        -0.5960    9.1400  -49.5520 C.2    82  ASP82       0.3668
     28  OD1       -1.0260    8.6770  -48.4830 O.co2  82  ASP82      -0.2456
     29  OD2       -1.3500    9.3760  -50.5150 O.co2  82  ASP82      -0.2456
     30  N          2.1200    6.7170  -48.8370 N.am   83  VAL83      -0.1980
     31  CA         2.0550    5.3040  -48.4930 C.3    83  VAL83       0.1595
     32  C          2.7380    5.0500  -47.1440 C.2    83  VAL83       0.2287
     33  O          2.2090    4.3260  -46.3070 O.2    83  VAL83      -0.2864
     34  CB         2.6520    4.4170  -49.6060 C.3    83  VAL83       0.0276
     35  CG1        3.0320    3.0390  -49.0660 C.3    83  VAL83       0.0022
     36  CG2        1.6560    4.2880  -50.7490 C.3    83  VAL83       0.0022
     37  N          0.3530    5.9230  -44.0940 N.3    86  VAL86      -0.1231
     38  CA        -0.7450    4.9790  -43.8790 C.3    86  VAL86       0.1692
     39  C         -0.2270    3.6500  -43.3250 C.2    86  VAL86       0.2592
     40  O         -0.8780    3.0270  -42.4870 O.2    86  VAL86      -0.2718
     41  CB        -1.5390    4.7050  -45.1780 C.3    86  VAL86       0.0266
     42  CG1       -2.7660    3.8510  -44.8800 C.3    86  VAL86       0.0020
     43  CG2       -1.9510    6.0170  -45.8420 C.3    86  VAL86       0.0020
     44  N          0.9420    3.2220  -43.7900 N.am   87  THR87      -0.1953
     45  CA         1.5710    2.0020  -43.2760 C.3    87  THR87       0.1897
     46  C          2.0810    2.1760  -41.8370 C.2    87  THR87       0.2313
     47  O          1.8560    1.3080  -40.9910 O.2    87  THR87      -0.2863
     48  CB         2.7390    1.5370  -44.1750 C.3    87  THR87       0.1794
     49  OG1        2.2840    1.4060  -45.5340 O.3    87  THR87      -0.2208
     50  CG2        3.2950    0.2060  -43.6760 C.3    87  THR87       0.0378
     51  N          0.1800   12.4220  -62.6670 N.3   160  CYS160     -0.1235
     52  CA         0.6040   11.7290  -61.4430 C.3   160  CYS160      0.1677
     53  C         -0.4790   10.7890  -60.9340 C.2   160  CYS160      0.2270
     54  O         -0.5250   10.4860  -59.7450 O.2   160  CYS160     -0.2867
     55  CB         0.9400   12.7270  -60.3320 C.3   160  CYS160      0.0956
     56  SG         1.7560   11.9900  -58.8710 S.3   160  CYS160     -0.0801
     57  N         -2.1660    7.5290  -59.8950 N.3   162  PHE162     -0.1241
     58  CA        -1.5240    6.3530  -59.3270 C.3   162  PHE162      0.1605
     59  C         -1.9320    5.1030  -60.0850 C.2   162  PHE162      0.2264
     60  O         -3.0870    4.6640  -59.9950 O.2   162  PHE162     -0.2867
     61  CB        -1.8900    6.2080  -57.8500 C.3   162  PHE162      0.0534
     62  CG        -0.9960    5.2790  -57.0920 C.ar  162  PHE162     -0.0203
     63  CD1        0.3880    5.2960  -57.2840 C.ar  162  PHE162     -0.0042
     64  CD2       -1.5270    4.4100  -56.1530 C.ar  162  PHE162     -0.0042
     65  CE1        1.2240    4.4450  -56.5690 C.ar  162  PHE162     -0.0003
     66  CE2       -0.6970    3.5570  -55.4260 C.ar  162  PHE162     -0.0003
     67  CZ         0.6840    3.5760  -55.6380 C.ar  162  PHE162     -0.0000
     68  N         -0.7400    1.0750  -60.7590 N.3   164  THR164     -0.1218
     69  CA         0.0990   -0.0020  -60.2560 C.3   164  THR164      0.1862
     70  C         -0.3340   -1.3550  -60.8070 C.2   164  THR164      0.2287
     71  O         -1.4930   -1.5330  -61.1710 O.2   164  THR164     -0.2866
     72  CB         0.0770   -0.0380  -58.7110 C.3   164  THR164      0.1770
     73  OG1       -1.1820   -0.5490  -58.2480 O.3   164  THR164     -0.2211
     74  CG2        0.2930    1.3610  -58.1320 C.3   164  THR164      0.0375
     75  N          1.3560   -5.9120  -57.1680 N.3   168  TYR168     -0.1227
     76  CA         1.7530   -4.9010  -56.1820 C.3   168  TYR168      0.1736
     77  C          0.5600   -4.4960  -55.3380 C.2   168  TYR168      0.2595
     78  O          0.6400   -4.4790  -54.1140 O.2   168  TYR168     -0.2718
     79  CB         2.3370   -3.6500  -56.8480 C.3   168  TYR168      0.0548
     80  CG         2.4340   -2.4720  -55.9070 C.ar  168  TYR168     -0.0200
     81  CD1        3.5940   -2.2260  -55.1730 C.ar  168  TYR168     -0.0009
     82  CD2        1.3570   -1.6120  -55.7320 C.ar  168  TYR168     -0.0009
     83  CE1        3.6710   -1.1420  -54.2930 C.ar  168  TYR168      0.0417
     84  CE2        1.4260   -0.5370  -54.8540 C.ar  168  TYR168      0.0417
     85  CZ         2.5780   -0.3080  -54.1420 C.ar  168  TYR168      0.1957
     86  OH         2.6310    0.7570  -53.2830 O.3   168  TYR168     -0.2866
     87  N         -0.5410   -4.1550  -56.0030 N.am  169  ALA169     -0.1980
     88  CA        -1.7770   -3.7810  -55.3190 C.3   169  ALA169      0.1597
     89  C         -2.1020   -4.7720  -54.2140 C.2   169  ALA169      0.2287
     90  O         -2.3890   -4.3630  -53.0900 O.2   169  ALA169     -0.2864
     91  CB        -2.9210   -3.7040  -56.2980 C.3   169  ALA169      0.0319
     92  N          1.1390   -5.1000  -51.5150 N.3   172  SER172     -0.1202
     93  CA         1.2290   -3.8770  -50.7150 C.3   172  SER172      0.2020
     94  C          0.0710   -3.7700  -49.7220 C.2   172  SER172      0.2619
     95  O          0.2860   -3.4540  -48.5600 O.2   172  SER172     -0.2717
     96  CB         1.2490   -2.6440  -51.6200 C.3   172  SER172      0.2103
     97  OG         1.0470   -1.4560  -50.8710 O.3   172  SER172     -0.2182
     98  N         -1.1480   -4.0430  -50.1900 N.am  173  SER173     -0.1951
     99  CA        -2.3340   -4.0360  -49.3320 C.3   173  SER173      0.1924
    100  C         -2.2530   -4.9790  -48.1340 C.2   173  SER173      0.2314
    101  O         -2.4640   -4.5610  -46.9940 O.2   173  SER173     -0.2863
    102  CB        -3.5740   -4.3930  -50.1400 C.3   173  SER173      0.2116
    103  OG        -4.0720   -3.2410  -50.7750 O.3   173  SER173     -0.2180
    104  N          0.7290   -3.8590  -45.8810 N.3   176  SER176     -0.1217
    105  CA         0.5970   -2.4920  -45.3930 C.3   176  SER176      0.1889
    106  C         -0.6250   -2.2920  -44.5180 C.2   176  SER176      0.2288
    107  O         -0.5640   -1.5050  -43.5750 O.2   176  SER176     -0.2866
    108  CB         0.5120   -1.5050  -46.5470 C.3   176  SER176      0.2089
    109  OG         1.5300   -1.7560  -47.4960 O.3   176  SER176     -0.2183
    110  N        -10.5030    4.0190  -43.5930 N.3   383  TRP383     -0.1241
    111  CA        -9.7320    3.4390  -44.6970 C.3   383  TRP383      0.1605
    112  C        -10.3480    2.1660  -45.3280 C.2   383  TRP383      0.2264
    113  O        -10.2190    1.9460  -46.5300 O.2   383  TRP383     -0.2867
    114  CB        -8.3040    3.1640  -44.2210 C.3   383  TRP383      0.0550
    115  CG        -7.4910    4.4000  -43.9790 C.ar  383  TRP383      0.0003
    116  CD1       -7.2300    4.9870  -42.7800 C.ar  383  TRP383      0.0946
    117  CD2       -6.8140    5.1820  -44.9640 C.ar  383  TRP383      0.0152
    118  NE1       -6.4390    6.0910  -42.9550 N.ar  383  TRP383     -0.2442
    119  CE2       -6.1660    6.2310  -44.2900 C.ar  383  TRP383      0.0810
    120  CE3       -6.6910    5.0980  -46.3550 C.ar  383  TRP383      0.0012
    121  CZ2       -5.4030    7.1920  -44.9580 C.ar  383  TRP383      0.0191
    122  CZ3       -5.9320    6.0600  -47.0240 C.ar  383  TRP383      0.0001
    123  CH2       -5.3030    7.0890  -46.3240 C.ar  383  TRP383      0.0015
    124  N        -11.9960    2.3030  -48.7970 N.3   386  PHE386     -0.1227
    125  CA       -10.9320    2.5330  -49.7820 C.3   386  PHE386      0.1736
    126  C        -10.1090    1.2740  -50.0830 C.2   386  PHE386      0.2595
    127  O         -9.8160    0.9910  -51.2380 O.2   386  PHE386     -0.2718
    128  CB       -10.0130    3.6790  -49.2990 C.3   386  PHE386      0.0547
    129  CG        -8.7330    3.8450  -50.0970 C.ar  386  PHE386     -0.0202
    130  CD1       -7.5540    3.2390  -49.6810 C.ar  386  PHE386     -0.0042
    131  CD2       -8.6980    4.6380  -51.2340 C.ar  386  PHE386     -0.0042
    132  CE1       -6.3630    3.3930  -50.3970 C.ar  386  PHE386     -0.0003
    133  CE2       -7.5120    4.8030  -51.9620 C.ar  386  PHE386     -0.0003
    134  CZ        -6.3440    4.1790  -51.5380 C.ar  386  PHE386     -0.0000
    135  N         -9.7360    0.5210  -49.0530 N.am  387  PHE387     -0.1976
    136  CA        -8.8380   -0.6190  -49.2470 C.3   387  PHE387      0.1639
    137  C         -9.5420   -1.8340  -49.8240 C.2   387  PHE387      0.2290
    138  O         -8.9370   -2.6040  -50.5730 O.2   387  PHE387     -0.2864
    139  CB        -8.1120   -0.9840  -47.9520 C.3   387  PHE387      0.0560
    140  CG        -6.8760   -0.1880  -47.7390 C.ar  387  PHE387     -0.0200
    141  CD1       -5.7060   -0.5290  -48.3890 C.ar  387  PHE387     -0.0042
    142  CD2       -6.8890    0.9350  -46.9280 C.ar  387  PHE387     -0.0042
    143  CE1       -4.5560    0.2270  -48.2190 C.ar  387  PHE387     -0.0003
    144  CE2       -5.7440    1.7000  -46.7530 C.ar  387  PHE387     -0.0003
    145  CZ        -4.5750    1.3440  -47.4050 C.ar  387  PHE387     -0.0000
    146  N        -10.1370   -0.9740  -53.3950 N.3   390  ASN390     -0.1240
    147  CA        -8.8400   -1.1440  -54.0450 C.3   390  ASN390      0.1653
    148  C         -8.6360   -2.5940  -54.4910 C.2   390  ASN390      0.2266
    149  O         -8.1430   -2.8380  -55.5850 O.2   390  ASN390     -0.2867
    150  CB        -7.6990   -0.7190  -53.1000 C.3   390  ASN390      0.1155
    151  CG        -6.5860    0.0470  -53.8140 C.2   390  ASN390      0.2627
    152  OD1       -6.8510    0.9640  -54.5900 O.2   390  ASN390     -0.2716
    153  ND2       -5.3340   -0.3160  -53.5310 N.am  390  ASN390     -0.0877
    154  N        -12.3830    6.2480  -56.3020 N.3   405  TYR405     -0.1227
    155  CA       -11.0690    6.0050  -55.7140 C.3   405  TYR405      0.1736
    156  C        -10.5740    7.2460  -54.9610 C.2   405  TYR405      0.2595
    157  O        -10.2110    7.1660  -53.7840 O.2   405  TYR405     -0.2718
    158  CB       -10.0780    5.6130  -56.8120 C.3   405  TYR405      0.0548
    159  CG        -8.6670    5.3080  -56.3440 C.ar  405  TYR405     -0.0200
    160  CD1       -8.3090    4.0290  -55.9290 C.ar  405  TYR405     -0.0009
    161  CD2       -7.6790    6.2920  -56.3480 C.ar  405  TYR405     -0.0009
    162  CE1       -7.0140    3.7420  -55.5160 C.ar  405  TYR405      0.0417
    163  CE2       -6.3720    6.0110  -55.9310 C.ar  405  TYR405      0.0417
    164  CZ        -6.0490    4.7290  -55.5150 C.ar  405  TYR405      0.1957
    165  OH        -4.7670    4.4240  -55.0990 O.3   405  TYR405     -0.2866
    166  N        -10.5750    8.3930  -55.6350 N.am  406  ILE406     -0.1980
    167  CA       -10.1430    9.6450  -55.0070 C.3   406  ILE406      0.1595
    168  C        -11.0270   10.0320  -53.8090 C.2   406  ILE406      0.2287
    169  O        -10.4990   10.3590  -52.7540 O.2   406  ILE406     -0.2864
    170  CB       -10.0520   10.8110  -56.0280 C.3   406  ILE406      0.0276
    171  CG1       -8.7590   10.6950  -56.8330 C.3   406  ILE406      0.0022
    172  CG2      -10.0910   12.1680  -55.3260 C.3   406  ILE406      0.0022
    173  CD1       -8.5280   11.8530  -57.7720 C.3   406  ILE406      0.0001
    174  N        -10.3510    7.6430  -50.9230 N.3   409  ASN409     -0.1240
    175  CA        -9.0110    7.9600  -50.4380 C.3   409  ASN409      0.1653
    176  C         -9.0350    9.1740  -49.5160 C.2   409  ASN409      0.2266
    177  O         -8.2070    9.3050  -48.6100 O.2   409  ASN409     -0.2867
    178  CB        -8.0610    8.2330  -51.6100 C.3   409  ASN409      0.1155
    179  CG        -6.5930    8.3050  -51.1810 C.2   409  ASN409      0.2627
    180  OD1       -5.6970    8.2910  -52.0230 O.2   409  ASN409     -0.2716
    181  ND2       -6.3430    8.3780  -49.8750 N.am  409  ASN409     -0.0877
    182  N         -7.8280   10.4580  -45.7190 N.3   413  TYR413     -0.1241
    183  CA        -7.1010   11.6990  -45.4200 C.3   413  TYR413      0.1605
    184  C         -7.7200   12.4590  -44.2450 C.2   413  TYR413      0.2264
    185  O         -7.0190   12.8930  -43.3350 O.2   413  TYR413     -0.2867
    186  CB        -7.0330   12.6020  -46.6600 C.3   413  TYR413      0.0534
    187  CG        -6.0490   12.1550  -47.7320 C.ar  413  TYR413     -0.0201
    188  CD1       -4.9150   11.4170  -47.4140 C.ar  413  TYR413     -0.0009
    189  CD2       -6.2290   12.5180  -49.0630 C.ar  413  TYR413     -0.0009
    190  CE1       -4.0100   11.0280  -48.3940 C.ar  413  TYR413      0.0417
    191  CE2       -5.3250   12.1410  -50.0470 C.ar  413  TYR413      0.0417
    192  CZ        -4.2150   11.3920  -49.7020 C.ar  413  TYR413      0.1957
    193  OH        -3.2970   10.9920  -50.6510 O.3   413  TYR413     -0.2866
@<TRIPOS>BOND
     1    51    52    1
     2    52    53    1
     3    52    55    1
     4    71    70    2
     5    53    54    2
     6    70    69    1
     7    68    69    1
     8    55    56    1
     9    69    72    1
    10    59    60    2
    11    59    58    1
    12    57    58    1
    13    58    61    1
    14    72    73    1
    15    72    74    1
    16    61    62    1
    17   173   171    1
    18    63    62   ar
    19    63    65   ar
    20    75    76    1
    21    62    64   ar
    22    79    76    1
    23    79    80    1
    24   171   170    1
    25   158   159    1
    26   158   155    1
    27    65    67   ar
    28   161   159   ar
    29   161   163   ar
    30   159   160   ar
    31   154   155    1
    32    91    88    1
    33    76    77    1
    34    64    66   ar
    35   170   172    1
    36   170   167    1
    37    87    77   am
    38    87    88    1
    39   163   164   ar
    40   160   162   ar
    41    80    82   ar
    42    80    81   ar
    43    82    84   ar
    44   155   156    1
    45    67    66   ar
    46   166   167    1
    47   166   156   am
    48   149   148    2
    49    20    19    1
    50   162   164   ar
    51   164   165    1
    52    77    78    2
    53    88    89    1
    54    13    11   ar
    55    13    14   ar
    56    81    83   ar
    57   167   168    1
    58   156   157    2
    59    11     8   ar
    60    84    85   ar
    61   152   151    2
    62   148   147    1
    63    14    12   ar
    64    19    21    1
    65    19    16    1
    66    83    85   ar
    67    89    90    2
    68    85    86    1
    69   147   146    1
    70   147   150    1
    71   151   153   am
    72   151   150    1
    73   168   169    2
    74     8     6   ar
    75     8    10   ar
    76     5     6    1
    77     5     2    1
    78    12    10   ar
    79    15    16    1
    80    15     3   am
    81     1     2    1
    82     6     7   ar
    83    16    17    1
    84    10     9   ar
    85     2     3    1
    86     3     4    2
    87     7     9   ar
    88   180   179    2
    89    17    18    2
    90   133   134   ar
    91   133   131   ar
    92    96    97    1
    93    96    93    1
    94   178   179    1
    95   178   175    1
    96   134   132   ar
    97    92    93    1
    98   127   126    2
    99   131   129   ar
   100   179   181   am
   101   174   175    1
   102   103   102    1
   103    36    34    1
   104    93    94    1
   105   193   192    1
   106   138   137    2
   107    29    27   ar
   108   175   176    1
   109   132   130   ar
   110    98    94   am
   111    98    99    1
   112   102    99    1
   113   129   130   ar
   114   129   128    1
   115   126   125    1
   116   126   135   am
   117   191   192   ar
   118   191   189   ar
   119   137   136    1
   120   125   128    1
   121   125   124    1
   122    94    95    2
   123    26    27    1
   124    26    23    1
   125   192   190   ar
   126    34    35    1
   127    34    31    1
   128    27    28   ar
   129   176   177    2
   130    99   100    1
   131   136   135    1
   132   136   139    1
   133   189   187   ar
   134    30    31    1
   135    30    24   am
   136    22    23    1
   137    31    32    1
   138    23    24    1
   139   190   188   ar
   140   141   143   ar
   141   141   140   ar
   142   143   145   ar
   143   100   101    2
   144    24    25    2
   145   139   140    1
   146   140   142   ar
   147   187   188   ar
   148   187   186    1
   149   109   108    1
   150   145   144   ar
   151    32    33    2
   152   122   120   ar
   153   122   123   ar
   154   142   144   ar
   155   186   183    1
   156   108   105    1
   157   113   112    2
   158   120   117   ar
   159   123   121   ar
   160   104   105    1
   161    43    41    1
   162   182   183    1
   163    49    48    1
   164   183   184    1
   165   105   106    1
   166   112   111    1
   167    41    42    1
   168    41    38    1
   169   117   119   ar
   170   117   115   ar
   171   121   119   ar
   172   111   114    1
   173   111   110    1
   174   106   107    2
   175   119   118   ar
   176   184   185    2
   177   114   115    1
   178    48    50    1
   179    48    45    1
   180    37    38    1
   181   115   116   ar
   182    38    39    1
   183    44    39   am
   184    44    45    1
   185    39    40    2
   186    45    46    1
   187   118   116   ar
   188    46    47    2
