@<TRIPOS>MOLECULE
tmp/3nydA00.pdb
 108 105 0 0 0
SMALL
GASTEIGER

@<TRIPOS>ATOM
      1  N         28.0230   -5.2380  -19.0560 N.3    21  ALA21      -0.1245
      2  CA        28.2380   -4.6880  -20.3950 C.3    21  ALA21       0.1562
      3  C         29.6460   -4.9700  -20.8900 C.2    21  ALA21       0.2260
      4  O         30.6060   -4.9010  -20.1330 O.2    21  ALA21      -0.2867
      5  CB        28.0260   -3.1860  -20.3460 C.3    21  ALA21       0.0290
      6  N         25.7210   -7.5740  -22.3510 N.3    44  TRP44      -0.1228
      7  CA        25.0310   -6.4900  -23.0390 C.3    44  TRP44       0.1722
      8  C         26.1170   -5.7120  -23.8000 C.2    44  TRP44       0.2437
      9  O         27.2180   -5.6180  -23.4400 O.2    44  TRP44      -0.2733
     10  CB        24.3720   -5.4770  -22.0820 C.3    44  TRP44       0.0563
     11  CG        23.4410   -6.1390  -21.0670 C.ar   44  TRP44       0.0003
     12  CD1       23.7850   -6.8850  -19.9040 C.ar   44  TRP44       0.0946
     13  CD2       22.0560   -6.1610  -21.1840 C.ar   44  TRP44       0.0152
     14  NE1       22.6570   -7.2360  -19.2780 N.ar   44  TRP44      -0.2442
     15  CE2       21.5760   -6.8820  -20.0610 C.ar   44  TRP44       0.0810
     16  CE3       21.1630   -5.6490  -22.1460 C.ar   44  TRP44       0.0012
     17  CZ2       20.2860   -6.9730  -19.7610 C.ar   44  TRP44       0.0191
     18  CZ3       19.7810   -5.9020  -21.9220 C.ar   44  TRP44       0.0001
     19  CH2       19.3970   -6.5950  -20.6940 C.ar   44  TRP44       0.0015
     20  N         25.7570   -5.1860  -24.9700 N.am   45  PRO45      -0.2718
     21  CA        26.6560   -4.3640  -25.7880 C.3    45  PRO45       0.1535
     22  C         26.8660   -2.9950  -25.1770 C.2    45  PRO45       0.2598
     23  O         25.9150   -2.2300  -25.0840 O.2    45  PRO45      -0.2715
     24  CB        25.9420   -4.2660  -27.1500 C.3    45  PRO45       0.0310
     25  CG        24.4700   -4.3910  -26.7730 C.3    45  PRO45       0.0237
     26  CD        24.4310   -5.3760  -25.6240 C.3    45  PRO45       0.0939
     27  N         28.0830   -2.7040  -24.7680 N.am   46  GLU46      -0.1978
     28  CA        28.3920   -1.4160  -24.2360 C.3    46  GLU46       0.1602
     29  C         28.0570   -0.2970  -25.2060 C.2    46  GLU46       0.2287
     30  O         27.5460    0.7420  -24.8290 O.2    46  GLU46      -0.2864
     31  CB        29.8630   -1.4330  -23.8520 C.3    46  GLU46       0.0415
     32  CG        30.3110   -0.2600  -23.1220 C.3    46  GLU46       0.1163
     33  CD        31.8220   -0.3270  -22.7290 C.2    46  GLU46       0.3649
     34  OE1       32.4210    0.7980  -22.6040 O.co2  46  GLU46      -0.2457
     35  OE2       32.3530   -1.4890  -22.6610 O.co2  46  GLU46      -0.2457
     36  N         24.0370    0.4920  -30.2720 N.3    50  LYS50      -0.1245
     37  CA        23.4540    1.8390  -30.2270 C.3    50  LYS50       0.1561
     38  C         23.2230    2.3400  -31.6870 C.2    50  LYS50       0.2260
     39  O         23.8360    1.8550  -32.6500 O.2    50  LYS50      -0.2867
     40  CB        24.3740    2.7490  -29.4980 C.3    50  LYS50       0.0271
     41  CG        24.3570    2.4250  -28.0280 C.3    50  LYS50       0.0035
     42  CD        25.3130    3.1920  -27.2180 C.3    50  LYS50       0.0206
     43  CE        25.3860    2.8730  -25.6780 C.3    50  LYS50       0.1093
     44  NZ        26.5750    3.6120  -25.1730 N.3    50  LYS50      -0.1314
     45  N         20.1390   -6.6620  -25.6900 N.3    82  GLY82      -0.1210
     46  CA        20.4260   -5.6790  -26.7410 C.3    82  GLY82       0.1956
     47  C         19.8510   -4.3230  -26.4170 C.2    82  GLY82       0.2612
     48  O         18.8290   -4.2300  -25.7340 O.2    82  GLY82      -0.2717
     49  N         20.3960   -3.2620  -26.9950 N.am   83  GLY83      -0.1942
     50  CA        19.7600   -1.9290  -26.8770 C.3    83  GLY83       0.2014
     51  C         20.7730   -0.8940  -27.1200 C.2    83  GLY83       0.2638
     52  O         22.0090   -1.2460  -27.4370 O.2    83  GLY83      -0.2714
     53  N         20.3280    0.3730  -27.1250 N.am   84  MET84      -0.1976
     54  CA        18.9400    0.7830  -26.9240 C.3    84  MET84       0.1605
     55  C         18.4380    1.0480  -28.3320 C.2    84  MET84       0.2287
     56  O         19.1110    1.7730  -29.1270 O.2    84  MET84      -0.2864
     57  CB        18.7770    2.1050  -26.1330 C.3    84  MET84       0.0413
     58  CG        18.2760    1.9140  -24.6150 C.3    84  MET84       0.0598
     59  SD        19.6390    1.1420  -23.8460 S.3    84  MET84      -0.1393
     60  CE        20.6980    2.6380  -23.8070 C.3    84  MET84       0.0692
     61  N         16.2070   -3.4520  -24.7120 N.3   127  ASP127     -0.1239
     62  CA        15.8130   -2.1350  -24.2830 C.3   127  ASP127      0.1674
     63  C         15.2780   -1.3950  -25.5170 C.2   127  ASP127      0.2266
     64  O         16.1030   -0.9200  -26.3340 O.2   127  ASP127     -0.2867
     65  CB        16.9710   -1.4350  -23.5980 C.3   127  ASP127      0.1410
     66  CG        17.2490   -2.0780  -22.1700 C.2   127  ASP127      0.3668
     67  OD1       16.3520   -2.0530  -21.3210 O.co2 127  ASP127     -0.2456
     68  OD2       18.3730   -2.5870  -22.0350 O.co2 127  ASP127     -0.2456
     69  N         20.0090   -2.3740  -14.1840 N.3   236  LEU236     -0.1231
     70  CA        20.9730   -2.4030  -15.2960 C.3   236  LEU236      0.1693
     71  C         21.9760   -1.3370  -15.2420 C.2   236  LEU236      0.2591
     72  O         21.7740   -0.2550  -14.7110 O.2   236  LEU236     -0.2718
     73  CB        20.4470   -2.4670  -16.7590 C.3   236  LEU236      0.0284
     74  CG        19.7620   -1.2320  -17.3610 C.3   236  LEU236      0.0019
     75  CD1       19.4280   -0.9930  -18.9400 C.3   236  LEU236      0.0001
     76  CD2       18.3510   -1.3760  -16.9360 C.3   236  LEU236      0.0001
     77  N         23.0970   -1.5780  -15.8820 N.am  237  MET237     -0.1979
     78  CA        24.1440   -0.6100  -15.9960 C.3   237  MET237      0.1605
     79  C         24.5930   -0.1090  -14.6110 C.2   237  MET237      0.2287
     80  O         24.8840    1.0640  -14.4880 O.2   237  MET237     -0.2864
     81  CB        23.7140    0.5810  -16.9480 C.3   237  MET237      0.0413
     82  CG        23.4890    0.3390  -18.3470 C.3   237  MET237      0.0598
     83  SD        22.9340    1.8420  -19.2980 S.3   237  MET237     -0.1393
     84  CE        23.0020    1.2950  -20.8980 C.3   237  MET237      0.0692
     85  N         22.7220   -6.1870  -13.6990 N.3   265  SER265     -0.1202
     86  CA        23.8970   -6.0550  -14.5670 C.3   265  SER265      0.2020
     87  C         24.7220   -4.8560  -14.1500 C.2   265  SER265      0.2619
     88  O         24.1540   -3.8350  -13.8490 O.2   265  SER265     -0.2717
     89  CB        23.4650   -5.9190  -16.0520 C.3   265  SER265      0.2103
     90  OG        22.7940   -7.1250  -16.4090 O.3   265  SER265     -0.2182
     91  N         26.0230   -5.0090  -14.1130 N.am  266  VAL266     -0.1965
     92  CA        26.9290   -3.9370  -13.8660 C.3   266  VAL266      0.1727
     93  C         27.5050   -3.3350  -15.1710 C.2   266  VAL266      0.2616
     94  O         27.6110   -4.0110  -16.1970 O.2   266  VAL266     -0.2715
     95  CB        28.1010   -4.3290  -12.9200 C.3   266  VAL266      0.0290
     96  CG1       27.5190   -4.4320  -11.4260 C.3   266  VAL266      0.0023
     97  CG2       28.7940   -5.6220  -13.3080 C.3   266  VAL266      0.0023
     98  N         27.8670   -2.0780  -15.0820 N.am  267  PHE267     -0.1974
     99  CA        28.2530   -1.3060  -16.3000 C.3   267  PHE267      0.1639
    100  C         29.8060   -1.3880  -16.5300 C.2   267  PHE267      0.2290
    101  O         30.5730   -0.4070  -16.4720 O.2   267  PHE267     -0.2864
    102  CB        28.0080    0.1670  -16.0640 C.3   267  PHE267      0.0560
    103  CG        27.7810    1.0000  -17.3470 C.ar  267  PHE267     -0.0200
    104  CD1       27.4380    0.4120  -18.5670 C.ar  267  PHE267     -0.0042
    105  CD2       27.9180    2.3160  -17.3030 C.ar  267  PHE267     -0.0042
    106  CE1       27.2490    1.1650  -19.7080 C.ar  267  PHE267     -0.0003
    107  CE2       27.7350    3.0920  -18.4620 C.ar  267  PHE267     -0.0003
    108  CZ        27.3750    2.4790  -19.6300 C.ar  267  PHE267     -0.0000
@<TRIPOS>BOND
     1    39    38    2
     2    38    37    1
     3    36    37    1
     4    37    40    1
     5    40    41    1
     6    56    55    2
     7    55    54    1
     8    41    42    1
     9    52    51    2
    10    42    43    1
    11    24    25    1
    12    24    21    1
    13    53    51   am
    14    53    54    1
    15    51    50    1
    16    49    50    1
    17    49    47   am
    18    54    57    1
    19    25    26    1
    20    46    47    1
    21    46    45    1
    22    47    48    2
    23    64    63    2
    24    57    58    1
    25    21    22    1
    26    21    20    1
    27    43    44    1
    28    26    20    1
    29    63    62    1
    30    29    30    2
    31    29    28    1
    32    22    23    2
    33    22    27   am
    34    20     8   am
    35    27    28    1
    36    61    62    1
    37    58    59    1
    38    62    65    1
    39    28    31    1
    40    31    32    1
    41    59    60    1
    42     8     9    2
    43     8     7    1
    44    65    66    1
    45    32    33    1
    46     7     6    1
    47     7    10    1
    48    33    35   ar
    49    33    34   ar
    50    66    68   ar
    51    66    67   ar
    52    16    18   ar
    53    16    13   ar
    54    10    11    1
    55    18    19   ar
    56    13    11   ar
    57    13    15   ar
    58    11    12   ar
    59    84    83    1
    60     3     2    1
    61     3     4    2
    62    19    17   ar
    63     2     5    1
    64     2     1    1
    65    15    17   ar
    66    15    14   ar
    67    12    14   ar
    68   106   108   ar
    69   106   104   ar
    70   108   107   ar
    71    83    82    1
    72    75    74    1
    73   104   103   ar
    74   107   105   ar
    75    82    81    1
    76    74    76    1
    77    74    73    1
    78   103   105   ar
    79   103   102    1
    80    81    78    1
    81    73    70    1
    82   100   101    2
    83   100    99    1
    84    90    89    1
    85    99   102    1
    86    99    98    1
    87    94    93    2
    88    89    86    1
    89    78    77    1
    90    78    79    1
    91    77    71   am
    92    70    71    1
    93    70    69    1
    94    71    72    2
    95    93    98   am
    96    93    92    1
    97    79    80    2
    98    86    87    1
    99    86    85    1
   100    87    91   am
   101    87    88    2
   102    91    92    1
   103    92    95    1
   104    97    95    1
   105    95    96    1
