@<TRIPOS>MOLECULE
tmp/3nyeA01.pdb
 126 115 0 0 0
SMALL
GASTEIGER

@<TRIPOS>ATOM
      1  N         -5.4580   -9.8640  -30.3810 N.3    52  ALA52      -0.1245
      2  CA        -6.5030   -8.8550  -30.2960 C.3    52  ALA52       0.1562
      3  C         -5.8370   -7.4890  -30.0270 C.2    52  ALA52       0.2260
      4  O         -6.5310   -6.5120  -29.8540 O.2    52  ALA52      -0.2867
      5  CB        -7.5410   -9.1390  -29.1990 C.3    52  ALA52       0.0290
      6  N         -4.4790   -6.0000  -27.3430 N.3    54  HIS54      -0.1241
      7  CA        -5.0300   -5.2540  -26.2050 C.3    54  HIS54       0.1621
      8  C         -4.1100   -5.4650  -25.0020 C.2    54  HIS54       0.2264
      9  O         -3.4390   -6.5030  -24.8550 O.2    54  HIS54      -0.2867
     10  CB        -6.4720   -5.6600  -25.8740 C.3    54  HIS54       0.0745
     11  CG        -7.1710   -4.6610  -24.9870 C.ar   54  HIS54       0.0817
     12  ND1       -7.4460   -4.8680  -23.6470 N.ar   54  HIS54      -0.2268
     13  CD2       -7.6380   -3.4190  -25.2800 C.ar   54  HIS54       0.1154
     14  CE1       -8.0450   -3.8130  -23.1370 C.ar   54  HIS54       0.1986
     15  NE2       -8.1790   -2.9080  -24.1380 N.ar   54  HIS54      -0.2212
     16  N         -4.4180   -5.3350  -20.9220 N.3    56  THR56      -0.1218
     17  CA        -5.3340   -5.4050  -19.7860 C.3    56  THR56       0.1862
     18  C         -4.5810   -5.7930  -18.5190 C.2    56  THR56       0.2287
     19  O         -4.0830   -6.9420  -18.5180 O.2    56  THR56      -0.2866
     20  CB        -6.4340   -6.4850  -20.0070 C.3    56  THR56       0.1770
     21  OG1       -7.2900   -6.0720  -21.0610 O.3    56  THR56      -0.2211
     22  CG2       -7.2510   -6.6190  -18.7490 C.3    56  THR56       0.0375
     23  N         -5.7260   -6.6060  -15.3860 N.3    58  ALA58      -0.1231
     24  CA        -6.3890   -7.5960  -14.5170 C.3    58  ALA58       0.1694
     25  C         -6.8010   -8.7900  -15.3300 C.2    58  ALA58       0.2592
     26  O         -7.9890   -9.0730  -15.6020 O.2    58  ALA58      -0.2718
     27  CB        -7.5390   -6.9190  -13.7850 C.3    58  ALA58       0.0304
     28  N         -5.8060   -9.5300  -15.7940 N.am   59  TYR59      -0.1976
     29  CA        -6.0320  -10.6440  -16.7120 C.3    59  TYR59       0.1639
     30  C         -4.9160  -11.6520  -16.4900 C.2    59  TYR59       0.2290
     31  O         -3.7530  -11.2470  -16.4510 O.2    59  TYR59      -0.2864
     32  CB        -6.0550  -10.1370  -18.1550 C.3    59  TYR59       0.0560
     33  CG        -6.3290  -11.1430  -19.2470 C.ar   59  TYR59      -0.0198
     34  CD1       -7.3450  -12.0830  -19.1360 C.ar   59  TYR59      -0.0009
     35  CD2       -5.5750  -11.1420  -20.4290 C.ar   59  TYR59      -0.0009
     36  CE1       -7.5940  -12.9920  -20.1620 C.ar   59  TYR59       0.0417
     37  CE2       -5.7880  -12.0410  -21.4510 C.ar   59  TYR59       0.0417
     38  CZ        -6.8120  -12.9720  -21.3050 C.ar   59  TYR59       0.1957
     39  OH        -7.0350  -13.8760  -22.3200 O.3    59  TYR59      -0.2866
     40  N        -11.4690   -1.4320  -20.6950 N.3    93  GLU93      -0.1245
     41  CA       -12.1040   -2.7460  -20.8010 C.3    93  GLU93       0.1567
     42  C        -13.3230   -2.8120  -19.8940 C.2    93  GLU93       0.2260
     43  O        -13.2370   -2.4150  -18.7130 O.2    93  GLU93      -0.2867
     44  CB       -11.1030   -3.8080  -20.3520 C.3    93  GLU93       0.0388
     45  CG       -11.7120   -5.1850  -20.4970 C.3    93  GLU93       0.1160
     46  CD       -10.6690   -6.2610  -20.4720 C.2    93  GLU93       0.3649
     47  OE1       -9.8180   -6.2960  -21.3790 O.co2  93  GLU93      -0.2457
     48  OE2      -10.6830   -7.0880  -19.5680 O.co2  93  GLU93      -0.2457
     49  N        -15.9170   -5.6070  -18.4710 N.3    95  VAL95      -0.1245
     50  CA       -16.2070   -7.0340  -18.3520 C.3    95  VAL95       0.1561
     51  C        -17.6550   -7.1620  -17.8900 C.2    95  VAL95       0.2260
     52  O        -17.9690   -6.6870  -16.7750 O.2    95  VAL95      -0.2867
     53  CB       -15.2380   -7.7440  -17.3930 C.3    95  VAL95       0.0252
     54  CG1      -15.6680   -9.2240  -17.2730 C.3    95  VAL95       0.0019
     55  CG2      -13.8280   -7.6120  -17.8740 C.3    95  VAL95       0.0019
     56  N         -7.4110  -19.9930  -30.6810 N.3   228  ARG228     -0.1245
     57  CA        -8.4420  -18.9820  -30.4730 C.3   228  ARG228      0.1563
     58  C         -8.7110  -18.3400  -31.8300 C.2   228  ARG228      0.2260
     59  O         -7.7400  -17.9360  -32.4950 O.2   228  ARG228     -0.2867
     60  CB        -8.0130  -17.8760  -29.4960 C.3   228  ARG228      0.0307
     61  CG        -9.1370  -16.8560  -29.2710 C.3   228  ARG228      0.0489
     62  CD        -8.8260  -16.0060  -28.0510 C.3   228  ARG228      0.2205
     63  NE        -9.0980  -16.8350  -26.8480 N.pl3 228  ARG228     -0.0865
     64  CZ        -9.1230  -16.3580  -25.5870 C.cat 228  ARG228      0.5346
     65  NH1       -8.8650  -15.0430  -25.3730 N.pl3 228  ARG228      0.1354
     66  NH2       -9.4030  -17.1150  -24.5460 N.pl3 228  ARG228      0.1354
     67  N        -13.1980   -2.2390  -25.0420 N.3   246  MET246     -0.1245
     68  CA       -13.2160   -3.6730  -25.2410 C.3   246  MET246      0.1570
     69  C        -14.2430   -4.2840  -24.2960 C.2   246  MET246      0.2261
     70  O        -14.2560   -4.0400  -23.0790 O.2   246  MET246     -0.2867
     71  CB       -11.8160   -4.2180  -25.0010 C.3   246  MET246      0.0387
     72  CG       -11.8630   -5.7450  -24.9440 C.3   246  MET246      0.0595
     73  SD       -10.2070   -6.3400  -25.3240 S.3   246  MET246     -0.1393
     74  CE       -10.5460   -8.1160  -25.3480 C.3   246  MET246      0.0692
     75  N        -15.9170   -7.7270  -22.7880 N.3   248  VAL248     -0.1245
     76  CA       -15.6460   -9.1460  -22.5680 C.3   248  VAL248      0.1561
     77  C        -16.7200   -9.7230  -21.6590 C.2   248  VAL248      0.2260
     78  O        -17.1480   -9.0410  -20.7030 O.2   248  VAL248     -0.2867
     79  CB       -14.2670   -9.3580  -21.9090 C.3   248  VAL248      0.0252
     80  CG1      -13.9130  -10.8460  -21.9700 C.3   248  VAL248      0.0019
     81  CG2      -13.2290   -8.4970  -22.5930 C.3   248  VAL248      0.0019
     82  N        -15.5850  -15.1710  -20.0220 N.3   252  GLU252     -0.1245
     83  CA       -14.7280  -15.1700  -21.2110 C.3   252  GLU252      0.1567
     84  C        -15.4040  -16.0270  -22.2970 C.2   252  GLU252      0.2260
     85  O        -14.6850  -16.7170  -23.0140 O.2   252  GLU252     -0.2867
     86  CB       -13.2120  -15.4840  -20.9730 C.3   252  GLU252      0.0388
     87  CG       -12.2110  -14.6330  -21.9160 C.3   252  GLU252      0.1160
     88  CD       -10.6870  -15.0510  -22.0750 C.2   252  GLU252      0.3649
     89  OE1       -9.8840  -14.2360  -22.5710 O.co2 252  GLU252     -0.2457
     90  OE2      -10.3290  -16.1470  -21.7380 O.co2 252  GLU252     -0.2457
     91  N        -15.6580  -11.9250  -26.7910 N.3   255  TYR255     -0.1241
     92  CA       -15.3830  -10.4990  -26.6450 C.3   255  TYR255      0.1605
     93  C        -15.6030   -9.7630  -27.9660 C.2   255  TYR255      0.2264
     94  O        -15.7740  -10.3820  -29.0160 O.2   255  TYR255     -0.2867
     95  CB       -13.9870  -10.2630  -26.1040 C.3   255  TYR255      0.0534
     96  CG       -12.7730  -10.7790  -26.8330 C.ar  255  TYR255     -0.0201
     97  CD1      -12.2550  -10.1750  -27.9710 C.ar  255  TYR255     -0.0009
     98  CD2      -12.0670  -11.8940  -26.3410 C.ar  255  TYR255     -0.0009
     99  CE1      -11.1200  -10.6660  -28.6060 C.ar  255  TYR255      0.0417
    100  CE2      -10.9410  -12.3910  -26.9420 C.ar  255  TYR255      0.0417
    101  CZ       -10.4690  -11.7690  -28.0820 C.ar  255  TYR255      0.1957
    102  OH        -9.3190  -12.2630  -28.6950 O.3   255  TYR255     -0.2866
    103  N         -2.4400  -19.7400  -28.5040 N.3   311  ARG311     -0.1245
    104  CA        -2.0880  -19.1980  -27.1810 C.3   311  ARG311      0.1563
    105  C         -1.5580  -20.4130  -26.4320 C.2   311  ARG311      0.2260
    106  O         -2.3330  -21.3640  -26.2480 O.2   311  ARG311     -0.2867
    107  CB        -3.3520  -18.5790  -26.5530 C.3   311  ARG311      0.0307
    108  CG        -3.8200  -17.3610  -27.3510 C.3   311  ARG311      0.0489
    109  CD        -5.2270  -16.9120  -27.0290 C.3   311  ARG311      0.2205
    110  NE        -5.4780  -16.4010  -25.6820 N.pl3 311  ARG311     -0.0865
    111  CZ        -5.9510  -17.0720  -24.6350 C.cat 311  ARG311      0.5346
    112  NH1       -6.2460  -18.3900  -24.7370 N.pl3 311  ARG311      0.1354
    113  NH2       -6.1150  -16.4420  -23.4630 N.pl3 311  ARG311      0.1354
    114  N         -2.0710  -16.0730  -23.4020 N.3   338  GLY338     -0.1225
    115  CA        -2.8400  -14.9900  -24.0200 C.3   338  GLY338      0.1811
    116  C         -2.2900  -13.6030  -23.7530 C.2   338  GLY338      0.2280
    117  O         -3.0030  -12.6340  -23.8280 O.2   338  GLY338     -0.2866
    118  N          1.3630   -7.9140  -24.3370 N.3   342  GLN342     -0.1245
    119  CA         1.2660   -6.9850  -23.2120 C.3   342  GLN342      0.1566
    120  C          2.3220   -7.2000  -22.1560 C.2   342  GLN342      0.2260
    121  O          2.5300   -6.2800  -21.3600 O.2   342  GLN342     -0.2867
    122  CB        -0.1540   -6.9860  -22.6050 C.3   342  GLN342      0.0367
    123  CG        -0.4990   -8.3040  -21.9130 C.3   342  GLN342      0.0905
    124  CD        -1.8710   -8.2180  -21.2730 C.2   342  GLN342      0.2608
    125  OE1       -2.8180   -7.6620  -21.8070 O.2   342  GLN342     -0.2717
    126  NE2       -2.0570   -8.7440  -20.0720 N.am  342  GLN342     -0.0878
@<TRIPOS>BOND
     1    59    58    2
     2    58    57    1
     3    56    57    1
     4    57    60    1
     5     1     2    1
     6     2     3    1
     7     2     5    1
     8     3     4    2
     9    60    61    1
    10    61    62    1
    11    94    93    2
    12   102   101    1
    13    99   101   ar
    14    99    97   ar
    15   103   104    1
    16   101   100   ar
    17    62    63    1
    18    97    96   ar
    19    93    92    1
    20   108   109    1
    21   108   107    1
    22     6     7    1
    23   104   107    1
    24   104   105    1
    25   109   110    1
    26   100    98   ar
    27    63    64    2
    28    96    98   ar
    29    96    95    1
    30    91    92    1
    31    92    95    1
    32   105   106    2
    33     7    10    1
    34     7     8    1
    35    10    11    1
    36   110   111    2
    37    64    65    1
    38    64    66    1
    39    74    73    1
    40    73    72    1
    41    13    11   ar
    42    13    15   ar
    43    68    67    1
    44    68    71    1
    45    68    69    1
    46     8     9    2
    47    71    72    1
    48    11    12   ar
    49   112   111    1
    50   111   113    1
    51   118   119    1
    52    69    70    2
    53    15    14   ar
    54   115   116    1
    55   115   114    1
    56   117   116    2
    57    12    14   ar
    58   119   122    1
    59   119   120    1
    60    85    84    2
    61    75    76    1
    62   122   123    1
    63    81    79    1
    64    89    88   ar
    65    76    79    1
    66    76    77    1
    67    39    38    1
    68    84    83    1
    69   120   121    2
    70    88    87    1
    71    88    90   ar
    72    80    79    1
    73    87    86    1
    74   123   124    1
    75   125   124    2
    76    77    78    2
    77    37    38   ar
    78    37    35   ar
    79    47    46   ar
    80    38    36   ar
    81   124   126   am
    82    83    86    1
    83    83    82    1
    84    21    20    1
    85    16    17    1
    86    41    40    1
    87    41    44    1
    88    41    42    1
    89    45    46    1
    90    45    44    1
    91    46    48   ar
    92    35    33   ar
    93    36    34   ar
    94    20    17    1
    95    20    22    1
    96    42    43    2
    97    17    18    1
    98    33    34   ar
    99    33    32    1
   100    18    19    2
   101    49    50    1
   102    50    51    1
   103    50    53    1
   104    32    29    1
   105    51    52    2
   106    55    53    1
   107    53    54    1
   108    29    30    1
   109    29    28    1
   110    30    31    2
   111    28    25   am
   112    26    25    2
   113    23    24    1
   114    25    24    1
   115    24    27    1
