@<TRIPOS>MOLECULE
tmp/3nyfA01.pdb
 114 104 0 0 0
SMALL
GASTEIGER

@<TRIPOS>ATOM
      1  N         -5.4800   -9.6440  -30.3410 N.3    52  ALA52      -0.1245
      2  CA        -6.5060   -8.6210  -30.2610 C.3    52  ALA52       0.1562
      3  C         -5.8100   -7.2760  -29.9570 C.2    52  ALA52       0.2260
      4  O         -6.5090   -6.3100  -29.7740 O.2    52  ALA52      -0.2867
      5  CB        -7.5440   -8.9660  -29.2100 C.3    52  ALA52       0.0290
      6  N         -4.4260   -5.7590  -27.3450 N.3    54  HIS54      -0.1241
      7  CA        -4.9440   -5.0330  -26.1950 C.3    54  HIS54       0.1621
      8  C         -4.0580   -5.2660  -24.9760 C.2    54  HIS54       0.2264
      9  O         -3.3800   -6.3010  -24.8400 O.2    54  HIS54      -0.2867
     10  CB        -6.4080   -5.3890  -25.9240 C.3    54  HIS54       0.0745
     11  CG        -7.0900   -4.4240  -25.0120 C.ar   54  HIS54       0.0817
     12  ND1       -7.3280   -4.6260  -23.6870 N.ar   54  HIS54      -0.2268
     13  CD2       -7.5640   -3.1740  -25.2270 C.ar   54  HIS54       0.1154
     14  CE1       -7.9100   -3.5880  -23.1300 C.ar   54  HIS54       0.1986
     15  NE2       -8.0800   -2.6900  -24.0570 N.ar   54  HIS54      -0.2212
     16  N         -4.3410   -5.0800  -20.8270 N.3    56  THR56      -0.1218
     17  CA        -5.2860   -5.1840  -19.7160 C.3    56  THR56       0.1862
     18  C         -4.6270   -5.7020  -18.4560 C.2    56  THR56       0.2287
     19  O         -4.2950   -6.8910  -18.3940 O.2    56  THR56      -0.2866
     20  CB        -6.4250   -6.1740  -20.0760 C.3    56  THR56       0.1770
     21  OG1       -7.0270   -5.7350  -21.2820 O.3    56  THR56      -0.2211
     22  CG2       -7.4700   -6.1740  -18.9880 C.3    56  THR56       0.0375
     23  N         -5.8620   -9.4750  -15.6570 N.3    59  TYR59      -0.1241
     24  CA        -6.0900  -10.5510  -16.6030 C.3    59  TYR59       0.1605
     25  C         -4.9750  -11.5740  -16.4170 C.2    59  TYR59       0.2264
     26  O         -3.8040  -11.2140  -16.3580 O.2    59  TYR59      -0.2867
     27  CB        -6.1440  -10.0010  -18.0400 C.3    59  TYR59       0.0534
     28  CG        -6.4630  -11.0160  -19.1170 C.ar   59  TYR59      -0.0201
     29  CD1       -7.6020  -11.8110  -19.1220 C.ar   59  TYR59      -0.0009
     30  CD2       -5.6010  -11.1920  -20.1850 C.ar   59  TYR59      -0.0009
     31  CE1       -7.8810  -12.7270  -20.1220 C.ar   59  TYR59       0.0417
     32  CE2       -5.8270  -12.0870  -21.1980 C.ar   59  TYR59       0.0417
     33  CZ        -6.9870  -12.8640  -21.1550 C.ar   59  TYR59       0.1957
     34  OH        -7.1100  -13.7330  -22.2150 O.3    59  TYR59      -0.2866
     35  N        -11.4040   -1.3250  -20.6680 N.3    93  GLU93      -0.1245
     36  CA       -12.0480   -2.6310  -20.7550 C.3    93  GLU93       0.1567
     37  C        -13.2390   -2.7260  -19.8200 C.2    93  GLU93       0.2260
     38  O        -13.1350   -2.3710  -18.6370 O.2    93  GLU93      -0.2867
     39  CB       -11.0670   -3.7430  -20.3600 C.3    93  GLU93       0.0388
     40  CG       -11.7000   -5.1360  -20.4650 C.3    93  GLU93       0.1160
     41  CD       -10.7730   -6.3030  -20.3620 C.2    93  GLU93       0.3649
     42  OE1       -9.9850   -6.4930  -21.2900 O.co2  93  GLU93      -0.2457
     43  OE2      -10.7090   -7.0270  -19.3950 O.co2  93  GLU93      -0.2457
     44  N         -7.4340  -19.9050  -30.4940 N.3   228  ARG228     -0.1245
     45  CA        -8.4400  -18.8830  -30.3410 C.3   228  ARG228      0.1563
     46  C         -8.7060  -18.2380  -31.6900 C.2   228  ARG228      0.2260
     47  O         -7.7410  -17.8110  -32.3420 O.2   228  ARG228     -0.2867
     48  CB        -8.0180  -17.7770  -29.3520 C.3   228  ARG228      0.0307
     49  CG        -9.1190  -16.7680  -29.0940 C.3   228  ARG228      0.0489
     50  CD        -8.8680  -15.9570  -27.8340 C.3   228  ARG228      0.2205
     51  NE        -9.1260  -16.7570  -26.6590 N.pl3 228  ARG228     -0.0865
     52  CZ        -9.1830  -16.3390  -25.4120 C.cat 228  ARG228      0.5346
     53  NH1       -8.9410  -15.0670  -25.1660 N.pl3 228  ARG228      0.1354
     54  NH2       -9.4750  -17.1950  -24.4320 N.pl3 228  ARG228      0.1354
     55  N        -13.1570   -2.1290  -25.0000 N.3   246  MET246     -0.1245
     56  CA       -13.1530   -3.5650  -25.1600 C.3   246  MET246      0.1570
     57  C        -14.1730   -4.1890  -24.2130 C.2   246  MET246      0.2261
     58  O        -14.1540   -3.8990  -23.0230 O.2   246  MET246     -0.2867
     59  CB       -11.7640   -4.1050  -24.8720 C.3   246  MET246      0.0387
     60  CG       -11.8180   -5.6440  -24.8620 C.3   246  MET246      0.0595
     61  SD       -10.2160   -6.2470  -25.4080 S.3   246  MET246     -0.1393
     62  CE       -10.5630   -8.0160  -25.4040 C.3   246  MET246      0.0692
     63  N        -15.8150   -7.6450  -22.7270 N.3   248  VAL248     -0.1245
     64  CA       -15.5490   -9.0630  -22.4710 C.3   248  VAL248      0.1561
     65  C        -16.6180   -9.6370  -21.5570 C.2   248  VAL248      0.2260
     66  O        -17.0560   -8.9670  -20.6330 O.2   248  VAL248     -0.2867
     67  CB       -14.1420   -9.2970  -21.8770 C.3   248  VAL248      0.0252
     68  CG1      -13.8980  -10.8040  -21.9370 C.3   248  VAL248      0.0019
     69  CG2      -13.1030   -8.5010  -22.6340 C.3   248  VAL248      0.0019
     70  N        -15.5850  -15.2220  -19.9280 N.3   252  GLU252     -0.1196
     71  CA       -14.7650  -15.2720  -21.1260 C.3   252  GLU252      0.1783
     72  C        -15.4260  -16.0650  -22.2410 C.2   252  GLU252      0.2306
     73  O        -14.7290  -16.7180  -22.9820 O.2   252  GLU252     -0.2863
     74  CB       -13.2580  -15.5460  -20.9600 C.2   252  GLU252      0.0071
     75  CG       -12.2670  -14.7360  -21.8110 C.2   252  GLU252      0.0834
     76  CD       -10.7310  -15.1280  -21.9310 C.2   252  GLU252      0.3877
     77  OE1      -10.3800  -16.2120  -21.5540 O.co2 252  GLU252     -0.2406
     78  OE2       -9.9330  -14.2900  -22.4260 O.co2 252  GLU252     -0.2406
     79  N        -15.6650  -11.8530  -26.7020 N.3   255  TYR255     -0.1241
     80  CA       -15.3620  -10.4380  -26.5530 C.3   255  TYR255      0.1605
     81  C        -15.5840   -9.7040  -27.8820 C.2   255  TYR255      0.2264
     82  O        -15.7560  -10.3190  -28.9360 O.2   255  TYR255     -0.2867
     83  CB       -13.9660  -10.2430  -26.0200 C.3   255  TYR255      0.0534
     84  CG       -12.7300  -10.7140  -26.7320 C.ar  255  TYR255     -0.0201
     85  CD1      -12.2090  -10.1430  -27.8770 C.ar  255  TYR255     -0.0009
     86  CD2      -12.0070  -11.7520  -26.1880 C.ar  255  TYR255     -0.0009
     87  CE1      -11.0640  -10.6210  -28.4460 C.ar  255  TYR255      0.0417
     88  CE2      -10.8470  -12.2520  -26.7180 C.ar  255  TYR255      0.0417
     89  CZ       -10.3800  -11.6640  -27.8750 C.ar  255  TYR255      0.1957
     90  OH        -9.2240  -12.0980  -28.4740 O.3   255  TYR255     -0.2866
     91  N         -2.4350  -19.5730  -28.3790 N.3   311  ARG311     -0.1245
     92  CA        -2.0810  -19.0410  -27.0720 C.3   311  ARG311      0.1563
     93  C         -1.5760  -20.2530  -26.2870 C.2   311  ARG311      0.2260
     94  O         -2.3350  -21.2160  -26.1220 O.2   311  ARG311     -0.2867
     95  CB        -3.3420  -18.4270  -26.4390 C.3   311  ARG311      0.0307
     96  CG        -3.8330  -17.2250  -27.2410 C.3   311  ARG311      0.0489
     97  CD        -5.2270  -16.7490  -26.9450 C.3   311  ARG311      0.2205
     98  NE        -5.4870  -16.2400  -25.6350 N.pl3 311  ARG311     -0.0865
     99  CZ        -5.9180  -16.8730  -24.5560 C.cat 311  ARG311      0.5346
    100  NH1       -6.2010  -18.1620  -24.6020 N.pl3 311  ARG311      0.1354
    101  NH2       -6.0890  -16.2410  -23.3950 N.pl3 311  ARG311      0.1354
    102  N         -2.0860  -15.8550  -23.3550 N.3   338  GLY338     -0.1225
    103  CA        -2.7950  -14.7610  -23.9600 C.3   338  GLY338      0.1811
    104  C         -2.2340  -13.3720  -23.6660 C.2   338  GLY338      0.2280
    105  O         -2.9700  -12.4040  -23.6690 O.2   338  GLY338     -0.2866
    106  N          1.3530   -7.7120  -24.2490 N.3   342  GLN342     -0.1245
    107  CA         1.2710   -6.7850  -23.1280 C.3   342  GLN342      0.1566
    108  C          2.3050   -7.0110  -22.0510 C.2   342  GLN342      0.2260
    109  O          2.5170   -6.1020  -21.2450 O.2   342  GLN342     -0.2867
    110  CB        -0.1440   -6.8050  -22.5700 C.3   342  GLN342      0.0367
    111  CG        -0.5100   -8.0880  -21.8380 C.3   342  GLN342      0.0905
    112  CD        -1.8870   -8.0020  -21.2210 C.2   342  GLN342      0.2608
    113  OE1       -2.8080   -7.3950  -21.7510 O.2   342  GLN342     -0.2717
    114  NE2       -2.0330   -8.5520  -20.0420 N.am  342  GLN342     -0.0878
@<TRIPOS>BOND
     1    47    46    2
     2    46    45    1
     3    44    45    1
     4     1     2    1
     5    45    48    1
     6     2     3    1
     7     2     5    1
     8     3     4    2
     9    48    49    1
    10    49    50    1
    11    82    81    2
    12    90    89    1
    13    87    85   ar
    14    87    89   ar
    15    91    92    1
    16    81    80    1
    17    85    84   ar
    18    89    88   ar
    19    50    51    1
    20     6     7    1
    21    96    97    1
    22    96    95    1
    23    92    95    1
    24    92    93    1
    25    97    98    1
    26    84    86   ar
    27    84    83    1
    28    88    86   ar
    29    79    80    1
    30    51    52    2
    31    80    83    1
    32    93    94    2
    33     7    10    1
    34     7     8    1
    35    10    11    1
    36    98    99    2
    37    52    53    1
    38    52    54    1
    39    61    62    1
    40    61    60    1
    41    13    11   ar
    42    13    15   ar
    43    56    55    1
    44    56    59    1
    45    56    57    1
    46    11    12   ar
    47     8     9    2
    48    59    60    1
    49   100    99    1
    50    99   101    1
    51   106   107    1
    52    57    58    2
    53    15    14   ar
    54   103   104    1
    55   103   102    1
    56    12    14   ar
    57   105   104    2
    58   107   110    1
    59   107   108    1
    60    73    72    2
    61    63    64    1
    62    69    67    1
    63   110   111    1
    64    64    67    1
    65    64    65    1
    66    78    76   ar
    67    72    71    1
    68    34    33    1
    69   108   109    2
    70    68    67    1
    71    76    75    1
    72    76    77   ar
    73   111   112    1
    74    75    74    2
    75   113   112    2
    76    65    66    2
    77    42    41   ar
    78    21    20    1
    79   112   114   am
    80    32    33   ar
    81    32    30   ar
    82    33    31   ar
    83    71    74    1
    84    71    70    1
    85    16    17    1
    86    36    35    1
    87    36    39    1
    88    36    37    1
    89    40    41    1
    90    40    39    1
    91    41    43   ar
    92    30    28   ar
    93    31    29   ar
    94    20    17    1
    95    20    22    1
    96    37    38    2
    97    17    18    1
    98    29    28   ar
    99    28    27    1
   100    18    19    2
   101    27    24    1
   102    24    25    1
   103    24    23    1
   104    25    26    2
