@<TRIPOS>MOLECULE
tmp/3nyiB00.pdb
 179 167 0 0 0
SMALL
GASTEIGER

@<TRIPOS>ATOM
      1  N         20.9770   52.1950   10.2260 N.3    28  LEU28      -0.1245
      2  CA        21.3450   53.1630   11.2570 C.3    28  LEU28       0.1561
      3  C         20.1130   53.9960   11.5770 C.2    28  LEU28       0.2260
      4  O         19.0770   53.8440   10.9220 O.2    28  LEU28      -0.2867
      5  CB        22.5150   54.0490   10.7980 C.3    28  LEU28       0.0270
      6  CG        23.8680   53.3550   11.0180 C.3    28  LEU28       0.0019
      7  CD1       24.1460   52.3100    9.9400 C.3    28  LEU28       0.0001
      8  CD2       25.0420   54.3420   11.0950 C.3    28  LEU28       0.0001
      9  N         23.1950   60.9920   14.0860 N.3    62  THR62      -0.1203
     10  CA        23.0640   59.6040   13.6680 C.3    62  THR62       0.1994
     11  C         23.3520   58.7050   14.8500 C.2    62  THR62       0.2619
     12  O         23.9620   59.1210   15.8480 O.2    62  THR62      -0.2717
     13  CB        24.0600   59.2400   12.5320 C.3    62  THR62       0.1784
     14  OG1       25.3870   59.6020   12.9400 O.3    62  THR62      -0.2211
     15  CG2       23.7090   59.9850   11.2610 C.3    62  THR62       0.0376
     16  N         22.9420   57.4540   14.7250 N.am   63  SER63      -0.1937
     17  CA        23.2720   56.4650   15.7350 C.3    63  SER63       0.2055
     18  C         23.5490   55.1610   15.0220 C.2    63  SER63       0.2642
     19  O         22.8360   54.8210   14.0790 O.2    63  SER63      -0.2714
     20  CB        22.0970   56.2890   16.7110 C.3    63  SER63       0.2130
     21  OG        22.4470   55.4160   17.7670 O.3    63  SER63      -0.2179
     22  N         24.5990   54.4570   15.4620 N.am   64  LEU64      -0.1977
     23  CA        24.9660   53.1370   14.9440 C.3    64  LEU64       0.1596
     24  C         23.8380   52.1290   15.1740 C.2    64  LEU64       0.2287
     25  O         23.0190   52.3140   16.0800 O.2    64  LEU64      -0.2864
     26  CB        26.2470   52.6520   15.6440 C.3    64  LEU64       0.0297
     27  CG        26.1190   52.1380   17.0960 C.3    64  LEU64       0.0022
     28  CD1       27.4740   51.6750   17.6270 C.3    64  LEU64       0.0001
     29  CD2       25.5010   53.1470   18.0610 C.3    64  LEU64       0.0001
     30  N         30.0670   50.3010    7.4140 N.3    89  ILE89      -0.1245
     31  CA        30.7650   51.5500    7.1420 C.3    89  ILE89       0.1561
     32  C         32.1290   51.4920    7.8500 C.2    89  ILE89       0.2260
     33  O         32.2910   50.7490    8.8230 O.2    89  ILE89      -0.2867
     34  CB        29.9320   52.7380    7.6780 C.3    89  ILE89       0.0252
     35  CG1       30.4500   54.0880    7.1530 C.3    89  ILE89       0.0019
     36  CG2       29.9080   52.7370    9.2200 C.3    89  ILE89       0.0019
     37  CD1       29.5850   55.2660    7.6280 C.3    89  ILE89       0.0001
     38  N         34.5490   55.9920   11.1430 N.3    93  PHE93      -0.1227
     39  CA        33.3950   56.8930   11.1610 C.3    93  PHE93       0.1736
     40  C         32.3440   56.4700   12.1920 C.2    93  PHE93       0.2596
     41  O         31.5350   57.2870   12.6140 O.2    93  PHE93      -0.2718
     42  CB        32.6670   56.9270    9.8040 C.3    93  PHE93       0.0547
     43  CG        33.4010   57.6660    8.7120 C.ar   93  PHE93      -0.0202
     44  CD1       34.5830   58.3460    8.9660 C.ar   93  PHE93      -0.0042
     45  CD2       32.8760   57.7000    7.4230 C.ar   93  PHE93      -0.0042
     46  CE1       35.2450   59.0260    7.9380 C.ar   93  PHE93      -0.0003
     47  CE2       33.5290   58.3730    6.4060 C.ar   93  PHE93      -0.0003
     48  CZ        34.7200   59.0320    6.6700 C.ar   93  PHE93      -0.0000
     49  N         32.3050   55.1870   12.5380 N.am   94  SER94      -0.1938
     50  CA        31.1480   54.6580   13.2800 C.3    94  SER94       0.2055
     51  C         31.4860   53.3770   14.0250 C.2    94  SER94       0.2643
     52  O         32.3510   52.6050   13.5960 O.2    94  SER94      -0.2714
     53  CB        30.0090   54.3660   12.2950 C.3    94  SER94       0.2130
     54  OG        28.9670   53.6280   12.9030 O.3    94  SER94      -0.2179
     55  N         30.7800   53.1440   15.1270 N.am   95  GLY95      -0.1954
     56  CA        30.9280   51.9080   15.8770 C.3    95  GLY95       0.1869
     57  C         30.0980   50.7750   15.2820 C.2    95  GLY95       0.2309
     58  O         29.9920   49.7010   15.8720 O.2    95  GLY95      -0.2863
     59  N         32.2750   54.0960    2.6270 N.3   124  ASN124     -0.1225
     60  CA        30.9810   54.6670    3.0030 C.3   124  ASN124      0.1785
     61  C         30.2470   54.9270    1.7090 C.2   124  ASN124      0.2598
     62  O         30.8830   55.0620    0.6530 O.2   124  ASN124     -0.2718
     63  CB        31.1990   55.9890    3.7450 C.3   124  ASN124      0.1169
     64  CG        29.9120   56.6180    4.2200 C.2   124  ASN124      0.2627
     65  OD1       28.8920   55.9380    4.3750 O.2   124  ASN124     -0.2716
     66  ND2       29.9420   57.9420    4.4360 N.am  124  ASN124     -0.0877
     67  N         28.9220   54.9820    1.7890 N.am  125  THR125     -0.1939
     68  CA        28.0890   55.3860    0.6640 C.3   125  THR125      0.2028
     69  C         28.5910   54.7650   -0.6510 C.2   125  THR125      0.2642
     70  O         28.7040   53.5330   -0.7390 O.2   125  THR125     -0.2714
     71  CB        27.8070   56.9440    0.6370 C.3   125  THR125      0.1808
     72  OG1       26.9750   57.2840   -0.4820 O.3   125  THR125     -0.2208
     73  CG2       29.1120   57.8020    0.6310 C.3   125  THR125      0.0379
     74  N         28.8690   55.5800   -1.6640 N.am  126  VAL126     -0.1977
     75  CA        29.1450   55.0330   -3.0000 C.3   126  VAL126      0.1596
     76  C         30.2700   53.9630   -3.0270 C.2   126  VAL126      0.2287
     77  O         30.1460   52.9790   -3.7370 O.2   126  VAL126     -0.2864
     78  CB        29.4030   56.1640   -4.0450 C.3   126  VAL126      0.0276
     79  CG1       30.6460   56.9500   -3.6680 C.3   126  VAL126      0.0022
     80  CG2       29.5050   55.5990   -5.4950 C.3   126  VAL126      0.0022
     81  N         36.5450   58.0140   -2.9530 N.3   158  ILE158     -0.1245
     82  CA        35.4540   58.9360   -3.2460 C.3   158  ILE158      0.1561
     83  C         36.0710   60.3010   -3.4360 C.2   158  ILE158      0.2260
     84  O         36.9130   60.7200   -2.6340 O.2   158  ILE158     -0.2867
     85  CB        34.4060   59.0440   -2.0900 C.3   158  ILE158      0.0252
     86  CG1       33.9660   57.6670   -1.6040 C.3   158  ILE158      0.0019
     87  CG2       33.1850   59.8590   -2.5520 C.3   158  ILE158      0.0019
     88  CD1       32.9400   57.7320   -0.4500 C.3   158  ILE158      0.0001
     89  N         34.6950   64.1670   -3.7960 N.3   160  PHE160     -0.1241
     90  CA        33.4240   64.8620   -3.6050 C.3   160  PHE160      0.1605
     91  C         33.5710   66.2450   -3.0240 C.2   160  PHE160      0.2264
     92  O         34.6530   66.6360   -2.5790 O.2   160  PHE160     -0.2867
     93  CB        32.4530   64.0150   -2.7670 C.3   160  PHE160      0.0534
     94  CG        32.8390   63.8470   -1.3010 C.ar  160  PHE160     -0.0203
     95  CD1       32.0920   64.4690   -0.3050 C.ar  160  PHE160     -0.0042
     96  CD2       33.9030   63.0420   -0.9180 C.ar  160  PHE160     -0.0042
     97  CE1       32.3960   64.3070    1.0510 C.ar  160  PHE160     -0.0003
     98  CE2       34.2120   62.8690    0.4450 C.ar  160  PHE160     -0.0003
     99  CZ        33.4550   63.5120    1.4270 C.ar  160  PHE160     -0.0000
    100  N         29.9490   68.5770    8.9290 N.3   168  LEU168     -0.1245
    101  CA        31.1370   67.7820    9.1990 C.3   168  LEU168      0.1561
    102  C         31.7120   68.1180   10.5630 C.2   168  LEU168      0.2260
    103  O         32.0220   67.2270   11.3360 O.2   168  LEU168     -0.2867
    104  CB        32.2000   68.0050    8.1170 C.3   168  LEU168      0.0270
    105  CG        31.8950   67.3580    6.7600 C.3   168  LEU168      0.0019
    106  CD1       32.8650   67.8600    5.6870 C.3   168  LEU168      0.0001
    107  CD2       31.9230   65.8320    6.8540 C.3   168  LEU168      0.0001
    108  N         33.2980   64.1400   12.5300 N.3   172  ARG172     -0.1245
    109  CA        34.0800   63.3020   11.6250 C.3   172  ARG172      0.1563
    110  C         34.8940   64.1070   10.6110 C.2   172  ARG172      0.2260
    111  O         35.3920   63.5590    9.6360 O.2   172  ARG172     -0.2867
    112  CB        33.1780   62.3150   10.8720 C.3   172  ARG172      0.0307
    113  CG        32.8350   61.0390   11.6450 C.3   172  ARG172      0.0489
    114  CD        31.7490   61.2870   12.7190 C.3   172  ARG172      0.2205
    115  NE        31.3460   60.0250   13.3260 N.pl3 172  ARG172     -0.0865
    116  CZ        30.5210   59.9180   14.3590 C.cat 172  ARG172      0.5346
    117  NH1       30.0110   61.0160   14.9130 N.pl3 172  ARG172      0.1354
    118  NH2       30.2200   58.7130   14.8390 N.pl3 172  ARG172      0.1354
    119  N         38.6630   60.4820    5.5680 N.3   196  ILE196     -0.1245
    120  CA        38.6470   61.5970    4.6060 C.3   196  ILE196      0.1561
    121  C         39.8350   62.5400    4.7500 C.2   196  ILE196      0.2260
    122  O         40.4030   62.6970    5.8330 O.2   196  ILE196     -0.2867
    123  CB        37.3310   62.3990    4.6420 C.3   196  ILE196      0.0252
    124  CG1       36.9990   62.8400    6.0680 C.3   196  ILE196      0.0019
    125  CG2       36.1790   61.5590    4.0750 C.3   196  ILE196      0.0019
    126  CD1       35.6360   63.5270    6.1830 C.3   196  ILE196      0.0001
    127  N         27.3960   59.7580   -6.7110 N.3   233  GLY233     -0.1225
    128  CA        26.4500   59.9780   -5.6210 C.3   233  GLY233      0.1811
    129  C         25.9880   61.4270   -5.6100 C.2   233  GLY233      0.2280
    130  O         26.7770   62.3310   -5.8850 O.2   233  GLY233     -0.2866
    131  N         22.6980   59.7510   -2.2090 N.3   263  ILE263     -0.1245
    132  CA        23.4620   59.6870   -0.9630 C.3   263  ILE263      0.1561
    133  C         22.4800   59.6650    0.2000 C.2   263  ILE263      0.2260
    134  O         21.5380   60.4610    0.2400 O.2   263  ILE263     -0.2867
    135  CB        24.4420   60.8390   -0.8470 C.3   263  ILE263      0.0252
    136  CG1       25.4940   60.7240   -1.9710 C.3   263  ILE263      0.0019
    137  CG2       25.1280   60.8220    0.5220 C.3   263  ILE263      0.0019
    138  CD1       26.2990   61.9800   -2.1360 C.3   263  ILE263      0.0001
    139  N         22.6880   58.5530    6.4870 N.3   266  VAL266     -0.1231
    140  CA        23.9230   58.3950    7.2800 C.3   266  VAL266      0.1692
    141  C         24.9950   59.4370    6.8910 C.2   266  VAL266      0.2592
    142  O         25.5840   60.0930    7.7480 O.2   266  VAL266     -0.2718
    143  CB        24.5080   56.9630    7.1700 C.3   266  VAL266      0.0266
    144  CG1       25.8470   56.8440    7.9380 C.3   266  VAL266      0.0020
    145  CG2       23.4930   55.9400    7.6640 C.3   266  VAL266      0.0020
    146  N         25.2450   59.5960    5.6010 N.am  267  SER267     -0.1952
    147  CA        26.2390   60.5720    5.1750 C.3   267  SER267      0.1924
    148  C         25.7000   61.9910    5.2250 C.2   267  SER267      0.2314
    149  O         26.4110   62.9180    5.6120 O.2   267  SER267     -0.2863
    150  CB        26.7370   60.2810    3.7580 C.3   267  SER267      0.2116
    151  OG        27.3870   59.0340    3.7010 O.3   267  SER267     -0.2180
    152  N         25.9530   64.2520    8.1520 N.3   270  HIS270     -0.1226
    153  CA        27.3210   64.6880    8.3880 C.3   270  HIS270      0.1752
    154  C         27.8960   65.5820    7.2910 C.2   270  HIS270      0.2596
    155  O         28.8100   66.3650    7.5500 O.2   270  HIS270     -0.2718
    156  CB        28.2080   63.4540    8.6300 C.3   270  HIS270      0.0759
    157  CG        27.8920   62.7640    9.9210 C.ar  270  HIS270      0.0818
    158  ND1       28.4850   63.1210   11.1100 N.ar  270  HIS270     -0.2268
    159  CD2       26.9760   61.8120   10.2210 C.ar  270  HIS270      0.1154
    160  CE1       27.9840   62.3780   12.0870 C.ar  270  HIS270      0.1986
    161  NE2       27.0670   61.5780   11.5740 N.ar  270  HIS270     -0.2212
    162  N         27.3660   65.4890    6.0780 N.am  271  THR271     -0.1953
    163  CA        27.8600   66.3620    5.0120 C.3   271  THR271      0.1897
    164  C         27.0140   67.6070    4.8380 C.2   271  THR271      0.2313
    165  O         27.4820   68.6080    4.2930 O.2   271  THR271     -0.2863
    166  CB        27.8510   65.6550    3.6500 C.3   271  THR271      0.1794
    167  OG1       26.5160   65.2250    3.3620 O.3   271  THR271     -0.2208
    168  CG2       28.7920   64.4570    3.6600 C.3   271  THR271      0.0378
    169  N         25.8870   67.1750   -0.7340 N.3   275  PRO275     -0.2116
    170  CA        27.0990   66.4790   -1.1900 C.3   275  PRO275      0.1372
    171  C         26.9490   66.0670   -2.6470 C.2   275  PRO275      0.2244
    172  O         25.8290   65.8000   -3.0750 O.2   275  PRO275     -0.2868
    173  CB        27.1280   65.2250   -0.3200 C.3   275  PRO275      0.0268
    174  CG        25.6420   64.9450   -0.0360 C.3   275  PRO275      0.0207
    175  CD        24.9790   66.2950    0.0260 C.3   275  PRO275      0.0892
    176  N         29.4860   63.9050   -5.8280 N.3   277  GLY277     -0.1225
    177  CA        30.8000   63.3790   -6.1420 C.3   277  GLY277      0.1811
    178  C         30.7360   62.0430   -6.8360 C.2   277  GLY277      0.2280
    179  O         29.6770   61.6170   -7.2840 O.2   277  GLY277     -0.2866
@<TRIPOS>BOND
     1   179   178    2
     2   178   177    1
     3   127   128    1
     4   177   176    1
     5   130   129    2
     6   128   129    1
     7    80    78    1
     8    78    79    1
     9    78    75    1
    10    89    90    1
    11    77    76    2
    12    90    91    1
    13    90    93    1
    14    83    82    1
    15    83    84    2
    16    82    81    1
    17    82    85    1
    18   172   171    2
    19    76    75    1
    20    91    92    2
    21    75    74    1
    22    93    94    1
    23   171   170    1
    24    87    85    1
    25   131   132    1
    26   138   136    1
    27    85    86    1
    28   136   135    1
    29    74    69   am
    30    86    88    1
    31    94    96   ar
    32    94    95   ar
    33   170   169    1
    34   170   173    1
    35   132   135    1
    36   132   133    1
    37    96    98   ar
    38   135   137    1
    39    70    69    2
    40   169   175    1
    41    69    68    1
    42    72    71    1
    43   173   174    1
    44    95    97   ar
    45   174   175    1
    46   133   134    2
    47    98    99   ar
    48    73    71    1
    49    71    68    1
    50    62    61    2
    51    68    67    1
    52    97    99   ar
    53    61    67   am
    54    61    60    1
    55    59    60    1
    56    60    63    1
    57   167   166    1
    58   166   168    1
    59   166   163    1
    60   151   150    1
    61    63    64    1
    62   150   147    1
    63   125   123    1
    64    64    65    2
    65    64    66   am
    66   165   164    2
    67   120   123    1
    68   120   121    1
    69   120   119    1
    70   123   124    1
    71   121   122    2
    72   164   163    1
    73   163   162    1
    74   147   148    1
    75   147   146    1
    76   148   149    2
    77   146   141   am
    78   106   105    1
    79   124   126    1
    80   162   154   am
    81    47    48   ar
    82    47    45   ar
    83   139   140    1
    84    48    46   ar
    85   105   107    1
    86   105   104    1
    87   141   140    1
    88   141   142    2
    89    31    30    1
    90    31    34    1
    91    31    32    1
    92    35    37    1
    93    35    34    1
    94   143   140    1
    95   143   145    1
    96   143   144    1
    97   154   155    2
    98   154   153    1
    99    45    43   ar
   100    34    36    1
   101    32    33    2
   102    46    44   ar
   103   104   101    1
   104   152   153    1
   105   153   156    1
   106   156   157    1
   107    43    44   ar
   108    43    42    1
   109   100   101    1
   110   101   102    1
   111   111   110    2
   112    42    39    1
   113   157   159   ar
   114   157   158   ar
   115     7     6    1
   116   159   161   ar
   117     1     2    1
   118   102   103    2
   119   110   109    1
   120     5     6    1
   121     5     2    1
   122   112   109    1
   123   112   113    1
   124     4     3    2
   125     6     8    1
   126   158   160   ar
   127    38    39    1
   128    39    40    1
   129     2     3    1
   130    15    13    1
   131   161   160   ar
   132   109   108    1
   133   113   114    1
   134    40    49   am
   135    40    41    2
   136    53    54    1
   137    53    50    1
   138    13    14    1
   139    13    10    1
   140    49    50    1
   141   114   115    1
   142    50    51    1
   143   115   116    2
   144    52    51    2
   145    10     9    1
   146    10    11    1
   147    51    55   am
   148    19    18    2
   149   116   118    1
   150   116   117    1
   151    16    11   am
   152    16    17    1
   153    11    12    2
   154    23    24    1
   155    23    22    1
   156    23    26    1
   157    18    22   am
   158    18    17    1
   159    55    56    1
   160    24    25    2
   161    57    58    2
   162    57    56    1
   163    26    27    1
   164    17    20    1
   165    20    21    1
   166    27    28    1
   167    27    29    1
