@<TRIPOS>MOLECULE
tmp/3nynA00.pdb
 141 130 0 0 0
SMALL
GASTEIGER

@<TRIPOS>ATOM
      1  N        -75.1310   10.0400   18.1980 N.3   191  LEU191     -0.1231
      2  CA       -74.0840   10.2530   19.2000 C.3   191  LEU191      0.1693
      3  C        -74.6410   10.4380   20.6200 C.2   191  LEU191      0.2593
      4  O        -73.8750   10.6120   21.5710 O.2   191  LEU191     -0.2718
      5  CB       -73.2580   11.4870   18.8300 C.3   191  LEU191      0.0284
      6  CG       -72.6080   11.5090   17.4440 C.3   191  LEU191      0.0019
      7  CD1      -72.5520   12.9300   16.9100 C.3   191  LEU191      0.0001
      8  CD2      -71.2200   10.8900   17.4650 C.3   191  LEU191      0.0001
      9  N        -75.9620   10.4050   20.7730 N.am  192  GLY192     -0.1942
     10  CA       -76.5660   10.6120   22.0780 C.3   192  GLY192      0.2014
     11  C        -78.0750   10.7130   22.0290 C.2   192  GLY192      0.2639
     12  O        -78.6620   10.8450   20.9530 O.2   192  GLY192     -0.2714
     13  N        -78.6910   10.6450   23.2100 N.am  193  LYS193     -0.1963
     14  CA       -80.1230   10.8660   23.3710 C.3   193  LYS193      0.1728
     15  C        -80.3480   12.1880   24.0880 C.2   193  LYS193      0.2616
     16  O        -79.9770   12.3390   25.2530 O.2   193  LYS193     -0.2715
     17  CB       -80.7540    9.7400   24.1860 C.3   193  LYS193      0.0311
     18  CG       -82.2720    9.8820   24.3980 C.3   193  LYS193      0.0038
     19  CD       -82.7810    8.9270   25.4880 C.3   193  LYS193      0.0206
     20  CE       -84.2640    9.1370   25.8000 C.3   193  LYS193      0.1093
     21  NZ       -84.7190    8.3110   26.9650 N.3   193  LYS193     -0.1314
     22  N        -80.9570   13.1400   23.3870 N.am  194  GLY194     -0.1955
     23  CA       -81.3410   14.4190   23.9790 C.3   194  GLY194      0.1869
     24  C        -82.5940   14.2900   24.8270 C.2   194  GLY194      0.2309
     25  O        -83.1190   13.1890   25.0330 O.2   194  GLY194     -0.2863
     26  N        -79.2080   12.8860   18.6810 N.3   199  VAL199     -0.1245
     27  CA       -78.1910   13.8500   18.2930 C.3   199  VAL199      0.1561
     28  C        -77.1420   13.0960   17.5000 C.2   199  VAL199      0.2260
     29  O        -76.3370   12.3740   18.0730 O.2   199  VAL199     -0.2867
     30  CB       -77.5440   14.5160   19.5230 C.3   199  VAL199      0.0252
     31  CG1      -76.3120   15.3130   19.1330 C.3   199  VAL199      0.0019
     32  CG2      -78.5470   15.4070   20.2250 C.3   199  VAL199      0.0019
     33  N        -72.9720   18.6420   13.9060 N.3   212  ALA212     -0.1245
     34  CA       -73.8180   17.8070   14.7460 C.3   212  ALA212      0.1562
     35  C        -75.2520   18.2250   14.5090 C.2   212  ALA212      0.2260
     36  O        -75.5250   19.4020   14.3260 O.2   212  ALA212     -0.2867
     37  CB       -73.4680   18.0100   16.1740 C.3   212  ALA212      0.0290
     38  N        -78.8720   18.1550   16.2030 N.3   214  LYS214     -0.1245
     39  CA       -79.7420   17.8950   17.3470 C.3   214  LYS214      0.1561
     40  C        -81.1720   17.8370   16.8440 C.2   214  LYS214      0.2260
     41  O        -81.7300   18.8490   16.4280 O.2   214  LYS214     -0.2867
     42  CB       -79.5770   18.9890   18.4080 C.3   214  LYS214      0.0271
     43  CG       -80.3080   18.7450   19.7280 C.3   214  LYS214      0.0035
     44  CD       -79.8220   19.7130   20.8140 C.3   214  LYS214      0.0206
     45  CE       -80.8480   19.9110   21.9100 C.3   214  LYS214      0.1093
     46  NZ       -80.2580   20.5710   23.1050 N.3   214  LYS214     -0.1314
     47  N        -71.3390   26.2720   21.3840 N.3   246  VAL246     -0.1245
     48  CA       -71.6090   25.6490   20.1030 C.3   246  VAL246      0.1561
     49  C        -72.3870   26.6410   19.2650 C.2   246  VAL246      0.2260
     50  O        -73.3680   27.2170   19.7310 O.2   246  VAL246     -0.2867
     51  CB       -72.4000   24.3450   20.2530 C.3   246  VAL246      0.0252
     52  CG1      -71.5410   23.2930   20.9330 C.3   246  VAL246      0.0019
     53  CG2      -73.6800   24.5810   21.0500 C.3   246  VAL246      0.0019
     54  N        -75.3620   22.0150   14.5170 N.3   262  LEU262     -0.1231
     55  CA       -74.4620   22.6520   15.4780 C.3   262  LEU262      0.1693
     56  C        -73.0090   22.2890   15.2570 C.2   262  LEU262      0.2593
     57  O        -72.7150   21.2640   14.6760 O.2   262  LEU262     -0.2718
     58  CB       -74.8370   22.1930   16.8850 C.3   262  LEU262      0.0284
     59  CG       -76.2390   22.5540   17.3700 C.3   262  LEU262      0.0019
     60  CD1      -76.5170   21.9260   18.7340 C.3   262  LEU262      0.0001
     61  CD2      -76.3810   24.0800   17.4050 C.3   262  LEU262      0.0001
     62  N        -72.0930   23.1250   15.7290 N.am  263  THR263     -0.1939
     63  CA       -70.6760   22.7860   15.6910 C.3   263  THR263      0.2028
     64  C        -70.4870   21.3460   16.1280 C.2   263  THR263      0.2642
     65  O        -71.1330   20.9120   17.0650 O.2   263  THR263     -0.2714
     66  CB       -69.8700   23.6840   16.6150 C.3   263  THR263      0.1808
     67  OG1      -69.9580   25.0350   16.1460 O.3   263  THR263     -0.2208
     68  CG2      -68.4080   23.2300   16.6690 C.3   263  THR263      0.0379
     69  N        -69.6130   20.6040   15.4510 N.am  264  LEU264     -0.1963
     70  CA       -69.4120   19.1870   15.7660 C.3   264  LEU264      0.1728
     71  C        -68.1800   19.0060   16.6150 C.2   264  LEU264      0.2616
     72  O        -67.0670   19.3010   16.1850 O.2   264  LEU264     -0.2715
     73  CB       -69.2750   18.3340   14.5120 C.3   264  LEU264      0.0311
     74  CG       -69.2580   16.8350   14.8350 C.3   264  LEU264      0.0022
     75  CD1      -70.6390   16.3990   15.2390 C.3   264  LEU264      0.0001
     76  CD2      -68.7740   16.0040   13.6670 C.3   264  LEU264      0.0001
     77  N        -68.3940   18.5090   17.8260 N.am  265  MET265     -0.1977
     78  CA       -67.3480   18.4190   18.8240 C.3   265  MET265      0.1605
     79  C        -66.8840   16.9770   18.9030 C.2   265  MET265      0.2287
     80  O        -67.4940   16.1530   19.5710 O.2   265  MET265     -0.2864
     81  CB       -67.9030   18.9130   20.1500 C.3   265  MET265      0.0413
     82  CG       -68.4360   20.3330   20.0720 C.3   265  MET265      0.0598
     83  SD       -67.1180   21.5380   19.8510 S.3   265  MET265     -0.1393
     84  CE       -66.4080   21.5620   21.4980 C.3   265  MET265      0.0692
     85  N        -65.9550   14.6680   22.1030 N.3   268  GLY268     -0.1210
     86  CA       -66.9860   14.1670   23.0090 C.3   268  GLY268      0.1956
     87  C        -67.1960   15.0200   24.2510 C.2   268  GLY268      0.2611
     88  O        -66.5570   16.0630   24.4180 O.2   268  GLY268     -0.2717
     89  N        -68.0950   14.5660   25.1240 N.am  269  ASP269     -0.1973
     90  CA       -68.5390   15.3520   26.2800 C.3   269  ASP269      0.1709
     91  C        -67.7080   15.0640   27.5250 C.2   269  ASP269      0.2293
     92  O        -67.1330   13.9960   27.6490 O.2   269  ASP269     -0.2864
     93  CB       -70.0270   15.1030   26.5550 C.3   269  ASP269      0.1436
     94  CG       -70.3220   13.6680   26.9320 C.2   269  ASP269      0.3671
     95  OD1      -70.8630   12.9260   26.0890 O.co2 269  ASP269     -0.2456
     96  OD2      -70.0120   13.2840   28.0710 O.co2 269  ASP269     -0.2456
     97  N        -72.4580   16.5230   30.9860 N.3   314  GLU314     -0.1231
     98  CA       -73.2000   16.1680   29.7620 C.3   314  GLU314      0.1699
     99  C        -73.1040   17.2700   28.7050 C.2   314  GLU314      0.2592
    100  O        -72.9220   16.9940   27.5240 O.2   314  GLU314     -0.2718
    101  CB       -74.6950   15.9250   30.0540 C.3   314  GLU314      0.0402
    102  CG       -75.0450   14.6410   30.7930 C.3   314  GLU314      0.1161
    103  CD       -74.9730   14.7670   32.3230 C.2   314  GLU314      0.3649
    104  OE1      -74.2000   15.6180   32.8520 O.co2 314  GLU314     -0.2457
    105  OE2      -75.7010   14.0020   33.0030 O.co2 314  GLU314     -0.2457
    106  N        -73.2300   18.5160   29.1470 N.am  315  ASN315     -0.1974
    107  CA       -73.3920   19.6380   28.2520 C.3   315  ASN315      0.1688
    108  C        -72.1400   20.4800   28.0660 C.2   315  ASN315      0.2292
    109  O        -72.2320   21.5920   27.5690 O.2   315  ASN315     -0.2864
    110  CB       -74.5320   20.5190   28.7500 C.3   315  ASN315      0.1181
    111  CG       -75.8220   19.7490   28.9560 C.2   315  ASN315      0.2629
    112  OD1      -76.1270   18.7980   28.2290 O.2   315  ASN315     -0.2716
    113  ND2      -76.5930   20.1610   29.9560 N.am  315  ASN315     -0.0877
    114  N        -68.5220   20.1040   25.9770 N.3   317  LEU317     -0.1245
    115  CA       -68.0330   19.2380   24.9120 C.3   317  LEU317      0.1561
    116  C        -66.6440   19.6520   24.4760 C.2   317  LEU317      0.2260
    117  O        -66.2670   20.8080   24.6370 O.2   317  LEU317     -0.2867
    118  CB       -68.9860   19.2920   23.7160 C.3   317  LEU317      0.0270
    119  CG       -70.4730   19.1200   24.0460 C.3   317  LEU317      0.0019
    120  CD1      -71.3300   19.2050   22.8030 C.3   317  LEU317      0.0001
    121  CD2      -70.7100   17.8030   24.7510 C.3   317  LEU317      0.0001
    122  N        -73.1600   23.8210   25.6420 N.3   327  SER327     -0.1202
    123  CA       -74.1730   23.2850   24.7380 C.3   327  SER327      0.2020
    124  C        -75.4640   22.9490   25.4790 C.2   327  SER327      0.2618
    125  O        -75.5270   23.1000   26.6870 O.2   327  SER327     -0.2717
    126  CB       -73.6090   22.0430   24.0670 C.3   327  SER327      0.2103
    127  OG       -72.9630   21.2230   25.0300 O.3   327  SER327     -0.2182
    128  N        -76.4850   22.4950   24.7520 N.am  328  ASP328     -0.1973
    129  CA       -77.8240   22.2870   25.3110 C.3   328  ASP328      0.1709
    130  C        -78.2760   23.5390   26.0500 C.2   328  ASP328      0.2293
    131  O        -78.1210   23.6470   27.2640 O.2   328  ASP328     -0.2864
    132  CB       -77.8470   21.0970   26.2690 C.3   328  ASP328      0.1436
    133  CG       -78.0740   19.7670   25.5700 C.2   328  ASP328      0.3671
    134  OD1      -77.7710   19.6310   24.3520 O.co2 328  ASP328     -0.2456
    135  OD2      -78.5650   18.8450   26.2760 O.co2 328  ASP328     -0.2456
    136  N        -67.6280    8.2320   22.4200 N.3   470  CYS470     -0.1235
    137  CA       -68.9300    7.9610   23.0200 C.3   470  CYS470      0.1677
    138  C        -69.3230    6.5000   22.8000 C.2   470  CYS470      0.2270
    139  O        -68.5760    5.7380   22.1950 O.2   470  CYS470     -0.2867
    140  CB       -70.0040    8.9130   22.4880 C.3   470  CYS470      0.0956
    141  SG       -70.6820    8.4620   20.9100 S.3   470  CYS470     -0.0801
@<TRIPOS>BOND
     1    76    74    1
     2    33    34    1
     3    36    35    2
     4    35    34    1
     5    73    74    1
     6    73    70    1
     7    54    55    1
     8    57    56    2
     9    34    37    1
    10    74    75    1
    11    56    55    1
    12    56    62   am
    13    69    70    1
    14    69    64   am
    15    55    58    1
    16    63    62    1
    17    63    64    1
    18    63    66    1
    19    70    71    1
    20    64    65    2
    21    67    66    1
    22    72    71    2
    23    38    39    1
    24    41    40    2
    25    66    68    1
    26    71    77   am
    27    40    39    1
    28    58    59    1
    29     7     6    1
    30    39    42    1
    31    59    61    1
    32    59    60    1
    33     6     8    1
    34     6     5    1
    35    28    29    2
    36    28    27    1
    37    77    78    1
    38     1     2    1
    39    27    26    1
    40    27    30    1
    41    42    43    1
    42    78    79    1
    43    78    81    1
    44     5     2    1
    45    79    80    2
    46    31    30    1
    47     2     3    1
    48    49    50    2
    49    49    48    1
    50    30    32    1
    51    43    44    1
    52    83    82    1
    53    83    84    1
    54    82    81    1
    55    48    51    1
    56    48    47    1
    57    51    52    1
    58    51    53    1
    59     3     9   am
    60     3     4    2
    61     9    10    1
    62    44    45    1
    63   141   140    1
    64    12    11    2
    65    45    46    1
    66    11    10    1
    67    11    13   am
    68    85    86    1
    69   139   138    2
    70   136   137    1
    71   140   137    1
    72   138   137    1
    73   120   119    1
    74    86    87    1
    75    13    14    1
    76    14    15    1
    77    14    17    1
    78    22    23    1
    79    22    15   am
    80   118   119    1
    81   118   115    1
    82    23    24    1
    83   119   121    1
    84   126   123    1
    85   126   127    1
    86    15    16    2
    87    17    18    1
    88    87    88    2
    89    87    89   am
    90   134   133   ar
    91    18    19    1
    92   116   117    2
    93   116   115    1
    94   123   124    1
    95   123   122    1
    96   128   129    1
    97   128   124   am
    98    24    25    2
    99   115   114    1
   100    89    90    1
   101   129   130    1
   102   129   132    1
   103   124   125    2
   104    19    20    1
   105   133   132    1
   106   133   135   ar
   107    20    21    1
   108   130   131    2
   109    95    94   ar
   110    90    93    1
   111    90    91    1
   112    93    94    1
   113    94    96   ar
   114   100    99    2
   115    91    92    2
   116   109   108    2
   117   108   107    1
   118   112   111    2
   119   107   110    1
   120   107   106    1
   121    99   106   am
   122    99    98    1
   123   110   111    1
   124   111   113   am
   125    98   101    1
   126    98    97    1
   127   101   102    1
   128   102   103    1
   129   103   104   ar
   130   103   105   ar
