@<TRIPOS>MOLECULE
tmp/3nyoB00.pdb
 145 134 0 0 0
SMALL
GASTEIGER

@<TRIPOS>ATOM
      1  N        -44.6980   61.2740  -40.1630 N.3   191  LEU191     -0.1231
      2  CA       -44.3020   60.1580  -41.0240 C.3   191  LEU191      0.1693
      3  C        -44.5400   60.4300  -42.5080 C.2   191  LEU191      0.2593
      4  O        -44.0320   59.7030  -43.3700 O.2   191  LEU191     -0.2718
      5  CB       -45.0360   58.8830  -40.6090 C.3   191  LEU191      0.0284
      6  CG       -44.6510   58.2180  -39.2890 C.3   191  LEU191      0.0019
      7  CD1      -45.8850   57.6550  -38.6710 C.3   191  LEU191      0.0001
      8  CD2      -43.6160   57.1230  -39.4860 C.3   191  LEU191      0.0001
      9  N        -45.3150   61.4720  -42.7960 N.am  192  GLY192     -0.1942
     10  CA       -45.6000   61.8700  -44.1710 C.3   192  GLY192      0.2014
     11  C        -46.6770   62.9320  -44.2480 C.2   192  GLY192      0.2639
     12  O        -47.5160   63.0460  -43.3480 O.2   192  GLY192     -0.2714
     13  N        -46.6440   63.7210  -45.3190 N.am  193  LYS193     -0.1963
     14  CA       -47.6770   64.7190  -45.5510 C.3   193  LYS193      0.1728
     15  C        -48.8340   64.0670  -46.2950 C.2   193  LYS193      0.2617
     16  O        -48.6810   63.5920  -47.4250 O.2   193  LYS193     -0.2715
     17  CB       -47.1330   65.9200  -46.3280 C.3   193  LYS193      0.0311
     18  CG       -48.1400   67.0590  -46.5040 C.3   193  LYS193      0.0038
     19  CD       -47.8240   67.8900  -47.7500 C.3   193  LYS193      0.0206
     20  CE       -49.0300   68.7080  -48.2100 C.3   193  LYS193      0.1093
     21  NZ       -48.8550   69.2500  -49.5960 N.3   193  LYS193     -0.1314
     22  N        -49.9850   64.0370  -45.6330 N.am  194  GLY194     -0.1940
     23  CA       -51.1900   63.4540  -46.1980 C.3   194  GLY194      0.2014
     24  C        -51.9760   64.4680  -46.9970 C.2   194  GLY194      0.2639
     25  O        -51.4850   65.5620  -47.3010 O.2   194  GLY194     -0.2714
     26  N        -53.2060   64.0910  -47.3320 N.am  195  GLY195     -0.1954
     27  CA       -54.0800   64.9240  -48.1450 C.3   195  GLY195      0.1869
     28  C        -54.4000   66.2510  -47.4890 C.2   195  GLY195      0.2309
     29  O        -54.3640   67.2960  -48.1420 O.2   195  GLY195     -0.2863
     30  N        -49.3350   62.9830  -40.9980 N.3   199  VAL199     -0.1245
     31  CA       -49.6200   61.6580  -40.4760 C.3   199  VAL199      0.1561
     32  C        -48.4580   61.3050  -39.5580 C.2   199  VAL199      0.2260
     33  O        -47.3440   61.0640  -40.0290 O.2   199  VAL199     -0.2867
     34  CB       -49.7450   60.6220  -41.6050 C.3   199  VAL199      0.0252
     35  CG1      -50.0410   59.2490  -41.0380 C.3   199  VAL199      0.0019
     36  CG2      -50.8260   61.0360  -42.5870 C.3   199  VAL199      0.0019
     37  N        -51.0420   54.9730  -35.7850 N.3   212  ALA212     -0.1245
     38  CA       -50.7590   56.1460  -36.5970 C.3   212  ALA212      0.1562
     39  C        -51.9220   57.1140  -36.4790 C.2   212  ALA212      0.2260
     40  O        -53.0820   56.7090  -36.5180 O.2   212  ALA212     -0.2867
     41  CB       -50.5570   55.7510  -38.0300 C.3   212  ALA212      0.0290
     42  N        -53.6350   60.0440  -38.3810 N.3   214  LYS214     -0.1245
     43  CA       -53.8230   60.8640  -39.5670 C.3   214  LYS214      0.1561
     44  C        -54.5720   62.1200  -39.1560 C.2   214  LYS214      0.2260
     45  O        -55.7110   62.0540  -38.6880 O.2   214  LYS214     -0.2867
     46  CB       -54.5800   60.0930  -40.6570 C.3   214  LYS214      0.0271
     47  CG       -54.6650   60.8170  -42.0020 C.3   214  LYS214      0.0035
     48  CD       -55.1060   59.8970  -43.1420 C.3   214  LYS214      0.0206
     49  CE       -55.1980   60.6640  -44.4640 C.3   214  LYS214      0.1093
     50  NZ       -55.6260   59.8140  -45.6070 N.3   214  LYS214     -0.1314
     51  N        -56.0460   48.8600  -43.4550 N.3   246  VAL246     -0.1245
     52  CA       -55.7910   49.4020  -42.1250 C.3   246  VAL246      0.1561
     53  C        -57.1210   49.6420  -41.4160 C.2   246  VAL246      0.2260
     54  O        -58.0600   50.1770  -42.0110 O.2   246  VAL246     -0.2867
     55  CB       -54.9730   50.7080  -42.1960 C.3   246  VAL246      0.0252
     56  CG1      -53.5910   50.4220  -42.7590 C.3   246  VAL246      0.0019
     57  CG2      -55.6900   51.7700  -43.0440 C.3   246  VAL246      0.0019
     58  N        -55.1400   55.0720  -36.9290 N.3   262  LEU262     -0.1231
     59  CA       -55.0820   53.9440  -37.8270 C.3   262  LEU262      0.1693
     60  C        -54.0050   52.9720  -37.4230 C.2   262  LEU262      0.2593
     61  O        -53.0210   53.3480  -36.7870 O.2   262  LEU262     -0.2718
     62  CB       -54.7960   54.4410  -39.2340 C.3   262  LEU262      0.0284
     63  CG       -55.6830   55.5800  -39.7390 C.3   262  LEU262      0.0019
     64  CD1      -55.0540   56.2670  -40.9450 C.3   262  LEU262      0.0001
     65  CD2      -57.0700   55.0580  -40.0680 C.3   262  LEU262      0.0001
     66  N        -54.2040   51.7160  -37.8050 N.am  263  THR263     -0.1939
     67  CA       -53.2060   50.6740  -37.6250 C.3   263  THR263      0.2028
     68  C        -51.8460   51.2510  -37.9780 C.2   263  THR263      0.2642
     69  O        -51.6910   51.8680  -39.0230 O.2   263  THR263     -0.2714
     70  CB       -53.5010   49.4740  -38.5420 C.3   263  THR263      0.1808
     71  OG1      -54.9090   49.1900  -38.5270 O.3   263  THR263     -0.2208
     72  CG2      -52.7070   48.2410  -38.1040 C.3   263  THR263      0.0379
     73  N        -50.8710   51.0870  -37.0930 N.am  264  LEU264     -0.1963
     74  CA       -49.5410   51.6010  -37.3790 C.3   264  LEU264      0.1728
     75  C        -48.7470   50.6200  -38.2340 C.2   264  LEU264      0.2616
     76  O        -48.6780   49.4300  -37.9330 O.2   264  LEU264     -0.2715
     77  CB       -48.7860   51.9580  -36.1000 C.3   264  LEU264      0.0311
     78  CG       -47.4670   52.7190  -36.3130 C.3   264  LEU264      0.0022
     79  CD1      -47.6910   54.1300  -36.8290 C.3   264  LEU264      0.0001
     80  CD2      -46.6720   52.7680  -35.0260 C.3   264  LEU264      0.0001
     81  N        -48.1530   51.1400  -39.3040 N.am  265  MET265     -0.1977
     82  CA       -47.4780   50.3190  -40.2930 C.3   265  MET265      0.1605
     83  C        -46.0030   50.6270  -40.2900 C.2   265  MET265      0.2287
     84  O        -45.5400   51.5040  -41.0220 O.2   265  MET265     -0.2864
     85  CB       -48.0630   50.5800  -41.6750 C.3   265  MET265      0.0413
     86  CG       -49.5540   50.3890  -41.7490 C.3   265  MET265      0.0598
     87  SD       -50.0690   48.7790  -41.1320 S.3   265  MET265     -0.1393
     88  CE       -49.7450   47.7170  -42.5370 C.3   265  MET265      0.0692
     89  N        -43.6960   51.2490  -43.4630 N.3   268  GLY268     -0.1210
     90  CA       -43.9110   52.3800  -44.3750 C.3   268  GLY268      0.1956
     91  C        -44.5760   52.0160  -45.6970 C.2   268  GLY268      0.2611
     92  O        -45.1660   50.9390  -45.8340 O.2   268  GLY268     -0.2717
     93  N        -44.4790   52.9150  -46.6740 N.am  269  ASP269     -0.1973
     94  CA       -45.1240   52.7060  -47.9720 C.3   269  ASP269      0.1709
     95  C        -44.2110   52.0300  -48.9990 C.2   269  ASP269      0.2293
     96  O        -42.9940   51.9680  -48.8160 O.2   269  ASP269     -0.2864
     97  CB       -45.7160   54.0140  -48.5280 C.3   269  ASP269      0.1436
     98  CG       -44.7630   55.1920  -48.4220 C.2   269  ASP269      0.3671
     99  OD1      -44.3460   55.5300  -47.2910 O.co2 269  ASP269     -0.2456
    100  OD2      -44.4500   55.7930  -49.4730 O.co2 269  ASP269     -0.2456
    101  N        -47.7820   54.6990  -52.6940 N.3   314  GLU314     -0.1231
    102  CA       -47.8930   55.4980  -51.4660 C.3   314  GLU314      0.1699
    103  C        -49.1030   55.1270  -50.6010 C.2   314  GLU314      0.2592
    104  O        -49.1480   55.4580  -49.4180 O.2   314  GLU314     -0.2718
    105  CB       -47.8750   57.0100  -51.7680 C.3   314  GLU314      0.0402
    106  CG       -48.8860   57.5090  -52.8080 C.3   314  GLU314      0.1161
    107  CD       -48.3870   57.3840  -54.2560 C.2   314  GLU314      0.3649
    108  OE1      -48.0150   58.4210  -54.8590 O.co2 314  GLU314     -0.2457
    109  OE2      -48.3740   56.2540  -54.7980 O.co2 314  GLU314     -0.2457
    110  N        -50.0670   54.4310  -51.1990 N.am  315  ASN315     -0.1974
    111  CA       -51.2670   53.9960  -50.4950 C.3   315  ASN315      0.1688
    112  C        -51.2410   52.5170  -50.1320 C.2   315  ASN315      0.2292
    113  O        -52.2420   51.9730  -49.6590 O.2   315  ASN315     -0.2864
    114  CB       -52.5150   54.3190  -51.3180 C.3   315  ASN315      0.1181
    115  CG       -52.8010   55.8080  -51.3940 C.2   315  ASN315      0.2629
    116  OD1      -52.2610   56.6030  -50.6220 O.2   315  ASN315     -0.2716
    117  ND2      -53.6630   56.1930  -52.3290 N.am  315  ASN315     -0.0877
    118  N        -49.1340   49.8880  -47.6360 N.3   317  LEU317     -0.1245
    119  CA       -48.2840   49.9780  -46.4510 C.3   317  LEU317      0.1561
    120  C        -47.9120   48.6210  -45.8560 C.2   317  LEU317      0.2260
    121  O        -48.6690   47.6590  -45.9760 O.2   317  LEU317     -0.2867
    122  CB       -48.9610   50.8360  -45.3810 C.3   317  LEU317      0.0270
    123  CG       -49.6110   52.1710  -45.7560 C.3   317  LEU317      0.0019
    124  CD1      -50.3700   52.7130  -44.5670 C.3   317  LEU317      0.0001
    125  CD2      -48.6000   53.1990  -46.2460 C.3   317  LEU317      0.0001
    126  N        -54.4490   51.7330  -47.8230 N.3   327  SER327     -0.1202
    127  CA       -54.7190   52.8740  -46.9640 C.3   327  SER327      0.2020
    128  C        -55.1640   54.1020  -47.7530 C.2   327  SER327      0.2618
    129  O        -55.3170   54.0460  -48.9750 O.2   327  SER327     -0.2717
    130  CB       -53.4850   53.2030  -46.1360 C.3   327  SER327      0.2103
    131  OG       -52.3850   53.4460  -46.9880 O.3   327  SER327     -0.2182
    132  N        -55.3680   55.2090  -47.0380 N.am  328  ASP328     -0.1973
    133  CA       -55.7800   56.4890  -47.6300 C.3   328  ASP328      0.1709
    134  C        -56.9690   56.3110  -48.5590 C.2   328  ASP328      0.2293
    135  O        -56.8740   56.4980  -49.7670 O.2   328  ASP328     -0.2864
    136  CB       -54.6160   57.1710  -48.3580 C.3   328  ASP328      0.1436
    137  CG       -54.9170   58.6210  -48.7140 C.2   328  ASP328      0.3671
    138  OD1      -55.4310   59.3520  -47.8340 O.co2 328  ASP328     -0.2456
    139  OD2      -54.6330   59.0290  -49.8690 O.co2 328  ASP328     -0.2456
    140  N        -39.0750   55.6080  -43.6860 N.3   470  CYS470     -0.1235
    141  CA       -39.4650   56.8290  -44.4020 C.3   470  CYS470      0.1677
    142  C        -38.4800   57.9700  -44.1540 C.2   470  CYS470      0.2270
    143  O        -37.5540   57.8390  -43.3540 O.2   470  CYS470     -0.2867
    144  CB       -40.9120   57.2520  -44.1100 C.3   470  CYS470      0.0956
    145  SG       -41.2340   57.7870  -42.4380 S.3   470  CYS470     -0.0801
@<TRIPOS>BOND
     1   108   107   ar
     2   109   107   ar
     3   107   106    1
     4   106   105    1
     5   101   102    1
     6   117   115   am
     7   105   102    1
     8   102   103    1
     9   115   114    1
    10   115   116    2
    11   114   111    1
    12   110   103   am
    13   110   111    1
    14   103   104    2
    15   111   112    1
    16   112   113    2
    17   139   137   ar
    18   135   134    2
    19    21    20    1
    20   100    98   ar
    21    95    96    2
    22    95    94    1
    23   129   128    2
    24   137   136    1
    25   137   138   ar
    26   134   133    1
    27    97    98    1
    28    97    94    1
    29    98    99   ar
    30   136   133    1
    31    20    19    1
    32    27    28    1
    33    27    26    1
    34    29    28    2
    35    94    93    1
    36   126   127    1
    37   128   132   am
    38   128   127    1
    39    19    18    1
    40   118   119    1
    41   133   132    1
    42    16    15    2
    43    26    24   am
    44    25    24    2
    45    24    23    1
    46   131   130    1
    47   127   130    1
    48    93    91   am
    49    18    17    1
    50   119   120    1
    51   119   122    1
    52    17    14    1
    53    15    22   am
    54    15    14    1
    55   125   123    1
    56    23    22    1
    57   121   120    2
    58    92    91    2
    59   123   122    1
    60   123   124    1
    61    91    90    1
    62    50    49    1
    63    14    13    1
    64    13    11   am
    65    49    48    1
    66   141   142    1
    67   141   144    1
    68   141   140    1
    69    90    89    1
    70    11    10    1
    71    11    12    2
    72    10     9    1
    73   142   143    2
    74   144   145    1
    75    51    52    1
    76     4     3    2
    77    48    47    1
    78    57    55    1
    79     9     3   am
    80    56    55    1
    81    36    34    1
    82    88    87    1
    83     3     2    1
    84    55    52    1
    85    52    53    1
    86    54    53    2
    87    47    46    1
    88    86    85    1
    89    86    87    1
    90    85    82    1
    91    34    35    1
    92    34    31    1
    93     2     5    1
    94     2     1    1
    95    84    83    2
    96    30    31    1
    97    64    63    1
    98    46    43    1
    99     5     6    1
   100    31    32    1
   101    82    83    1
   102    82    81    1
   103    65    63    1
   104    33    32    2
   105    63    62    1
   106    43    44    1
   107    43    42    1
   108     8     6    1
   109    81    75   am
   110     6     7    1
   111    62    59    1
   112    44    45    2
   113    69    68    2
   114    70    71    1
   115    70    72    1
   116    70    67    1
   117    75    76    2
   118    75    74    1
   119    41    38    1
   120    68    67    1
   121    68    73   am
   122    59    60    1
   123    59    58    1
   124    66    67    1
   125    66    60   am
   126    60    61    2
   127    74    73    1
   128    74    77    1
   129    79    78    1
   130    38    39    1
   131    38    37    1
   132    40    39    2
   133    78    77    1
   134    78    80    1
