@<TRIPOS>MOLECULE
tmp/3nyrA01.pdb
 175 164 0 0 0
SMALL
GASTEIGER

@<TRIPOS>ATOM
      1  N         26.8690    7.0260   53.7740 N.3   137  THR137     -0.1218
      2  CA        26.5890    6.7070   55.1850 C.3   137  THR137      0.1862
      3  C         27.3110    7.7580   56.0350 C.2   137  THR137      0.2287
      4  O         28.4300    8.1530   55.7450 O.2   137  THR137     -0.2866
      5  CB        27.0860    5.2570   55.5330 C.3   137  THR137      0.1770
      6  OG1       26.8160    4.9370   56.8950 O.3   137  THR137     -0.2211
      7  CG2       28.5440    5.0050   55.1970 C.3   137  THR137      0.0375
      8  N         19.1530    3.1910   51.3280 N.3   181  HIS181     -0.1226
      9  CA        20.0020    2.4980   52.2930 C.3   181  HIS181      0.1752
     10  C         19.9020    0.9620   52.0960 C.2   181  HIS181      0.2595
     11  O         19.0390    0.4910   51.4970 O.2   181  HIS181     -0.2718
     12  CB        19.6780    2.8930   53.7690 C.3   181  HIS181      0.0759
     13  CG        20.3010    4.1770   54.1610 C.ar  181  HIS181      0.0818
     14  ND1       19.6070    5.3420   54.3970 N.ar  181  HIS181     -0.2268
     15  CD2       21.5920    4.4810   54.2710 C.ar  181  HIS181      0.1154
     16  CE1       20.4650    6.3000   54.6660 C.ar  181  HIS181      0.1986
     17  NE2       21.6750    5.8020   54.5750 N.ar  181  HIS181     -0.2212
     18  N         20.8240    0.2150   52.6630 N.am  182  VAL182     -0.1980
     19  CA        20.9730   -1.1920   52.3310 C.3   182  VAL182      0.1595
     20  C         19.8100   -2.0330   52.8390 C.2   182  VAL182      0.2287
     21  O         19.4810   -3.0450   52.2180 O.2   182  VAL182     -0.2864
     22  CB        22.3420   -1.7980   52.7560 C.3   182  VAL182      0.0276
     23  CG1       23.5000   -1.1130   52.0320 C.3   182  VAL182      0.0022
     24  CG2       22.5740   -1.7710   54.2640 C.3   182  VAL182      0.0022
     25  N         15.7400   -4.7970   62.0370 N.3   254  GLY254     -0.1210
     26  CA        17.1610   -4.4850   62.0010 C.3   254  GLY254      0.1956
     27  C         17.3650   -2.9920   61.9030 C.2   254  GLY254      0.2613
     28  O         16.3970   -2.2320   61.9300 O.2   254  GLY254     -0.2717
     29  N         18.6370   -2.6040   61.7990 N.am  255  SER255     -0.1938
     30  CA        19.1190   -1.2250   61.6760 C.3   255  SER255      0.2055
     31  C         19.3210   -0.5230   63.0010 C.2   255  SER255      0.2643
     32  O         20.0000    0.5120   63.0500 O.2   255  SER255     -0.2714
     33  CB        18.2330   -0.3670   60.7760 C.3   255  SER255      0.2130
     34  OG        18.0460   -0.9720   59.4980 O.3   255  SER255     -0.2179
     35  N         18.7360   -1.0830   64.0590 N.am  256  ALA256     -0.1963
     36  CA        18.8140   -0.5380   65.4260 C.3   256  ALA256      0.1728
     37  C         18.2370   -1.6300   66.3100 C.2   256  ALA256      0.2616
     38  O         17.6490   -2.5880   65.8150 O.2   256  ALA256     -0.2715
     39  CB        18.0050    0.7740   65.5720 C.3   256  ALA256      0.0334
     40  N         18.4510   -1.4990   67.6120 N.am  257  ALA257     -0.1977
     41  CA        17.9660   -2.5230   68.5450 C.3   257  ALA257      0.1597
     42  C         16.4600   -2.4290   68.7380 C.2   257  ALA257      0.2287
     43  O         15.8920   -1.3370   68.8590 O.2   257  ALA257     -0.2864
     44  CB        18.6220   -2.2820   69.9150 C.3   257  ALA257      0.0319
     45  N         15.8340  -10.6020   65.1010 N.3   276  GLU276     -0.1231
     46  CA        16.7230   -9.4570   64.8440 C.3   276  GLU276      0.1699
     47  C         18.0030   -9.8930   64.1540 C.2   276  GLU276      0.2592
     48  O         18.5600  -10.9720   64.4080 O.2   276  GLU276     -0.2718
     49  CB        17.1090   -8.7470   66.1410 C.3   276  GLU276      0.0402
     50  CG        15.9280   -8.0880   66.8240 C.3   276  GLU276      0.1161
     51  CD        16.3680   -7.1310   67.9260 C.2   276  GLU276      0.3649
     52  OE1       16.2740   -7.5290   69.1150 O.co2 276  GLU276     -0.2457
     53  OE2       16.9200   -6.0500   67.6140 O.co2 276  GLU276     -0.2457
     54  N         18.4560   -9.0680   63.2190 N.am  277  ARG277     -0.1966
     55  CA        19.7290   -9.3000   62.5770 C.3   277  ARG277      0.1729
     56  C         20.5230   -8.0110   62.6750 C.2   277  ARG277      0.2616
     57  O         19.9410   -6.9140   62.7210 O.2   277  ARG277     -0.2715
     58  CB        19.5610   -9.7430   61.1020 C.3   277  ARG277      0.0348
     59  CG        19.4630   -8.6290   60.0280 C.3   277  ARG277      0.0492
     60  CD        18.1890   -7.8280   60.1750 C.3   277  ARG277      0.2205
     61  NE        18.0800   -6.7840   59.1330 N.pl3 277  ARG277     -0.0865
     62  CZ        18.8780   -5.7270   59.0190 C.cat 277  ARG277      0.5346
     63  NH1       19.7510   -5.4320   59.9610 N.pl3 277  ARG277      0.1354
     64  NH2       18.7050   -4.8550   58.0070 N.pl3 277  ARG277      0.1354
     65  N         21.8380   -8.1800   62.6880 N.am  278  TYR278     -0.1960
     66  CA        22.7690   -7.0760   62.8890 C.3   278  TYR278      0.1771
     67  C         23.6410   -6.9150   61.6560 C.2   278  TYR278      0.2620
     68  O         24.2790   -7.8740   61.1640 O.2   278  TYR278     -0.2715
     69  CB        23.6560   -7.4110   64.0940 C.3   278  TYR278      0.0574
     70  CG        24.9410   -6.6540   64.1980 C.ar  278  TYR278     -0.0198
     71  CD1       24.9330   -5.2670   64.3290 C.ar  278  TYR278     -0.0009
     72  CD2       26.1620   -7.3100   64.0910 C.ar  278  TYR278     -0.0009
     73  CE1       26.1530   -4.5560   64.4350 C.ar  278  TYR278      0.0417
     74  CE2       27.3540   -6.6290   64.2080 C.ar  278  TYR278      0.0417
     75  CZ        27.3390   -5.2700   64.4170 C.ar  278  TYR278      0.1957
     76  OH        28.5380   -4.6130   64.5990 O.3   278  TYR278     -0.2866
     77  N         23.6480   -5.6960   61.1290 N.am  279  GLY279     -0.1940
     78  CA        24.4450   -5.4010   59.9530 C.3   279  GLY279      0.2014
     79  C         24.7520   -3.9230   59.9380 C.2   279  GLY279      0.2639
     80  O         24.3290   -3.1780   60.8230 O.2   279  GLY279     -0.2714
     81  N         25.4820   -3.5150   58.8990 N.am  280  MET280     -0.1963
     82  CA        25.9490   -2.1450   58.7190 C.3   280  MET280      0.1736
     83  C         26.1020   -1.9800   57.2210 C.2   280  MET280      0.2617
     84  O         26.3310   -2.9620   56.5190 O.2   280  MET280     -0.2715
     85  CB        27.3590   -1.9660   59.3480 C.3   280  MET280      0.0427
     86  CG        27.5940   -2.6730   60.6880 C.3   280  MET280      0.0599
     87  SD        29.2420   -2.2500   61.2950 S.3   280  MET280     -0.1393
     88  CE        29.2460   -0.5040   60.9990 C.3   280  MET280      0.0692
     89  N         26.1610   -0.7410   56.7560 N.am  281  THR281     -0.1937
     90  CA        26.4090   -0.4790   55.3410 C.3   281  THR281      0.2028
     91  C         27.7300   -1.0970   54.8730 C.2   281  THR281      0.2642
     92  O         27.7810   -1.7860   53.8530 O.2   281  THR281     -0.2714
     93  CB        26.4110    1.0180   55.1050 C.3   281  THR281      0.1808
     94  OG1       25.1210    1.5250   55.4860 O.3   281  THR281     -0.2208
     95  CG2       26.6430    1.3390   53.6160 C.3   281  THR281      0.0379
     96  N         28.7870   -0.9300   55.6700 N.am  282  GLU282     -0.1976
     97  CA        30.1180   -1.3690   55.2770 C.3   282  GLU282      0.1602
     98  C         30.2800   -2.8810   55.3100 C.2   282  GLU282      0.2287
     99  O         31.2560   -3.4150   54.7660 O.2   282  GLU282     -0.2864
    100  CB        31.1810   -0.7570   56.2010 C.3   282  GLU282      0.0415
    101  CG        31.2860    0.7520   56.1170 C.3   282  GLU282      0.1163
    102  CD        30.4960    1.4710   57.1940 C.2   282  GLU282      0.3649
    103  OE1       29.3770    1.0210   57.5530 O.co2 282  GLU282     -0.2457
    104  OE2       30.9120    2.6020   57.5300 O.co2 282  GLU282     -0.2457
    105  N         21.0820  -10.4910   68.7430 N.3   300  VAL300     -0.1245
    106  CA        21.1580  -10.5460   67.2880 C.3   300  VAL300      0.1561
    107  C         21.7110  -11.8860   66.7840 C.2   300  VAL300      0.2260
    108  O         22.1870  -12.0210   65.6500 O.2   300  VAL300     -0.2867
    109  CB        21.9660   -9.3550   66.7440 C.3   300  VAL300      0.0252
    110  CG1       21.1910   -8.0750   66.9960 C.3   300  VAL300      0.0019
    111  CG2       23.3270   -9.3170   67.3900 C.3   300  VAL300      0.0019
    112  N         33.8790   -2.5500   63.9460 N.3   355  THR355     -0.1218
    113  CA        32.5030   -2.0870   63.8850 C.3   355  THR355      0.1862
    114  C         32.2390   -0.9310   64.8400 C.2   355  THR355      0.2287
    115  O         31.2480   -0.2070   64.6880 O.2   355  THR355     -0.2866
    116  CB        31.4950   -3.2100   64.2230 C.3   355  THR355      0.1770
    117  OG1       31.6530   -3.5970   65.5990 O.3   355  THR355     -0.2211
    118  CG2       31.7000   -4.4010   63.3160 C.3   355  THR355      0.0375
    119  N         31.0040   -1.4810   67.5830 N.3   357  ASP357     -0.1239
    120  CA        29.8710   -1.9640   68.3820 C.3   357  ASP357      0.1674
    121  C         30.3560   -2.8790   69.4800 C.2   357  ASP357      0.2266
    122  O         31.1970   -3.7550   69.2810 O.2   357  ASP357     -0.2867
    123  CB        28.8070   -2.6870   67.5470 C.3   357  ASP357      0.1410
    124  CG        28.1320   -1.7830   66.5370 C.2   357  ASP357      0.3668
    125  OD1       27.5380   -0.7520   66.9350 O.co2 357  ASP357     -0.2456
    126  OD2       28.0480   -2.1590   65.3480 O.co2 357  ASP357     -0.2456
    127  N         24.3210   -7.0180   71.6150 N.3   369  ILE369     -0.1245
    128  CA        24.9780   -5.7150   71.4990 C.3   369  ILE369      0.1561
    129  C         24.5860   -4.8790   72.7260 C.2   369  ILE369      0.2260
    130  O         23.4010   -4.7300   73.0480 O.2   369  ILE369     -0.2867
    131  CB        24.5420   -5.0310   70.1850 C.3   369  ILE369      0.0252
    132  CG1       25.0900   -5.8130   68.9910 C.3   369  ILE369      0.0019
    133  CG2       24.9960   -3.5510   70.1500 C.3   369  ILE369      0.0019
    134  CD1       24.5120   -5.4160   67.6750 C.3   369  ILE369      0.0001
    135  N         29.1370    0.4310   72.8410 N.3   372  ARG372     -0.1245
    136  CA        30.1180    0.9950   71.8990 C.3   372  ARG372      0.1563
    137  C         31.5230    1.1270   72.5020 C.2   372  ARG372      0.2260
    138  O         31.6610    1.4560   73.6870 O.2   372  ARG372     -0.2867
    139  CB        29.6730    2.3940   71.4660 C.3   372  ARG372      0.0307
    140  CG        28.3180    2.3910   70.7880 C.3   372  ARG372      0.0489
    141  CD        28.4700    1.9730   69.3500 C.3   372  ARG372      0.2205
    142  NE        29.4600    2.8270   68.7090 N.pl3 372  ARG372     -0.0865
    143  CZ        29.9920    2.5990   67.5170 C.cat 372  ARG372      0.5346
    144  NH1       30.8720    3.4550   67.0370 N.pl3 372  ARG372      0.1354
    145  NH2       29.7170    1.4800   66.8290 N.pl3 372  ARG372      0.1354
    146  N         27.1710    6.4580   68.6360 N.3   377  LEU377     -0.1245
    147  CA        26.5180    7.0030   67.4380 C.3   377  LEU377      0.1561
    148  C         25.0310    7.3450   67.6930 C.2   377  LEU377      0.2260
    149  O         24.4720    6.9530   68.7170 O.2   377  LEU377     -0.2867
    150  CB        26.6410    6.0260   66.2680 C.3   377  LEU377      0.0270
    151  CG        27.7020    4.9320   66.4060 C.3   377  LEU377      0.0019
    152  CD1       29.0730    5.4600   66.0140 C.3   377  LEU377      0.0001
    153  CD2       27.7220    4.3780   67.8230 C.3   377  LEU377      0.0001
    154  N         21.1920    6.9120   66.4050 N.3   379  LYS379     -0.1245
    155  CA        20.2900    6.1720   65.5260 C.3   379  LYS379      0.1561
    156  C         18.8820    6.6510   65.7720 C.2   379  LYS379      0.2260
    157  O         18.3460    6.5320   66.8810 O.2   379  LYS379     -0.2867
    158  CB        20.4050    4.6670   65.7840 C.3   379  LYS379      0.0271
    159  CG        21.5520    4.0370   64.9990 C.3   379  LYS379      0.0035
    160  CD        20.9710    3.6110   63.6460 C.3   379  LYS379      0.0206
    161  CE        22.0110    2.9650   62.7400 C.3   379  LYS379      0.1093
    162  NZ        21.2470    2.4460   61.5590 N.3   379  LYS379     -0.1314
    163  N         16.1530    4.3400   62.9750 N.3   382  GLY382     -0.1225
    164  CA        17.0090    3.3990   62.2780 C.3   382  GLY382      0.1811
    165  C         17.9050    4.0230   61.2130 C.2   382  GLY382      0.2280
    166  O         18.7330    3.3270   60.6150 O.2   382  GLY382     -0.2866
    167  N         21.2990    6.1150   60.6800 N.3   384  LYS384     -0.1245
    168  CA        22.5020    6.5360   61.3750 C.3   384  LYS384      0.1561
    169  C         22.7660    8.0160   61.0870 C.2   384  LYS384      0.2260
    170  O         22.8690    8.4580   59.9200 O.2   384  LYS384     -0.2867
    171  CB        23.7080    5.7460   60.8860 C.3   384  LYS384      0.0271
    172  CG        24.9440    6.0160   61.7280 C.3   384  LYS384      0.0035
    173  CD        26.1070    5.1990   61.2110 C.3   384  LYS384      0.0206
    174  CE        26.4060    5.6320   59.7890 C.3   384  LYS384      0.1093
    175  NZ        27.6860    5.0790   59.2710 N.3   384  LYS384     -0.1314
@<TRIPOS>BOND
     1     8     9    1
     2    11    10    2
     3    23    22    1
     4    10     9    1
     5    10    18   am
     6    21    20    2
     7     9    12    1
     8    19    18    1
     9    19    22    1
    10    19    20    1
    11    22    24    1
    12    95    93    1
    13    12    13    1
    14     1     2    1
    15    92    91    2
    16    13    15   ar
    17    13    14   ar
    18    15    17   ar
    19    14    16   ar
    20    17    16   ar
    21    99    98    2
    22    91    90    1
    23    91    96   am
    24    93    90    1
    25    93    94    1
    26     2     5    1
    27     2     3    1
    28     7     5    1
    29    97    98    1
    30    97    96    1
    31    97   100    1
    32    90    89    1
    33     5     6    1
    34     4     3    2
    35   101   100    1
    36   101   102    1
    37    84    83    2
    38    89    83   am
    39   102   104   ar
    40   102   103   ar
    41    83    82    1
    42    64    62    1
    43    82    81    1
    44    82    85    1
    45    81    79   am
    46    62    61    2
    47    62    63    1
    48    61    60    1
    49   175   174    1
    50    85    86    1
    51    34    33    1
    52   174   173    1
    53   170   169    2
    54    79    78    1
    55    79    80    2
    56    78    77    1
    57    59    60    1
    58    59    58    1
    59   166   165    2
    60   167   168    1
    61    86    87    1
    62    33    30    1
    63   171   168    1
    64   171   172    1
    65    88    87    1
    66   169   168    1
    67    58    55    1
    68    77    67   am
    69    68    67    2
    70   173   172    1
    71   165   164    1
    72   162   161    1
    73    67    66    1
    74    30    29    1
    75    30    31    1
    76    29    27   am
    77    27    28    2
    78    27    26    1
    79    26    25    1
    80   164   163    1
    81    55    56    1
    82    55    54    1
    83    56    65   am
    84    56    57    2
    85    65    66    1
    86   161   160    1
    87    66    69    1
    88    31    32    2
    89    31    35   am
    90    54    47   am
    91   118   116    1
    92   160   159    1
    93   113   112    1
    94   113   116    1
    95   113   114    1
    96    35    36    1
    97    72    70   ar
    98    72    74   ar
    99    69    70    1
   100    47    48    2
   101    47    46    1
   102    70    71   ar
   103    74    75   ar
   104   116   117    1
   105    71    73   ar
   106    75    73   ar
   107    75    76    1
   108   115   114    2
   109    46    45    1
   110    46    49    1
   111   159   158    1
   112   126   124   ar
   113    36    39    1
   114    36    37    1
   115   155   156    1
   116   155   158    1
   117   155   154    1
   118   108   107    2
   119   156   157    2
   120    38    37    2
   121   152   151    1
   122    49    50    1
   123   150   151    1
   124   150   147    1
   125    37    40   am
   126   151   153    1
   127   124   125   ar
   128   124   123    1
   129   109   110    1
   130   109   106    1
   131   109   111    1
   132   107   106    1
   133    50    51    1
   134   145   143    1
   135   144   143    1
   136   106   105    1
   137   147   148    1
   138   147   146    1
   139   143   142    2
   140   123   120    1
   141   119   120    1
   142    40    41    1
   143    53    51   ar
   144   134   132    1
   145   148   149    2
   146    51    52   ar
   147   120   121    1
   148    41    42    1
   149    41    44    1
   150   142   141    1
   151    42    43    2
   152   132   131    1
   153   122   121    2
   154   141   140    1
   155   133   131    1
   156   131   128    1
   157   140   139    1
   158   139   136    1
   159   128   127    1
   160   128   129    1
   161   136   137    1
   162   136   135    1
   163   137   138    2
   164   129   130    2
