@<TRIPOS>MOLECULE
tmp/3nyrA00.pdb
 218 209 0 0 0
SMALL
GASTEIGER

@<TRIPOS>ATOM
      1  N          8.2300   -1.2610   53.8720 N.3   176  GLY176     -0.1210
      2  CA         8.0730    0.1420   53.5170 C.3   176  GLY176      0.1956
      3  C          9.2900    0.9580   53.8820 C.2   176  GLY176      0.2612
      4  O          9.1490    2.0530   54.4400 O.2   176  GLY176     -0.2717
      5  N         10.4760    0.4580   53.5550 N.am  177  LEU177     -0.1966
      6  CA        11.7330    1.1090   53.9220 C.3   177  LEU177      0.1713
      7  C         12.2550    2.0030   52.8080 C.2   177  LEU177      0.2458
      8  O         12.0460    1.7100   51.6250 O.2   177  LEU177     -0.2730
      9  CB        12.7600    0.0430   54.2510 C.3   177  LEU177      0.0310
     10  CG        12.4250   -0.7500   55.5130 C.3   177  LEU177      0.0022
     11  CD1       13.1000   -2.1260   55.3870 C.3   177  LEU177      0.0001
     12  CD2       12.9680   -0.0090   56.7640 C.3   177  LEU177      0.0001
     13  N         13.0590    3.0150   53.1630 N.am  178  PRO178     -0.2727
     14  CA        13.6840    3.8470   52.1200 C.3   178  PRO178      0.1402
     15  C         14.6110    3.0100   51.2550 C.2   178  PRO178      0.2269
     16  O         15.3340    2.1130   51.7250 O.2   178  PRO178     -0.2865
     17  CB        14.4660    4.9220   52.8990 C.3   178  PRO178      0.0296
     18  CG        14.3990    4.5260   54.3390 C.3   178  PRO178      0.0237
     19  CD        13.3370    3.4460   54.5390 C.3   178  PRO178      0.0939
     20  N         19.1530    3.1910   51.3280 N.3   181  HIS181     -0.1226
     21  CA        20.0020    2.4980   52.2930 C.3   181  HIS181      0.1752
     22  C         19.9020    0.9620   52.0960 C.2   181  HIS181      0.2596
     23  O         19.0390    0.4910   51.4970 O.2   181  HIS181     -0.2718
     24  CB        19.6780    2.8930   53.7690 C.3   181  HIS181      0.0759
     25  CG        20.3010    4.1770   54.1610 C.ar  181  HIS181      0.0818
     26  ND1       19.6070    5.3420   54.3970 N.ar  181  HIS181     -0.2268
     27  CD2       21.5920    4.4810   54.2710 C.ar  181  HIS181      0.1154
     28  CE1       20.4650    6.3000   54.6660 C.ar  181  HIS181      0.1986
     29  NE2       21.6750    5.8020   54.5750 N.ar  181  HIS181     -0.2212
     30  N         20.8240    0.2150   52.6630 N.am  182  VAL182     -0.1966
     31  CA        20.9730   -1.1920   52.3310 C.3   182  VAL182      0.1727
     32  C         19.8100   -2.0330   52.8390 C.2   182  VAL182      0.2616
     33  O         19.4810   -3.0450   52.2180 O.2   182  VAL182     -0.2715
     34  CB        22.3420   -1.7980   52.7560 C.3   182  VAL182      0.0290
     35  CG1       23.5000   -1.1130   52.0320 C.3   182  VAL182      0.0023
     36  CG2       22.5740   -1.7710   54.2640 C.3   182  VAL182      0.0023
     37  N         19.2170   -1.6580   53.9730 N.am  183  HIS183     -0.1973
     38  CA        18.0550   -2.3880   54.4940 C.3   183  HIS183      0.1656
     39  C         16.9120   -2.4750   53.4550 C.2   183  HIS183      0.2291
     40  O         16.5250   -3.5130   53.0560 O.2   183  HIS183     -0.2864
     41  CB        17.5430   -1.8180   55.8340 C.3   183  HIS183      0.0771
     42  CG        16.6390   -2.7560   56.5900 C.ar  183  HIS183      0.0820
     43  ND1       16.2570   -2.5300   57.8870 N.ar  183  HIS183     -0.2267
     44  CD2       16.0690   -3.9330   56.2340 C.ar  183  HIS183      0.1154
     45  CE1       15.5110   -3.5350   58.3020 C.ar  183  HIS183      0.1986
     46  NE2       15.3820   -4.3970   57.3210 N.ar  183  HIS183     -0.2212
     47  N          5.4590    3.4420   54.8920 N.3   205  PHE205     -0.1241
     48  CA         5.0690    2.4050   55.8400 C.3   205  PHE205      0.1605
     49  C          3.7950    2.8220   56.5850 C.2   205  PHE205      0.2264
     50  O          3.6410    3.9780   56.9630 O.2   205  PHE205     -0.2867
     51  CB         6.1890    2.1970   56.8810 C.3   205  PHE205      0.0534
     52  CG         5.8160    1.2220   57.9580 C.ar  205  PHE205     -0.0203
     53  CD1        5.8970   -0.1440   57.7340 C.ar  205  PHE205     -0.0042
     54  CD2        5.3030    1.6720   59.1730 C.ar  205  PHE205     -0.0042
     55  CE1        5.4680   -1.0770   58.6940 C.ar  205  PHE205     -0.0003
     56  CE2        4.8060    0.7530   60.1040 C.ar  205  PHE205     -0.0003
     57  CZ         4.9530   -0.6130   59.9030 C.ar  205  PHE205     -0.0000
     58  N         12.3700   -1.5140   60.5890 N.3   224  VAL224     -0.1245
     59  CA        13.1910   -1.0070   61.7030 C.3   224  VAL224      0.1561
     60  C         12.3830   -0.9850   62.9980 C.2   224  VAL224      0.2260
     61  O         11.1380   -1.0580   62.9750 O.2   224  VAL224     -0.2867
     62  CB        13.7620    0.4100   61.3850 C.3   224  VAL224      0.0252
     63  CG1       14.7110    0.3660   60.1840 C.3   224  VAL224      0.0019
     64  CG2       12.6740    1.4460   61.1210 C.3   224  VAL224      0.0019
     65  N         11.3510    1.3230   64.9490 N.3   226  THR226     -0.1203
     66  CA        10.2590    2.2890   65.0230 C.3   226  THR226      0.1994
     67  C          8.9640    1.7230   64.4540 C.2   226  THR226      0.2617
     68  O          7.8940    1.9990   64.9800 O.2   226  THR226     -0.2717
     69  CB        10.6480    3.5580   64.2540 C.3   226  THR226      0.1784
     70  OG1       11.7790    4.1470   64.9190 O.3   226  THR226     -0.2211
     71  CG2        9.4690    4.5550   64.2010 C.3   226  THR226      0.0376
     72  N          9.0690    0.9530   63.3620 N.am  227  MET227     -0.1979
     73  CA         7.8770    0.3770   62.7450 C.3   227  MET227      0.1605
     74  C          7.2850   -0.6900   63.6480 C.2   227  MET227      0.2287
     75  O          6.0610   -0.7410   63.7920 O.2   227  MET227     -0.2864
     76  CB         8.2760   -0.2290   61.4020 C.3   227  MET227      0.0413
     77  CG         8.7270    0.8390   60.3940 C.3   227  MET227      0.0598
     78  SD         9.5650    0.1280   58.9670 S.3   227  MET227     -0.1393
     79  CE         9.8190    1.5990   57.9770 C.3   227  MET227      0.0692
     80  N          5.4370    1.0500   66.4560 N.3   230  ARG230     -0.1245
     81  CA         4.1150    1.5290   66.0470 C.3   230  ARG230      0.1563
     82  C          3.1600    0.3570   65.9020 C.2   230  ARG230      0.2260
     83  O          1.9810    0.4900   66.2520 O.2   230  ARG230     -0.2867
     84  CB         4.2390    2.3340   64.7580 C.3   230  ARG230      0.0307
     85  CG         4.9610    3.6590   65.0280 C.3   230  ARG230      0.0489
     86  CD         5.3450    4.3910   63.7560 C.3   230  ARG230      0.2205
     87  NE         6.1360    5.5690   64.1230 N.pl3 230  ARG230     -0.0865
     88  CZ         6.5480    6.4740   63.2440 C.cat 230  ARG230      0.5346
     89  NH1        6.1640    6.3870   61.9750 N.pl3 230  ARG230      0.1354
     90  NH2        7.2910    7.4950   63.6640 N.pl3 230  ARG230      0.1354
     91  N         18.6370   -2.6040   61.7990 N.3   255  SER255     -0.1217
     92  CA        19.1190   -1.2250   61.6760 C.3   255  SER255      0.1889
     93  C         19.3210   -0.5230   63.0010 C.2   255  SER255      0.2288
     94  O         20.0000    0.5120   63.0500 O.2   255  SER255     -0.2866
     95  CB        18.2330   -0.3670   60.7760 C.3   255  SER255      0.2089
     96  OG        18.0460   -0.9720   59.4980 O.3   255  SER255     -0.2183
     97  N         18.4560   -9.0680   63.2190 N.3   277  ARG277     -0.1245
     98  CA        19.7290   -9.3000   62.5770 C.3   277  ARG277      0.1563
     99  C         20.5230   -8.0110   62.6750 C.2   277  ARG277      0.2260
    100  O         19.9410   -6.9140   62.7210 O.2   277  ARG277     -0.2867
    101  CB        19.5610   -9.7430   61.1020 C.3   277  ARG277      0.0307
    102  CG        19.4630   -8.6290   60.0280 C.3   277  ARG277      0.0489
    103  CD        18.1890   -7.8280   60.1750 C.3   277  ARG277      0.2205
    104  NE        18.0800   -6.7840   59.1330 N.pl3 277  ARG277     -0.0865
    105  CZ        18.8780   -5.7270   59.0190 C.cat 277  ARG277      0.5346
    106  NH1       19.7510   -5.4320   59.9610 N.pl3 277  ARG277      0.1354
    107  NH2       18.7050   -4.8550   58.0070 N.pl3 277  ARG277      0.1354
    108  N         23.6480   -5.6960   61.1290 N.3   279  GLY279     -0.1210
    109  CA        24.4450   -5.4010   59.9530 C.3   279  GLY279      0.1956
    110  C         24.7520   -3.9230   59.9380 C.2   279  GLY279      0.2612
    111  O         24.3290   -3.1780   60.8230 O.2   279  GLY279     -0.2717
    112  N         25.4820   -3.5150   58.8990 N.am  280  MET280     -0.1965
    113  CA        25.9490   -2.1450   58.7190 C.3   280  MET280      0.1736
    114  C         26.1020   -1.9800   57.2210 C.2   280  MET280      0.2617
    115  O         26.3310   -2.9620   56.5190 O.2   280  MET280     -0.2715
    116  CB        27.3590   -1.9660   59.3480 C.3   280  MET280      0.0427
    117  CG        27.5940   -2.6730   60.6880 C.3   280  MET280      0.0599
    118  SD        29.2420   -2.2500   61.2950 S.3   280  MET280     -0.1393
    119  CE        29.2460   -0.5040   60.9990 C.3   280  MET280      0.0692
    120  N         26.1610   -0.7410   56.7560 N.am  281  THR281     -0.1951
    121  CA        26.4090   -0.4790   55.3410 C.3   281  THR281      0.1897
    122  C         27.7300   -1.0970   54.8730 C.2   281  THR281      0.2313
    123  O         27.7810   -1.7860   53.8530 O.2   281  THR281     -0.2863
    124  CB        26.4110    1.0180   55.1050 C.3   281  THR281      0.1794
    125  OG1       25.1210    1.5250   55.4860 O.3   281  THR281     -0.2208
    126  CG2       26.6430    1.3390   53.6160 C.3   281  THR281      0.0378
    127  N         25.2050   -7.7620   56.1650 N.3   285  MET285     -0.1245
    128  CA        24.6910   -8.4490   57.3670 C.3   285  MET285      0.1570
    129  C         25.7690   -9.3050   57.9940 C.2   285  MET285      0.2261
    130  O         26.4700  -10.0430   57.2880 O.2   285  MET285     -0.2867
    131  CB        23.4400   -9.2740   57.0530 C.3   285  MET285      0.0387
    132  CG        22.2990   -8.3860   56.4990 C.3   285  MET285      0.0595
    133  SD        21.8440   -6.9700   57.5670 S.3   285  MET285     -0.1393
    134  CE        22.3880   -5.5930   56.5390 C.3   285  MET285      0.0692
    135  N         21.1920    6.9120   66.4050 N.3   379  LYS379     -0.1231
    136  CA        20.2900    6.1720   65.5260 C.3   379  LYS379      0.1693
    137  C         18.8820    6.6510   65.7720 C.2   379  LYS379      0.2593
    138  O         18.3460    6.5320   66.8810 O.2   379  LYS379     -0.2718
    139  CB        20.4050    4.6670   65.7840 C.3   379  LYS379      0.0285
    140  CG        21.5520    4.0370   64.9990 C.3   379  LYS379      0.0035
    141  CD        20.9710    3.6110   63.6460 C.3   379  LYS379      0.0206
    142  CE        22.0110    2.9650   62.7400 C.3   379  LYS379      0.1093
    143  NZ        21.2470    2.4460   61.5590 N.3   379  LYS379     -0.1314
    144  N         18.3030    7.3010   64.7750 N.am  380  SER380     -0.1938
    145  CA        16.9850    7.8600   64.8680 C.3   380  SER380      0.2055
    146  C         16.1180    7.2540   63.7700 C.2   380  SER380      0.2644
    147  O         16.3510    7.5080   62.5810 O.2   380  SER380     -0.2714
    148  CB        17.0900    9.4010   64.7370 C.3   380  SER380      0.2130
    149  OG        15.8350    9.9950   65.0140 O.3   380  SER380     -0.2179
    150  N         15.0580    6.5420   64.1570 N.am  381  GLY381     -0.1939
    151  CA        14.2400    5.8390   63.1770 C.3   381  GLY381      0.2014
    152  C         15.0200    4.7830   62.4410 C.2   381  GLY381      0.2639
    153  O         14.6320    4.3830   61.3480 O.2   381  GLY381     -0.2714
    154  N         16.1530    4.3400   62.9750 N.am  382  GLY382     -0.1939
    155  CA        17.0090    3.3990   62.2780 C.3   382  GLY382      0.2014
    156  C         17.9050    4.0230   61.2130 C.2   382  GLY382      0.2639
    157  O         18.7330    3.3270   60.6150 O.2   382  GLY382     -0.2714
    158  N         17.8760    5.3550   61.1080 N.am  383  TYR383     -0.1959
    159  CA        18.8800    6.0800   60.3200 C.3   383  TYR383      0.1771
    160  C         20.0950    6.3700   61.1880 C.2   383  TYR383      0.2619
    161  O         19.9310    6.7360   62.3620 O.2   383  TYR383     -0.2715
    162  CB        18.3450    7.4260   59.8430 C.3   383  TYR383      0.0574
    163  CG        17.3080    7.3680   58.7520 C.ar  383  TYR383     -0.0198
    164  CD1       17.6880    7.1370   57.4350 C.ar  383  TYR383     -0.0009
    165  CD2       15.9800    7.6880   58.9900 C.ar  383  TYR383     -0.0009
    166  CE1       16.7820    7.2430   56.3910 C.ar  383  TYR383      0.0417
    167  CE2       15.0740    7.8170   57.9640 C.ar  383  TYR383      0.0417
    168  CZ        15.4760    7.5690   56.6620 C.ar  383  TYR383      0.1957
    169  OH        14.5730    7.7290   55.6350 O.3   383  TYR383     -0.2866
    170  N         21.2990    6.1150   60.6800 N.am  384  LYS384     -0.1977
    171  CA        22.5020    6.5360   61.3750 C.3   384  LYS384      0.1596
    172  C         22.7660    8.0160   61.0870 C.2   384  LYS384      0.2287
    173  O         22.8690    8.4580   59.9200 O.2   384  LYS384     -0.2864
    174  CB        23.7080    5.7460   60.8860 C.3   384  LYS384      0.0298
    175  CG        24.9440    6.0160   61.7280 C.3   384  LYS384      0.0038
    176  CD        26.1070    5.1990   61.2110 C.3   384  LYS384      0.0206
    177  CE        26.4060    5.6320   59.7890 C.3   384  LYS384      0.1093
    178  NZ        27.6860    5.0790   59.2710 N.3   384  LYS384     -0.1314
    179  N         11.4380    6.7830   68.1440 N.3   413  LEU413     -0.1245
    180  CA        12.5860    6.8620   67.2390 C.3   413  LEU413      0.1561
    181  C         13.8350    6.1420   67.6910 C.2   413  LEU413      0.2260
    182  O         14.7930    6.0240   66.9180 O.2   413  LEU413     -0.2867
    183  CB        12.9390    8.3160   66.9410 C.3   413  LEU413      0.0270
    184  CG        11.8290    9.1290   66.2830 C.3   413  LEU413      0.0019
    185  CD1       12.2280   10.5940   66.2320 C.3   413  LEU413      0.0001
    186  CD2       11.6680    8.6300   64.8540 C.3   413  LEU413      0.0001
    187  N         15.1730   13.7940   57.7900 N.3   446  HIS446     -0.1241
    188  CA        15.3560   12.8290   58.8730 C.3   446  HIS446      0.1621
    189  C         16.5070   13.2100   59.7940 C.2   446  HIS446      0.2264
    190  O         16.6370   12.6760   60.9040 O.2   446  HIS446     -0.2867
    191  CB        15.4920   11.3770   58.3910 C.3   446  HIS446      0.0745
    192  CG        16.8230   11.0500   57.7930 C.ar  446  HIS446      0.0817
    193  ND1       17.0700   11.1380   56.4380 N.ar  446  HIS446     -0.2268
    194  CD2       17.9700   10.5970   58.3590 C.ar  446  HIS446      0.1154
    195  CE1       18.3160   10.7640   56.2100 C.ar  446  HIS446      0.1986
    196  NE2       18.8740   10.3970   57.3480 N.ar  446  HIS446     -0.2212
    197  N         16.9510   16.3720   60.8870 N.3   448  ARG448     -0.1245
    198  CA        16.6360   17.6470   61.5650 C.3   448  ARG448      0.1563
    199  C         16.6640   17.4420   63.0890 C.2   448  ARG448      0.2260
    200  O         16.1950   16.4260   63.6050 O.2   448  ARG448     -0.2867
    201  CB        15.3050   18.2130   61.0850 C.3   448  ARG448      0.0307
    202  CG        14.1130   17.4800   61.6690 C.3   448  ARG448      0.0489
    203  CD        12.8600   17.8510   60.8770 C.3   448  ARG448      0.2205
    204  NE        11.6550   17.2500   61.4320 N.pl3 448  ARG448     -0.0865
    205  CZ        11.2020   16.0240   61.1570 C.cat 448  ARG448      0.5346
    206  NH1       10.0530   15.5970   61.6590 N.pl3 448  ARG448      0.1354
    207  NH2       11.8400   15.2090   60.3260 N.pl3 448  ARG448      0.1354
    208  N         15.1100   17.5850   66.6880 N.3   450  ARG450     -0.1245
    209  CA        13.7550   17.4930   67.2240 C.3   450  ARG450      0.1563
    210  C         13.6190   18.2190   68.5460 C.2   450  ARG450      0.2260
    211  O         12.5000   18.4140   69.0170 O.2   450  ARG450     -0.2867
    212  CB        13.3640   16.0200   67.4430 C.3   450  ARG450      0.0307
    213  CG        13.5590   15.0940   66.2330 C.3   450  ARG450      0.0489
    214  CD        12.5860   15.3860   65.1190 C.3   450  ARG450      0.2205
    215  NE        12.7020   14.3210   64.1090 N.pl3 450  ARG450     -0.0865
    216  CZ        11.7980   13.3910   63.8150 C.cat 450  ARG450      0.5346
    217  NH1       10.5670   13.4520   64.2910 N.pl3 450  ARG450      0.1354
    218  NH2       12.1030   12.4840   62.8890 N.pl3 450  ARG450      0.1354
@<TRIPOS>BOND
     1    15    16    2
     2    15    14    1
     3    20    21    1
     4    23    22    2
     5     8     7    2
     6    35    34    1
     7    22    21    1
     8    22    30   am
     9    14    17    1
    10    14    13    1
    11    33    32    2
    12    21    24    1
    13    31    30    1
    14    31    34    1
    15    31    32    1
    16    34    36    1
    17     7    13   am
    18     7     6    1
    19    32    37   am
    20    17    18    1
    21    40    39    2
    22    13    19    1
    23    39    38    1
    24     2     1    1
    25     2     3    1
    26     5     3   am
    27     5     6    1
    28   126   124    1
    29    24    25    1
    30   123   122    2
    31     3     4    2
    32     6     9    1
    33    37    38    1
    34    25    27   ar
    35    25    26   ar
    36     9    10    1
    37    27    29   ar
    38    18    19    1
    39    26    28   ar
    40    38    41    1
    41    29    28   ar
    42   122   121    1
    43    47    48    1
    44   124   121    1
    45   124   125    1
    46   121   120    1
    47    11    10    1
    48    10    12    1
    49   169   168    1
    50    41    42    1
    51    48    49    1
    52    48    51    1
    53   127   128    1
    54   195   193   ar
    55   195   196   ar
    56    44    42   ar
    57    44    46   ar
    58   166   168   ar
    59   166   164   ar
    60   193   192   ar
    61   132   131    1
    62   132   133    1
    63   115   114    2
    64   134   133    1
    65    49    50    2
    66    42    43   ar
    67   168   167   ar
    68   120   114   am
    69    51    52    1
    70   131   128    1
    71   114   113    1
    72   130   129    2
    73    46    45   ar
    74   196   194   ar
    75   128   129    1
    76   164   163   ar
    77    53    52   ar
    78    53    55   ar
    79   187   188    1
    80   192   194   ar
    81   192   191    1
    82    43    45   ar
    83    52    54   ar
    84   167   165   ar
    85    79    78    1
    86   107   105    1
    87   191   188    1
    88    55    57   ar
    89   113   112    1
    90   113   116    1
    91   163   165   ar
    92   163   162    1
    93   188   189    1
    94   112   110   am
    95    78    77    1
    96   105   104    2
    97   105   106    1
    98   104   103    1
    99    54    56   ar
   100   178   177    1
   101   116   117    1
   102    96    95    1
   103   177   176    1
   104   189   190    2
   105   162   159    1
   106    57    56   ar
   107   173   172    2
   108   110   109    1
   109   110   111    2
   110   109   108    1
   111   102   103    1
   112   102   101    1
   113    63    62    1
   114   159   158    1
   115   159   160    1
   116   207   205    1
   117    77    76    1
   118    58    59    1
   119   157   156    2
   120   170   160   am
   121   170   171    1
   122   117   118    1
   123    95    92    1
   124   203   204    1
   125   203   202    1
   126   174   171    1
   127   174   175    1
   128   197   198    1
   129   119   118    1
   130   201   198    1
   131   201   202    1
   132   172   171    1
   133   101    98    1
   134   158   156   am
   135    64    62    1
   136   205   204    2
   137   205   206    1
   138   160   161    2
   139   176   175    1
   140   156   155    1
   141   153   152    2
   142    62    59    1
   143    76    73    1
   144   143   142    1
   145   198   199    1
   146    92    91    1
   147    92    93    1
   148    59    60    1
   149    89    88    1
   150   155   154    1
   151   152   154   am
   152   152   151    1
   153    98    99    1
   154    98    97    1
   155   147   146    2
   156    99   100    2
   157   142   141    1
   158    73    72    1
   159    73    74    1
   160   218   216    1
   161    61    60    2
   162    93    94    2
   163   199   200    2
   164   151   150    1
   165    88    90    1
   166    88    87    2
   167    72    67   am
   168   141   140    1
   169    74    75    2
   170    86    87    1
   171    86    85    1
   172   146   150   am
   173   146   145    1
   174   216   215    2
   175   216   217    1
   176   215   214    1
   177    71    69    1
   178    69    70    1
   179    69    66    1
   180    67    68    2
   181    67    66    1
   182   148   145    1
   183   148   149    1
   184    84    85    1
   185    84    81    1
   186   144   145    1
   187   144   137   am
   188   186   184    1
   189    65    66    1
   190   140   139    1
   191   214   213    1
   192   136   137    1
   193   136   139    1
   194   136   135    1
   195   137   138    2
   196    82    81    1
   197    82    83    2
   198    81    80    1
   199   185   184    1
   200   213   212    1
   201   184   183    1
   202   208   209    1
   203   182   181    2
   204   183   180    1
   205   209   212    1
   206   209   210    1
   207   180   181    1
   208   180   179    1
   209   210   211    2
