@<TRIPOS>MOLECULE
tmp/3nyvA00.pdb
 157 146 0 0 0
SMALL
GASTEIGER

@<TRIPOS>ATOM
      1  N         23.7210   13.9910   72.3860 N.3    14  ARG14      -0.1245
      2  CA        24.2930   15.0850   71.6010 C.3    14  ARG14       0.1563
      3  C         23.2230   15.7610   70.7590 C.2    14  ARG14       0.2260
      4  O         22.1470   15.2070   70.5570 O.2    14  ARG14      -0.2867
      5  CB        25.4520   14.6060   70.6990 C.3    14  ARG14       0.0307
      6  CG        25.1220   13.4740   69.7390 C.3    14  ARG14       0.0489
      7  CD        26.3160   13.1170   68.8250 C.3    14  ARG14       0.2205
      8  NE        25.9150   12.1560   67.7940 N.pl3  14  ARG14      -0.0865
      9  CZ        25.5090   12.4680   66.5580 C.cat  14  ARG14       0.5346
     10  NH1       25.1560   11.4990   65.7210 N.pl3  14  ARG14       0.1354
     11  NH2       25.4650   13.7270   66.1350 N.pl3  14  ARG14       0.1354
     12  N         21.6220   16.7680   67.3660 N.3    16  LEU16      -0.1231
     13  CA        21.5930   16.3320   65.9650 C.3    16  LEU16       0.1693
     14  C         21.5030   17.4900   65.0060 C.2    16  LEU16       0.2593
     15  O         22.1530   17.4760   63.9490 O.2    16  LEU16      -0.2718
     16  CB        20.4440   15.3730   65.7120 C.3    16  LEU16       0.0284
     17  CG        20.5580   14.0690   66.4910 C.3    16  LEU16       0.0019
     18  CD1       19.3170   13.2140   66.2690 C.3    16  LEU16       0.0001
     19  CD2       21.8040   13.3300   66.0870 C.3    16  LEU16       0.0001
     20  N         20.7070   18.4920   65.3690 N.am   17  GLY17      -0.1942
     21  CA        20.5470   19.6820   64.5290 C.3    17  GLY17       0.2014
     22  C         19.2650   20.4420   64.7780 C.2    17  GLY17       0.2639
     23  O         18.4930   20.1420   65.6830 O.2    17  GLY17      -0.2714
     24  N         19.0590   21.4500   63.9570 N.am   18  LYS18      -0.1963
     25  CA        17.9090   22.3230   64.0530 C.3    18  LYS18       0.1728
     26  C         16.9110   21.8890   63.0000 C.2    18  LYS18       0.2616
     27  O         17.2960   21.6170   61.8570 O.2    18  LYS18      -0.2715
     28  CB        18.3640   23.7500   63.7690 C.3    18  LYS18       0.0311
     29  CG        17.3260   24.7980   64.0580 C.3    18  LYS18       0.0038
     30  CD        17.9280   26.1930   63.9190 C.3    18  LYS18       0.0206
     31  CE        16.8620   27.2630   63.7390 C.3    18  LYS18       0.1093
     32  NZ        16.4330   27.4300   62.3240 N.3    18  LYS18      -0.1314
     33  N         15.6430   21.7770   63.3810 N.am   19  GLY19      -0.1955
     34  CA        14.6010   21.4990   62.4110 C.3    19  GLY19       0.1869
     35  C         13.4310   22.4380   62.6210 C.2    19  GLY19       0.2309
     36  O         13.4830   23.3280   63.4800 O.2    19  GLY19      -0.2863
     37  N         16.7520   19.2640   67.6850 N.3    24  VAL24      -0.1245
     38  CA        16.6090   17.8240   67.7980 C.3    24  VAL24       0.1561
     39  C         17.8500   17.2720   68.4780 C.2    24  VAL24       0.2260
     40  O         18.9900   17.5180   68.0390 O.2    24  VAL24      -0.2867
     41  CB        16.4250   17.1830   66.4290 C.3    24  VAL24       0.0252
     42  CG1       16.2900   15.6540   66.5890 C.3    24  VAL24       0.0019
     43  CG2       15.1960   17.8160   65.7370 C.3    24  VAL24       0.0019
     44  N         15.6420   10.2150   68.3760 N.3    37  ALA37      -0.1245
     45  CA        15.8100   11.6310   68.0260 C.3    37  ALA37       0.1562
     46  C         14.6400   12.3940   68.6550 C.2    37  ALA37       0.2260
     47  O         13.4920   12.0750   68.4170 O.2    37  ALA37      -0.2867
     48  CB        15.8500   11.8020   66.5140 C.3    37  ALA37       0.0290
     49  N         12.7510   15.9070   69.2100 N.3    39  LYS39      -0.1245
     50  CA        12.5420   17.2810   68.8180 C.3    39  LYS39       0.1561
     51  C         11.9850   18.0040   70.0470 C.2    39  LYS39       0.2260
     52  O         10.9850   17.5740   70.6480 O.2    39  LYS39      -0.2867
     53  CB        11.5820   17.3910   67.6270 C.3    39  LYS39       0.0271
     54  CG        11.2870   18.8110   67.2420 C.3    39  LYS39       0.0035
     55  CD        10.7160   18.9910   65.8400 C.3    39  LYS39       0.0206
     56  CE        11.8360   19.0340   64.7940 C.3    39  LYS39       0.1093
     57  NZ        11.3490   19.2420   63.3780 N.3    39  LYS39      -0.1314
     58  N          7.1200    7.9180   65.2030 N.3    72  LEU72      -0.1245
     59  CA         6.9700    8.6150   66.4960 C.3    72  LEU72       0.1561
     60  C          6.7210    7.5950   67.6020 C.2    72  LEU72       0.2260
     61  O          5.7860    6.8000   67.4960 O.2    72  LEU72      -0.2867
     62  CB         5.8120    9.6250   66.4380 C.3    72  LEU72       0.0270
     63  CG         5.5790   10.4690   67.7040 C.3    72  LEU72       0.0019
     64  CD1        6.7360   11.4130   67.9440 C.3    72  LEU72       0.0001
     65  CD2        4.2790   11.3000   67.6730 C.3    72  LEU72       0.0001
     66  N          9.0150   15.5310   71.3110 N.3    84  LEU84      -0.1245
     67  CA         8.5760   14.5630   70.3280 C.3    84  LEU84       0.1561
     68  C          9.6870   13.5390   70.1570 C.2    84  LEU84       0.2260
     69  O         10.7180   13.8540   69.6070 O.2    84  LEU84      -0.2867
     70  CB         8.3080   15.2530   69.0030 C.3    84  LEU84       0.0270
     71  CG         7.0310   16.1100   68.9450 C.3    84  LEU84       0.0019
     72  CD1        6.9750   16.9110   67.6670 C.3    84  LEU84       0.0001
     73  CD2        5.8370   15.1840   69.0150 C.3    84  LEU84       0.0001
     74  N         11.2080   10.3460   68.5480 N.3    86  GLY86      -0.1210
     75  CA        11.1260    9.5590   67.3220 C.3    86  GLY86       0.1956
     76  C         12.3500    8.7150   67.0620 C.2    86  GLY86       0.2612
     77  O         13.3330    8.7320   67.8110 O.2    86  GLY86      -0.2717
     78  N         12.2670    7.9290   66.0070 N.am   87  GLU87      -0.1965
     79  CA        13.3620    7.0890   65.5740 C.3    87  GLU87       0.1733
     80  C         14.4320    8.0280   65.0100 C.2    87  GLU87       0.2616
     81  O         14.0830    9.0220   64.3620 O.2    87  GLU87      -0.2715
     82  CB        12.8250    6.1380   64.4730 C.3    87  GLU87       0.0429
     83  CG        13.8110    5.1390   63.9300 C.3    87  GLU87       0.1163
     84  CD        13.1930    4.0620   63.0200 C.2    87  GLU87       0.3649
     85  OE1       12.1920    4.2960   62.2840 O.co2  87  GLU87      -0.2457
     86  OE2       13.7530    2.9520   63.0240 O.co2  87  GLU87      -0.2457
     87  N         15.7110    7.7110   65.2150 N.am   88  VAL88      -0.1963
     88  CA        16.7720    8.5450   64.6690 C.3    88  VAL88       0.1727
     89  C         17.1880    8.0110   63.3000 C.2    88  VAL88       0.2616
     90  O         17.2830    6.7970   63.0870 O.2    88  VAL88      -0.2715
     91  CB        18.0020    8.6020   65.5980 C.3    88  VAL88       0.0290
     92  CG1       18.5890    7.2120   65.7700 C.3    88  VAL88       0.0023
     93  CG2       19.0470    9.5820   65.0410 C.3    88  VAL88       0.0023
     94  N         17.4220    8.9290   62.3830 N.am   89  TYR89      -0.1960
     95  CA        17.8940    8.6110   61.0460 C.3    89  TYR89       0.1771
     96  C         19.2790    9.2080   60.8340 C.2    89  TYR89       0.2620
     97  O         19.5240   10.3660   61.1620 O.2    89  TYR89      -0.2715
     98  CB        16.8590    9.0650   60.0160 C.3    89  TYR89       0.0574
     99  CG        15.5260    8.4360   60.3110 C.ar   89  TYR89      -0.0198
    100  CD1       15.4020    7.0480   60.3790 C.ar   89  TYR89      -0.0009
    101  CD2       14.3810    9.2250   60.5620 C.ar   89  TYR89      -0.0009
    102  CE1       14.1810    6.4460   60.6800 C.ar   89  TYR89       0.0417
    103  CE2       13.1440    8.6200   60.8690 C.ar   89  TYR89       0.0417
    104  CZ        13.0620    7.2470   60.9300 C.ar   89  TYR89       0.1957
    105  OH        11.8740    6.6650   61.2310 O.3    89  TYR89      -0.2866
    106  N         20.1750    8.4100   60.2840 N.am   90  THR90      -0.1951
    107  CA        21.5990    8.7230   60.2550 C.3    90  THR90       0.1897
    108  C         22.1930    8.8920   58.8530 C.2    90  THR90       0.2313
    109  O         23.3950    9.1710   58.7330 O.2    90  THR90      -0.2863
    110  CB        22.3860    7.5970   60.9510 C.3    90  THR90       0.1794
    111  OG1       22.1470    6.3700   60.2440 O.3    90  THR90      -0.2208
    112  CG2       21.9390    7.4540   62.3920 C.3    90  THR90       0.0378
    113  N         21.4490   11.2210   56.6800 N.3    92  GLY92      -0.1210
    114  CA        21.5120   12.6480   56.3250 C.3    92  GLY92       0.1956
    115  C         20.4410   13.0900   55.3520 C.2    92  GLY92       0.2611
    116  O         19.6280   12.2950   54.9120 O.2    92  GLY92      -0.2717
    117  N         20.4530   14.3720   54.9910 N.am   93  GLU93      -0.1979
    118  CA        19.4270   14.9150   54.1000 C.3    93  GLU93       0.1602
    119  C         19.6030   14.4040   52.6740 C.2    93  GLU93       0.2287
    120  O         20.7440   14.2840   52.1710 O.2    93  GLU93      -0.2864
    121  CB        19.4580   16.4520   54.1700 C.3    93  GLU93       0.0415
    122  CG        18.9510   17.0010   55.4670 C.3    93  GLU93       0.1163
    123  CD        19.3240   18.4770   55.6830 C.2    93  GLU93       0.3649
    124  OE1       19.4210   19.2560   54.6880 O.co2  93  GLU93      -0.2457
    125  OE2       19.4950   18.8510   56.8660 O.co2  93  GLU93      -0.2457
    126  N         14.9700   12.6630   55.0040 N.3   138  LEU138     -0.1245
    127  CA        16.2040   12.0850   55.5670 C.3   138  LEU138      0.1561
    128  C         16.3620   10.6480   55.1200 C.2   138  LEU138      0.2260
    129  O         15.3990    9.8890   55.0960 O.2   138  LEU138     -0.2867
    130  CB        16.1700   12.1180   57.0880 C.3   138  LEU138      0.0270
    131  CG        15.9820   13.5090   57.7310 C.3   138  LEU138      0.0019
    132  CD1       15.9630   13.4230   59.2360 C.3   138  LEU138      0.0001
    133  CD2       17.0620   14.5150   57.2400 C.3   138  LEU138      0.0001
    134  N         10.0270   13.4900   57.6540 N.3   151  ILE151     -0.1231
    135  CA         9.8620   13.9550   59.0050 C.3   151  ILE151      0.1692
    136  C          8.9060   15.1400   59.0760 C.2   151  ILE151      0.2592
    137  O          8.7420   15.8890   58.0950 O.2   151  ILE151     -0.2718
    138  CB        11.2280   14.3140   59.6530 C.3   151  ILE151      0.0266
    139  CG1       11.8670   15.4850   58.9490 C.3   151  ILE151      0.0019
    140  CG2       12.1820   13.0540   59.6150 C.3   151  ILE151      0.0020
    141  CD1       13.0240   16.1570   59.7060 C.3   151  ILE151      0.0001
    142  N          8.2640   15.2520   60.2350 N.am  152  ASP152     -0.1974
    143  CA         7.4060   16.4030   60.6360 C.3   152  ASP152      0.1709
    144  C          5.9620   16.3700   60.0830 C.2   152  ASP152      0.2293
    145  O          5.2640   17.3830   60.1380 O.2   152  ASP152     -0.2864
    146  CB         8.0570   17.7470   60.2680 C.3   152  ASP152      0.1436
    147  CG         9.2080   18.1680   61.1770 C.2   152  ASP152      0.3671
    148  OD1        9.5210   17.5260   62.1980 O.co2 152  ASP152     -0.2456
    149  OD2        9.8080   19.2230   60.8500 O.co2 152  ASP152     -0.2456
    150  N          2.7960   18.1410   62.1010 N.3   155  LEU155     -0.1245
    151  CA         3.1640   19.1870   63.0420 C.3   155  LEU155      0.1561
    152  C          2.5740   20.5640   62.7240 C.2   155  LEU155      0.2260
    153  O          2.1780   21.3020   63.6290 O.2   155  LEU155     -0.2867
    154  CB         4.6750   19.3130   63.1570 C.3   155  LEU155      0.0270
    155  CG         5.4200   18.1140   63.7600 C.3   155  LEU155      0.0019
    156  CD1        6.8180   18.5890   64.1360 C.3   155  LEU155      0.0001
    157  CD2        4.6890   17.5590   64.9630 C.3   155  LEU155      0.0001
@<TRIPOS>BOND
     1   120   119    2
     2   119   118    1
     3   118   121    1
     4   118   117    1
     5   121   122    1
     6   124   123   ar
     7   116   115    2
     8   117   115   am
     9   126   127    1
    10   129   128    2
    11   128   127    1
    12   115   114    1
    13   122   123    1
    14   127   130    1
    15   123   125   ar
    16   114   113    1
    17   130   131    1
    18   133   131    1
    19   134   135    1
    20   131   132    1
    21   137   136    2
    22   109   108    2
    23   108   107    1
    24   139   138    1
    25   139   141    1
    26   135   136    1
    27   135   138    1
    28   136   142   am
    29   140   138    1
    30    98    99    1
    31    98    95    1
    32   144   145    2
    33   144   143    1
    34   142   143    1
    35   111   110    1
    36   107   106    1
    37   107   110    1
    38   146   143    1
    39   146   147    1
    40   106    96   am
    41    99   100   ar
    42    99   101   ar
    43   100   102   ar
    44   101   103   ar
    45   102   104   ar
    46    96    95    1
    47    96    97    2
    48   149   147   ar
    49   103   104   ar
    50   104   105    1
    51   110   112    1
    52    95    94    1
    53   147   148   ar
    54    27    26    2
    55   150   151    1
    56    85    84   ar
    57    32    31    1
    58    94    89   am
    59    34    35    1
    60    34    33    1
    61    35    36    2
    62   152   151    1
    63   152   153    2
    64    26    33   am
    65    26    25    1
    66    84    86   ar
    67    84    83    1
    68   151   154    1
    69    90    89    2
    70   154   155    1
    71    89    88    1
    72    57    56    1
    73    31    30    1
    74   155   156    1
    75   155   157    1
    76    28    25    1
    77    28    29    1
    78    30    29    1
    79    83    82    1
    80    15    14    2
    81    24    25    1
    82    24    22   am
    83    81    80    2
    84    82    79    1
    85    21    22    1
    86    21    20    1
    87    88    87    1
    88    88    91    1
    89    22    23    2
    90    56    55    1
    91    14    20   am
    92    14    13    1
    93    80    87   am
    94    80    79    1
    95    93    91    1
    96    58    59    1
    97    79    78    1
    98    91    92    1
    99    16    13    1
   100    16    17    1
   101    10     9    1
   102    43    41    1
   103    55    54    1
   104    13    12    1
   105    78    76   am
   106    19    17    1
   107    11     9    1
   108    18    17    1
   109    41    42    1
   110    41    38    1
   111    62    59    1
   112    62    63    1
   113    59    60    1
   114    48    45    1
   115     9     8    2
   116    76    75    1
   117    76    77    2
   118    54    53    1
   119    75    74    1
   120    61    60    2
   121    53    50    1
   122    72    71    1
   123    65    63    1
   124    37    38    1
   125    63    64    1
   126     8     7    1
   127    38    39    1
   128    45    44    1
   129    45    46    1
   130    40    39    2
   131    47    46    2
   132    50    49    1
   133    50    51    1
   134     7     6    1
   135    71    70    1
   136    71    73    1
   137    70    67    1
   138    69    68    2
   139     6     5    1
   140    51    52    2
   141    68    67    1
   142    67    66    1
   143     4     3    2
   144     5     2    1
   145     3     2    1
   146     2     1    1
