@<TRIPOS>MOLECULE
tmp/3nyxA00.pdb
 202 194 0 0 0
SMALL
GASTEIGER

@<TRIPOS>ATOM
      1  N          5.2120   14.1880   29.0920 N.3    15  LEU15      -0.1231
      2  CA         4.8440   14.4870   27.7170 C.3    15  LEU15       0.1693
      3  C          3.7040   13.6120   27.2180 C.2    15  LEU15       0.2592
      4  O          3.5740   12.4470   27.6220 O.2    15  LEU15      -0.2718
      5  CB         6.0540   14.3150   26.7910 C.3    15  LEU15       0.0284
      6  CG         7.1700   15.3350   26.9620 C.3    15  LEU15       0.0019
      7  CD1        8.2980   15.0610   25.9740 C.3    15  LEU15       0.0001
      8  CD2        6.6210   16.7660   26.8130 C.3    15  LEU15       0.0001
      9  N          2.8920   14.1930   26.3390 N.am   16  GLY16      -0.1957
     10  CA         1.8350   13.4780   25.6350 C.3    16  GLY16       0.1869
     11  C          0.5630   13.2200   26.4210 C.2    16  GLY16       0.2309
     12  O         -0.2400   12.3650   26.0310 O.2    16  GLY16      -0.2863
     13  N          0.8430    8.3320   25.0210 N.3    20  PHE20      -0.1241
     14  CA         2.0010    7.5140   24.6120 C.3    20  PHE20       0.1605
     15  C          2.5580    6.7030   25.7870 C.2    20  PHE20       0.2264
     16  O          3.6960    6.2250   25.7450 O.2    20  PHE20      -0.2867
     17  CB         3.1160    8.3770   24.0090 C.3    20  PHE20       0.0534
     18  CG         2.7180    9.1280   22.7680 C.ar   20  PHE20      -0.0203
     19  CD1        2.8810    8.5590   21.5150 C.ar   20  PHE20      -0.0042
     20  CD2        2.2050   10.4260   22.8570 C.ar   20  PHE20      -0.0042
     21  CE1        2.5330    9.2700   20.3670 C.ar   20  PHE20      -0.0003
     22  CE2        1.8480   11.1350   21.7250 C.ar   20  PHE20      -0.0003
     23  CZ         2.0160   10.5580   20.4760 C.ar   20  PHE20      -0.0000
     24  N          6.0130    8.8320   28.9260 N.3    23  VAL23      -0.1245
     25  CA         7.0410    9.5670   28.1770 C.3    23  VAL23       0.1561
     26  C          7.2510   10.8750   28.8940 C.2    23  VAL23       0.2260
     27  O          6.2820   11.5330   29.2870 O.2    23  VAL23      -0.2867
     28  CB         6.5980    9.9050   26.7340 C.3    23  VAL23       0.0252
     29  CG1        7.7300   10.6160   25.9700 C.3    23  VAL23       0.0019
     30  CG2        6.1700    8.6510   25.9800 C.3    23  VAL23       0.0019
     31  N         13.2580   13.0740   24.6590 N.3    38  ALA38      -0.1245
     32  CA        12.1060   12.4170   25.2370 C.3    38  ALA38       0.1562
     33  C         12.5020   11.0000   25.6040 C.2    38  ALA38       0.2260
     34  O         13.2610   10.3470   24.8690 O.2    38  ALA38      -0.2867
     35  CB        10.9380   12.4290   24.2750 C.3    38  ALA38       0.0290
     36  N         11.0620    7.2280   26.8800 N.3    40  LYS40      -0.1245
     37  CA         9.9980    6.2680   27.1210 C.3    40  LYS40       0.1561
     38  C         10.4860    5.1550   28.0540 C.2    40  LYS40       0.2260
     39  O         11.4950    4.4490   27.7760 O.2    40  LYS40      -0.2867
     40  CB         9.4820    5.6790   25.8070 C.3    40  LYS40       0.0271
     41  CG         7.9630    5.4650   25.7850 C.3    40  LYS40       0.0035
     42  CD         7.5290    4.0440   25.9780 C.3    40  LYS40       0.0206
     43  CE         6.0210    3.9530   25.8050 C.3    40  LYS40       0.1093
     44  NZ         5.4710    4.5290   24.5080 N.3    40  LYS40      -0.1314
     45  N          9.7630    1.5990   29.5690 N.3    42  LEU42      -0.1245
     46  CA         9.1260    0.4170   28.9970 C.3    42  LEU42       0.1561
     47  C          9.2750   -0.7280   29.9670 C.2    42  LEU42       0.2260
     48  O         10.4010   -1.1670   30.2470 O.2    42  LEU42      -0.2867
     49  CB         9.7930    0.0290   27.6690 C.3    42  LEU42       0.0270
     50  CG         9.3750    0.7600   26.3890 C.3    42  LEU42       0.0019
     51  CD1       10.5140    0.8160   25.3770 C.3    42  LEU42       0.0001
     52  CD2        8.1640    0.0890   25.7730 C.3    42  LEU42       0.0001
     53  N         14.7640   -7.6700   22.9650 N.3    54  TRP54      -0.1241
     54  CA        13.8950   -6.5320   22.6560 C.3    54  TRP54       0.1605
     55  C         14.7040   -5.2460   22.4650 C.2    54  TRP54       0.2264
     56  O         14.3850   -4.4200   21.6150 O.2    54  TRP54      -0.2867
     57  CB        12.8580   -6.3660   23.7590 C.3    54  TRP54       0.0550
     58  CG        11.7630   -5.4070   23.4370 C.ar   54  TRP54       0.0003
     59  CD1       11.3860   -4.9620   22.1920 C.ar   54  TRP54       0.0946
     60  CD2       10.8670   -4.7870   24.3720 C.ar   54  TRP54       0.0152
     61  NE1       10.3290   -4.0970   22.3050 N.ar   54  TRP54      -0.2442
     62  CE2        9.9860   -3.9720   23.6280 C.ar   54  TRP54       0.0810
     63  CE3       10.7350   -4.8310   25.7670 C.ar   54  TRP54       0.0012
     64  CZ2        8.9750   -3.2100   24.2330 C.ar   54  TRP54       0.0191
     65  CZ3        9.7390   -4.0810   26.3610 C.ar   54  TRP54       0.0001
     66  CH2        8.8720   -3.2760   25.5920 C.ar   54  TRP54       0.0015
     67  N         14.7350   -3.0320   19.1430 N.3    58  ILE58      -0.1245
     68  CA        14.5790   -1.5880   19.2440 C.3    58  ILE58       0.1561
     69  C         15.8070   -0.8650   18.6830 C.2    58  ILE58       0.2260
     70  O         15.6680    0.0020   17.8270 O.2    58  ILE58      -0.2867
     71  CB        14.3070   -1.1520   20.6990 C.3    58  ILE58       0.0252
     72  CG1       12.8570   -1.4490   21.0780 C.3    58  ILE58       0.0019
     73  CG2       14.6140    0.3260   20.8710 C.3    58  ILE58       0.0019
     74  CD1       12.5940   -1.5280   22.5950 C.3    58  ILE58       0.0001
     75  N         16.2220    0.1620   15.0310 N.3    61  LEU61      -0.1245
     76  CA        15.4610    1.3390   14.5850 C.3    61  LEU61       0.1561
     77  C         16.3240    2.5830   14.4560 C.2    61  LEU61       0.2260
     78  O         16.0070    3.4780   13.6700 O.2    61  LEU61      -0.2867
     79  CB        14.2900    1.6480   15.5300 C.3    61  LEU61       0.0270
     80  CG        13.1550    0.6360   15.6960 C.3    61  LEU61       0.0019
     81  CD1       12.2580    1.0730   16.8400 C.3    61  LEU61       0.0001
     82  CD2       12.3600    0.4750   14.4150 C.3    61  LEU61       0.0001
     83  N         10.5670   10.0580   13.3160 N.3    70  ILE70      -0.1245
     84  CA        11.2240   10.4030   14.5920 C.3    70  ILE70       0.1561
     85  C         12.5770    9.6800   14.7160 C.2    70  ILE70       0.2260
     86  O         12.7120    8.5440   14.2610 O.2    70  ILE70      -0.2867
     87  CB        10.2950   10.0680   15.8000 C.3    70  ILE70       0.0252
     88  CG1       10.7820   10.7140   17.0920 C.3    70  ILE70       0.0019
     89  CG2       10.1670    8.5710   15.9800 C.3    70  ILE70       0.0019
     90  CD1        9.7400   10.7070   18.1810 C.3    70  ILE70       0.0001
     91  N         15.1200    7.7980   16.8870 N.3    72  TYR72      -0.1241
     92  CA        15.3730    7.0350   18.1070 C.3    72  TYR72       0.1605
     93  C         16.8570    7.0620   18.3570 C.2    72  TYR72       0.2264
     94  O         17.6540    6.7350   17.4610 O.2    72  TYR72      -0.2867
     95  CB        14.8380    5.6110   17.9840 C.3    72  TYR72       0.0534
     96  CG        13.3260    5.5870   17.9630 C.ar   72  TYR72      -0.0201
     97  CD1       12.6050    5.8380   19.1220 C.ar   72  TYR72      -0.0009
     98  CD2       12.6160    5.3410   16.7850 C.ar   72  TYR72      -0.0009
     99  CE1       11.2240    5.8420   19.1200 C.ar   72  TYR72       0.0417
    100  CE2       11.2080    5.3320   16.7810 C.ar   72  TYR72       0.0417
    101  CZ        10.5250    5.6020   17.9620 C.ar   72  TYR72       0.1957
    102  OH         9.1450    5.6170   18.0140 O.3    72  TYR72      -0.2866
    103  N         14.0620    4.1750   26.6910 N.3    85  LEU85      -0.1245
    104  CA        14.2060    4.5080   25.2840 C.3    85  LEU85       0.1561
    105  C         14.2430    6.0230   25.1130 C.2    85  LEU85       0.2260
    106  O         13.3150    6.7440   25.5420 O.2    85  LEU85      -0.2867
    107  CB        13.0580    3.8860   24.4770 C.3    85  LEU85       0.0270
    108  CG        12.7110    4.2560   23.0310 C.3    85  LEU85       0.0019
    109  CD1       13.8590    4.0450   22.0340 C.3    85  LEU85       0.0001
    110  CD2       11.5170    3.4340   22.6270 C.3    85  LEU85       0.0001
    111  N         14.7270    9.3490   22.6100 N.3    87  MET87      -0.1230
    112  CA        14.4070    9.8270   21.2650 C.3    87  MET87       0.1702
    113  C         14.4810   11.3480   21.1640 C.2    87  MET87       0.2592
    114  O         14.6070   12.0430   22.1750 O.2    87  MET87      -0.2718
    115  CB        13.0100    9.3490   20.8720 C.3    87  MET87       0.0401
    116  CG        11.8690    9.9120   21.7270 C.3    87  MET87       0.0596
    117  SD        10.5400    8.7020   22.0090 S.3    87  MET87      -0.1393
    118  CE        10.3280    8.2030   20.3340 C.3    87  MET87       0.0692
    119  N         14.3750   11.8810   19.9510 N.am   88  GLU88      -0.1966
    120  CA        14.3470   13.3380   19.8030 C.3    88  GLU88       0.1733
    121  C         13.0580   13.8960   20.3980 C.2    88  GLU88       0.2616
    122  O         12.0440   13.1970   20.4900 O.2    88  GLU88      -0.2715
    123  CB        14.5580   13.7960   18.3470 C.3    88  GLU88       0.0429
    124  CG        13.4370   13.4490   17.3870 C.3    88  GLU88       0.1163
    125  CD        13.6350   14.0440   16.0010 C.2    88  GLU88       0.3649
    126  OE1       13.8450   15.2720   15.9050 O.co2  88  GLU88      -0.2457
    127  OE2       13.5630   13.2910   15.0040 O.co2  88  GLU88      -0.2457
    128  N         13.1170   15.1470   20.8340 N.am   89  TYR89      -0.1960
    129  CA        11.9650   15.8230   21.3760 C.3    89  TYR89       0.1771
    130  C         11.2950   16.5750   20.2420 C.2    89  TYR89       0.2619
    131  O         11.9260   17.4300   19.5990 O.2    89  TYR89      -0.2715
    132  CB        12.4190   16.7870   22.4680 C.3    89  TYR89       0.0574
    133  CG        11.3420   17.7010   22.9990 C.ar   89  TYR89      -0.0198
    134  CD1       10.1130   17.1970   23.4230 C.ar   89  TYR89      -0.0009
    135  CD2       11.5630   19.0730   23.1140 C.ar   89  TYR89      -0.0009
    136  CE1        9.1260   18.0410   23.9400 C.ar   89  TYR89       0.0417
    137  CE2       10.5720   19.9340   23.6330 C.ar   89  TYR89       0.0417
    138  CZ         9.3660   19.4080   24.0400 C.ar   89  TYR89       0.1957
    139  OH         8.3830   20.2340   24.5450 O.3    89  TYR89      -0.2866
    140  N         10.0230   16.2610   19.9950 N.am   90  VAL90      -0.1964
    141  CA         9.2530   16.9060   18.9210 C.3    90  VAL90       0.1712
    142  C          8.1850   17.8260   19.5410 C.2    90  VAL90       0.2458
    143  O          7.0840   17.3780   19.8580 O.2    90  VAL90      -0.2730
    144  CB         8.6570   15.8600   17.9520 C.3    90  VAL90       0.0289
    145  CG1        8.0170   16.5280   16.7630 C.3    90  VAL90       0.0023
    146  CG2        9.7510   14.8940   17.4740 C.3    90  VAL90       0.0023
    147  N          8.5200   19.1240   19.7050 N.am   91  PRO91      -0.2716
    148  CA         7.8580   20.0690   20.6430 C.3    91  PRO91       0.1536
    149  C          6.3640   20.4130   20.4920 C.2    91  PRO91       0.2598
    150  O          5.6950   20.6240   21.5110 O.2    91  PRO91      -0.2715
    151  CB         8.7050   21.3530   20.5250 C.3    91  PRO91       0.0310
    152  CG         9.9640   20.9580   19.8400 C.3    91  PRO91       0.0237
    153  CD         9.5890   19.7980   18.9430 C.3    91  PRO91       0.0939
    154  N          5.8400   20.5050   19.2700 N.am   92  LEU92      -0.1964
    155  CA         4.3970   20.7990   19.1170 C.3    92  LEU92       0.1728
    156  C          3.5240   19.5620   19.3480 C.2    92  LEU92       0.2617
    157  O          2.3270   19.6830   19.5830 O.2    92  LEU92      -0.2715
    158  CB         4.0720   21.4670   17.7810 C.3    92  LEU92       0.0311
    159  CG         4.8500   22.7630   17.5020 C.3    92  LEU92       0.0022
    160  CD1        4.5830   23.3260   16.0840 C.3    92  LEU92       0.0001
    161  CD2        4.5840   23.8470   18.5820 C.3    92  LEU92       0.0001
    162  N          4.1310   18.3760   19.2740 N.am   93  GLY93      -0.1940
    163  CA         3.4480   17.1260   19.6150 C.3    93  GLY93       0.2014
    164  C          2.4980   16.6010   18.5480 C.2    93  GLY93       0.2639
    165  O          2.6870   16.8550   17.3650 O.2    93  GLY93      -0.2714
    166  N          1.4670   15.8920   18.9990 N.am   94  SER94      -0.1949
    167  CA         0.5790   15.0870   18.1700 C.3    94  SER94       0.1924
    168  C         -0.4010   15.9170   17.3610 C.2    94  SER94       0.2314
    169  O         -0.9430   16.8940   17.8520 O.2    94  SER94      -0.2863
    170  CB        -0.2100   14.1520   19.0940 C.3    94  SER94       0.2116
    171  OG        -1.0880   13.3050   18.3890 O.3    94  SER94      -0.2180
    172  N          3.7800   13.3750   14.7790 N.3   139  LEU139     -0.1245
    173  CA         4.1890   14.5000   15.5880 C.3   139  LEU139      0.1561
    174  C          4.6370   15.6660   14.6920 C.2   139  LEU139      0.2260
    175  O          4.9640   15.4660   13.5180 O.2   139  LEU139     -0.2867
    176  CB         5.3050   14.0490   16.5310 C.3   139  LEU139      0.0270
    177  CG         5.0240   12.8370   17.4420 C.3   139  LEU139      0.0019
    178  CD1        6.3360   12.1500   17.9020 C.3   139  LEU139      0.0001
    179  CD2        4.2030   13.2520   18.6280 C.3   139  LEU139      0.0001
    180  N          5.8650    6.6940   17.4290 N.3   150  ASP150     -0.1225
    181  CA         5.4150    5.4060   17.9660 C.3   150  ASP150      0.1805
    182  C          5.6710    4.2150   17.0640 C.2   150  ASP150      0.2598
    183  O          4.7580    3.7020   16.4180 O.2   150  ASP150     -0.2718
    184  CB         3.9370    5.4180   18.4070 C.3   150  ASP150      0.1424
    185  CG         3.6190    4.2840   19.4020 C.2   150  ASP150      0.3668
    186  OD1        4.4180    3.3120   19.4670 O.co2 150  ASP150     -0.2456
    187  OD2        2.6020    4.3750   20.1400 O.co2 150  ASP150     -0.2456
    188  N          6.9120    3.7590   17.0430 N.am  151  PHE151     -0.1962
    189  CA         7.2580    2.5260   16.3350 C.3   151  PHE151      0.1771
    190  C          7.1510    1.2580   17.2260 C.2   151  PHE151      0.2620
    191  O          7.7210    0.2050   16.9160 O.2   151  PHE151     -0.2715
    192  CB         8.6540    2.6720   15.7260 C.3   151  PHE151      0.0574
    193  CG         8.6930    3.5410   14.4840 C.ar  151  PHE151     -0.0200
    194  CD1        9.0010    2.9830   13.2440 C.ar  151  PHE151     -0.0042
    195  CD2        8.4360    4.9140   14.5590 C.ar  151  PHE151     -0.0042
    196  CE1        9.0280    3.7850   12.0960 C.ar  151  PHE151     -0.0003
    197  CE2        8.4630    5.7180   13.4190 C.ar  151  PHE151     -0.0003
    198  CZ         8.7610    5.1620   12.1860 C.ar  151  PHE151     -0.0000
    199  N          6.4010    1.3470   18.3220 N.am  152  GLY152     -0.1954
    200  CA         6.2270    0.1940   19.2240 C.3   152  GLY152      0.1869
    201  C          5.6330   -1.0490   18.5690 C.2   152  GLY152      0.2309
    202  O          5.7370   -2.1520   19.1150 O.2   152  GLY152     -0.2863
@<TRIPOS>BOND
     1   196   198   ar
     2   196   194   ar
     3   198   197   ar
     4   194   193   ar
     5    83    84    1
     6   197   195   ar
     7   175   174    2
     8    78    77    2
     9    86    85    2
    10    82    80    1
    11    77    76    1
    12   193   195   ar
    13   193   192    1
    14    76    75    1
    15    76    79    1
    16    84    85    1
    17    84    87    1
    18   174   173    1
    19   172   173    1
    20   127   125   ar
    21    79    80    1
    22   173   176    1
    23    80    81    1
    24   192   189    1
    25    87    89    1
    26    87    88    1
    27   126   125   ar
    28   125   124    1
    29   160   159    1
    30   189   188    1
    31   189   190    1
    32   183   182    2
    33   176   177    1
    34   145   144    1
    35   100    98   ar
    36   100   101   ar
    37    98    96   ar
    38    91    92    1
    39   191   190    2
    40   188   182   am
    41   182   181    1
    42    88    90    1
    43   190   199   am
    44   168   169    2
    45   168   167    1
    46   165   164    2
    47   124   123    1
    48   180   181    1
    49   177   178    1
    50   177   179    1
    51    94    93    2
    52   146   144    1
    53   159   158    1
    54   159   161    1
    55   158   155    1
    56    70    69    2
    57   144   141    1
    58   101   102    1
    59   101    99   ar
    60    96    95    1
    61    96    97   ar
    62   181   184    1
    63    95    92    1
    64    92    93    1
    65   167   166    1
    66   167   170    1
    67   199   200    1
    68   123   120    1
    69   171   170    1
    70   184   185    1
    71   164   166   am
    72   164   163    1
    73   201   202    2
    74   201   200    1
    75    69    68    1
    76   141   142    1
    77   141   140    1
    78   153   147    1
    79   153   152    1
    80   155   154    1
    81   155   156    1
    82    99    97   ar
    83    67    68    1
    84    68    71    1
    85   154   149   am
    86   162   156   am
    87   162   163    1
    88   156   157    2
    89   185   186   ar
    90   185   187   ar
    91   142   147   am
    92   142   143    2
    93   131   130    2
    94   147   148    1
    95   120   119    1
    96   120   121    1
    97   152   151    1
    98   119   113   am
    99   140   130   am
   100   130   129    1
   101   118   117    1
   102    21    23   ar
   103    21    19   ar
   104   121   122    2
   105   121   128   am
   106    23    22   ar
   107   149   148    1
   108   149   150    2
   109   151   148    1
   110    71    73    1
   111    71    72    1
   112   128   129    1
   113   115   112    1
   114   115   116    1
   115    72    74    1
   116   113   112    1
   117   113   114    2
   118   112   111    1
   119   129   132    1
   120    19    18   ar
   121    56    55    2
   122    22    20   ar
   123   116   117    1
   124   109   108    1
   125    59    61   ar
   126    59    58   ar
   127    61    62   ar
   128    55    54    1
   129   132   133    1
   130   110   108    1
   131    54    53    1
   132    54    57    1
   133    18    20   ar
   134    18    17    1
   135   133   135   ar
   136   133   134   ar
   137   108   107    1
   138   135   137   ar
   139   134   136   ar
   140    58    57    1
   141    58    60   ar
   142    62    64   ar
   143    62    60   ar
   144   137   138   ar
   145   136   138   ar
   146    17    14    1
   147   138   139    1
   148    64    66   ar
   149    35    32    1
   150    60    63   ar
   151   107   104    1
   152    44    43    1
   153    14    13    1
   154    14    15    1
   155    31    32    1
   156    34    33    2
   157   105   104    1
   158   105   106    2
   159    32    33    1
   160   104   103    1
   161    51    50    1
   162    66    65   ar
   163    10     9    1
   164    10    11    1
   165    16    15    2
   166    63    65   ar
   167    52    50    1
   168    41    40    1
   169    41    42    1
   170    43    42    1
   171    40    37    1
   172    29    28    1
   173     7     6    1
   174    30    28    1
   175    12    11    2
   176     9     3   am
   177    50    49    1
   178    28    25    1
   179     5     6    1
   180     5     2    1
   181     8     6    1
   182    36    37    1
   183    37    38    1
   184     3     4    2
   185     3     2    1
   186    49    46    1
   187     2     1    1
   188    39    38    2
   189    25    26    1
   190    25    24    1
   191    26    27    2
   192    46    45    1
   193    46    47    1
   194    47    48    2
