@<TRIPOS>MOLECULE
tmp/3nyyA01.pdb
 94 90 0 0 0
SMALL
GASTEIGER

@<TRIPOS>ATOM
      1  N         34.0710   52.9220   -1.0190 N.3   121  GLY121     -0.1210
      2  CA        32.9010   52.4230   -1.7210 C.3   121  GLY121      0.1956
      3  C         33.1640   51.2140   -2.5930 C.2   121  GLY121      0.2611
      4  O         32.2140   50.6970   -3.1980 O.2   121  GLY121     -0.2717
      5  N         34.4370   50.8050   -2.6800 N.am  122  HIS122     -0.1975
      6  CA        34.9050   49.7200   -3.5510 C.3   122  HIS122      0.1656
      7  C         35.5680   48.5900   -2.7600 C.2   122  HIS122      0.2291
      8  O         36.3210   47.7720   -3.3060 O.2   122  HIS122     -0.2864
      9  CB        35.8680   50.2910   -4.6020 C.3   122  HIS122      0.0771
     10  CG        35.2010   51.2130   -5.5620 C.ar  122  HIS122      0.0820
     11  ND1       34.7270   50.7870   -6.7860 N.ar  122  HIS122     -0.2267
     12  CD2       34.8920   52.5280   -5.4700 C.ar  122  HIS122      0.1154
     13  CE1       34.1650   51.8080   -7.4130 C.ar  122  HIS122      0.1986
     14  NE2       34.2320   52.8700   -6.6270 N.ar  122  HIS122     -0.2212
     15  N         21.3130   43.2330  -12.4580 N.3   146  THR146     -0.1203
     16  CA        20.9330   44.5990  -12.0970 C.3   146  THR146      0.1994
     17  C         21.7610   45.6640  -12.7930 C.2   146  THR146      0.2617
     18  O         21.2480   46.7420  -13.1120 O.2   146  THR146     -0.2717
     19  CB        21.0860   44.7910  -10.5730 C.3   146  THR146      0.1784
     20  OG1       20.2700   43.8240   -9.9150 O.3   146  THR146     -0.2211
     21  CG2       20.7160   46.2100  -10.1160 C.3   146  THR146      0.0376
     22  N         23.0700   45.3920  -12.9440 N.am  147  GLU147     -0.1979
     23  CA        23.9490   46.2870  -13.6800 C.3   147  GLU147      0.1602
     24  C         24.8940   45.4670  -14.5320 C.2   147  GLU147      0.2287
     25  O         25.2890   44.3440  -14.1520 O.2   147  GLU147     -0.2864
     26  CB        24.7320   47.1990  -12.7210 C.3   147  GLU147      0.0415
     27  CG        23.8670   48.2900  -12.0880 C.3   147  GLU147      0.1163
     28  CD        24.6210   49.2140  -11.1510 C.2   147  GLU147      0.3649
     29  OE1       25.4110   48.7160  -10.3270 O.co2 147  GLU147     -0.2457
     30  OE2       24.4100   50.4450  -11.2250 O.co2 147  GLU147     -0.2457
     31  N         32.8600   50.3060  -15.5710 N.3   151  LEU151     -0.1245
     32  CA        33.1580   51.3990  -14.6210 C.3   151  LEU151      0.1561
     33  C         34.6530   51.6550  -14.6230 C.2   151  LEU151      0.2260
     34  O         35.4300   50.7150  -14.7280 O.2   151  LEU151     -0.2867
     35  CB        32.7210   51.0700  -13.1890 C.3   151  LEU151      0.0270
     36  CG        31.2610   50.9880  -12.8500 C.3   151  LEU151      0.0019
     37  CD1       31.0890   50.6090  -11.3380 C.3   151  LEU151      0.0001
     38  CD2       30.5040   52.2640  -13.1530 C.3   151  LEU151      0.0001
     39  N         32.2610   45.1050  -15.1930 N.3   157  ARG157     -0.1245
     40  CA        31.6250   44.5770  -14.0240 C.3   157  ARG157      0.1563
     41  C         30.1960   44.1780  -14.3130 C.2   157  ARG157      0.2260
     42  O         29.5680   44.6090  -15.2870 O.2   157  ARG157     -0.2867
     43  CB        31.7020   45.5460  -12.8200 C.3   157  ARG157      0.0307
     44  CG        31.0100   46.9090  -12.9180 C.3   157  ARG157      0.0489
     45  CD        29.5050   46.7710  -12.6870 C.3   157  ARG157      0.2205
     46  NE        28.7820   47.9980  -12.3770 N.pl3 157  ARG157     -0.0865
     47  CZ        28.3070   48.8520  -13.2760 C.cat 157  ARG157      0.5346
     48  NH1       28.4910   48.6650  -14.5980 N.pl3 157  ARG157      0.1354
     49  NH2       27.6650   49.9360  -12.8510 N.pl3 157  ARG157      0.1354
     50  N         23.2700   42.8320   -3.1030 N.3   167  TYR167     -0.1241
     51  CA        23.8140   43.0700   -4.4390 C.3   167  TYR167      0.1605
     52  C         25.2250   42.4780   -4.4470 C.2   167  TYR167      0.2264
     53  O         26.0910   42.9100   -3.6860 O.2   167  TYR167     -0.2867
     54  CB        23.8560   44.5650   -4.6900 C.3   167  TYR167      0.0534
     55  CG        24.4170   44.9730   -6.0290 C.ar  167  TYR167     -0.0201
     56  CD1       25.7460   45.2290   -6.1590 C.ar  167  TYR167     -0.0009
     57  CD2       23.6030   45.2420   -7.1080 C.ar  167  TYR167     -0.0009
     58  CE1       26.2990   45.6330   -7.3720 C.ar  167  TYR167      0.0417
     59  CE2       24.1520   45.6690   -8.3230 C.ar  167  TYR167      0.0417
     60  CZ        25.4880   45.8820   -8.4280 C.ar  167  TYR167      0.1957
     61  OH        26.0630   46.3260   -9.6160 O.3   167  TYR167     -0.2866
     62  N         28.6380   42.0090   -6.4970 N.3   169  TYR169     -0.1241
     63  CA        29.3620   42.7980   -7.4590 C.3   169  TYR169      0.1605
     64  C         30.5860   42.0690   -7.9200 C.2   169  TYR169      0.2264
     65  O         31.3840   41.6870   -7.0830 O.2   169  TYR169     -0.2867
     66  CB        29.7460   44.1160   -6.7590 C.3   169  TYR169      0.0534
     67  CG        30.6130   45.0930   -7.5270 C.ar  169  TYR169     -0.0201
     68  CD1       30.1310   45.7470   -8.6560 C.ar  169  TYR169     -0.0009
     69  CD2       31.9010   45.3910   -7.1110 C.ar  169  TYR169     -0.0009
     70  CE1       30.9440   46.6650   -9.3210 C.ar  169  TYR169      0.0417
     71  CE2       32.6730   46.3160   -7.7680 C.ar  169  TYR169      0.0417
     72  CZ        32.1890   46.9560   -8.8710 C.ar  169  TYR169      0.1957
     73  OH        32.9750   47.8770   -9.5650 O.3   169  TYR169     -0.2866
     74  N         26.9450   44.3130   -1.3280 N.3   216  TYR216     -0.1241
     75  CA        26.3710   45.5800   -0.8880 C.3   216  TYR216      0.1605
     76  C         24.9440   45.4010   -0.3900 C.2   216  TYR216      0.2264
     77  O         24.1120   44.7220   -1.0320 O.2   216  TYR216     -0.2867
     78  CB        26.3400   46.6250   -2.0270 C.3   216  TYR216      0.0534
     79  CG        27.7000   47.0590   -2.5060 C.ar  216  TYR216     -0.0201
     80  CD1       28.4570   46.2310   -3.3270 C.ar  216  TYR216     -0.0009
     81  CD2       28.2490   48.2740   -2.1130 C.ar  216  TYR216     -0.0009
     82  CE1       29.7050   46.6250   -3.7810 C.ar  216  TYR216      0.0417
     83  CE2       29.5120   48.6740   -2.5630 C.ar  216  TYR216      0.0417
     84  CZ        30.2210   47.8440   -3.3970 C.ar  216  TYR216      0.1957
     85  OH        31.5010   48.2510   -3.8220 O.3   216  TYR216     -0.2866
     86  N         24.0880   52.4230   -0.8790 N.3   223  GLU223     -0.1245
     87  CA        24.5660   51.0470   -0.9810 C.3   223  GLU223      0.1567
     88  C         25.8250   50.9820   -0.1560 C.2   223  GLU223      0.2260
     89  O         26.7380   51.7850   -0.3660 O.2   223  GLU223     -0.2867
     90  CB        24.8540   50.6850   -2.4310 C.3   223  GLU223      0.0388
     91  CG        23.5770   50.6130   -3.2800 C.3   223  GLU223      0.1160
     92  CD        22.8280   49.3420   -3.1240 C.2   223  GLU223      0.3649
     93  OE1       23.2300   48.5000   -2.3080 O.co2 223  GLU223     -0.2457
     94  OE2       21.7870   49.1880   -3.7800 O.co2 223  GLU223     -0.2457
@<TRIPOS>BOND
     1    31    32    1
     2    42    41    2
     3    39    40    1
     4    34    33    2
     5    33    32    1
     6    32    35    1
     7    48    47    1
     8    24    25    2
     9    24    23    1
    10    41    40    1
    11    40    43    1
    12    23    22    1
    13    23    26    1
    14    47    49    1
    15    47    46    2
    16    35    36    1
    17    38    36    1
    18    18    17    2
    19    22    17   am
    20    44    43    1
    21    44    45    1
    22    36    37    1
    23    17    16    1
    24    26    27    1
    25    45    46    1
    26    15    16    1
    27    16    19    1
    28    27    28    1
    29    30    28   ar
    30    28    29   ar
    31    19    21    1
    32    19    20    1
    33    61    60    1
    34    73    72    1
    35    70    72   ar
    36    70    68   ar
    37    72    71   ar
    38    68    67   ar
    39    60    59   ar
    40    60    58   ar
    41    59    57   ar
    42    64    63    1
    43    64    65    2
    44    71    69   ar
    45    67    69   ar
    46    67    66    1
    47    63    66    1
    48    63    62    1
    49    13    11   ar
    50    13    14   ar
    51    58    56   ar
    52    57    55   ar
    53    11    10   ar
    54    14    12   ar
    55    56    55   ar
    56    55    54    1
    57    10    12   ar
    58    10     9    1
    59    54    51    1
    60     9     6    1
    61    52    51    1
    62    52    53    2
    63    51    50    1
    64    85    84    1
    65    82    84   ar
    66    82    80   ar
    67    94    92   ar
    68     6     7    1
    69     6     5    1
    70    84    83   ar
    71    80    79   ar
    72     8     7    2
    73    91    92    1
    74    91    90    1
    75     4     3    2
    76    92    93   ar
    77     5     3   am
    78     3     2    1
    79    83    81   ar
    80    79    81   ar
    81    79    78    1
    82    90    87    1
    83    78    75    1
    84     2     1    1
    85    74    75    1
    86    77    76    2
    87    87    86    1
    88    87    88    1
    89    75    76    1
    90    89    88    2
