@<TRIPOS>MOLECULE
tmp/3nz1A00.pdb
 121 116 0 0 0
SMALL
GASTEIGER

@<TRIPOS>ATOM
      1  N         25.7640   -3.8160   14.3190 N.3    50  ALA50      -0.1231
      2  CA        26.9820   -4.5970   14.2660 C.3    50  ALA50       0.1694
      3  C         28.1190   -3.9880   15.0640 C.2    50  ALA50       0.2592
      4  O         28.3650   -2.7260   15.0220 O.2    50  ALA50      -0.2718
      5  CB        27.4200   -4.8370   12.7980 C.3    50  ALA50       0.0304
      6  N         28.8670   -4.8910   15.7160 N.am   51  TYR51      -0.1962
      7  CA        30.1830   -4.4930   16.2560 C.3    51  TYR51       0.1771
      8  C         31.1740   -5.0070   15.2660 C.2    51  TYR51       0.2619
      9  O         31.2770   -6.2330   15.0250 O.2    51  TYR51      -0.2715
     10  CB        30.4230   -5.0470   17.6430 C.3    51  TYR51       0.0574
     11  CG        31.8860   -4.8440   18.0540 C.ar   51  TYR51      -0.0198
     12  CD1       32.2880   -3.6360   18.6110 C.ar   51  TYR51      -0.0009
     13  CD2       32.8430   -5.7720   17.7120 C.ar   51  TYR51      -0.0009
     14  CE1       33.6100   -3.4230   18.9010 C.ar   51  TYR51       0.0417
     15  CE2       34.2020   -5.5520   17.9880 C.ar   51  TYR51       0.0417
     16  CZ        34.5400   -4.3310   18.5690 C.ar   51  TYR51       0.1957
     17  OH        35.9290   -4.1880   18.7770 O.3    51  TYR51      -0.2866
     18  N         31.9840   -4.1090   14.6940 N.am   52  LYS52      -0.1977
     19  CA        33.1270   -4.5600   13.8290 C.3    52  LYS52       0.1596
     20  C         34.2710   -3.5680   14.0230 C.2    52  LYS52       0.2287
     21  O         34.1380   -2.3840   13.7550 O.2    52  LYS52      -0.2864
     22  CB        32.7540   -4.6220   12.3390 C.3    52  LYS52       0.0298
     23  CG        32.0780   -3.4300   11.8240 C.3    52  LYS52       0.0038
     24  CD        31.9880   -3.5680   10.2890 C.3    52  LYS52       0.0206
     25  CE        30.8960   -2.6690    9.8520 C.3    52  LYS52       0.1093
     26  NZ        30.8080   -2.6670    8.3210 N.3    52  LYS52      -0.1314
     27  N         25.2200   -8.0610   15.7550 N.3    80  ALA80      -0.1245
     28  CA        26.0910   -8.9020   14.9240 C.3    80  ALA80       0.1562
     29  C         27.5040   -8.5940   15.2350 C.2    80  ALA80       0.2260
     30  O         27.8380   -7.4410   15.2960 O.2    80  ALA80      -0.2867
     31  CB        25.8340   -8.6280   13.4050 C.3    80  ALA80       0.0290
     32  N         31.4460   -9.1360   14.4260 N.3    82  ALA82      -0.1245
     33  CA        32.3880   -9.5870   13.4070 C.3    82  ALA82       0.1562
     34  C         33.6000  -10.2020   14.0550 C.2    82  ALA82       0.2260
     35  O         34.3570   -9.5270   14.7470 O.2    82  ALA82      -0.2867
     36  CB        32.7790   -8.3620   12.5190 C.3    82  ALA82       0.0290
     37  N         38.5800   -7.9990    9.3650 N.3    88  PHE88      -0.1241
     38  CA        37.6240   -7.3450   10.3110 C.3    88  PHE88       0.1605
     39  C         38.2600   -7.1080   11.6750 C.2    88  PHE88       0.2264
     40  O         37.5880   -6.5690   12.5910 O.2    88  PHE88      -0.2867
     41  CB        36.3250   -8.1400   10.4430 C.3    88  PHE88       0.0534
     42  CG        35.5190   -8.1430    9.1330 C.ar   88  PHE88      -0.0203
     43  CD1       35.9270   -8.9540    8.0790 C.ar   88  PHE88      -0.0042
     44  CD2       34.3960   -7.3060    8.9760 C.ar   88  PHE88      -0.0042
     45  CE1       35.2250   -8.9920    6.8200 C.ar   88  PHE88      -0.0003
     46  CE2       33.6790   -7.3440    7.7480 C.ar   88  PHE88      -0.0003
     47  CZ        34.0890   -8.1590    6.6930 C.ar   88  PHE88      -0.0000
     48  N         24.2370  -12.5290   16.4100 N.3   107  LEU107     -0.1245
     49  CA        24.6870  -13.2440   15.2040 C.3   107  LEU107      0.1561
     50  C         26.2090  -13.1680   15.1330 C.2   107  LEU107      0.2260
     51  O         26.7810  -12.0280   15.2860 O.2   107  LEU107     -0.2867
     52  CB        24.0200  -12.5220   13.9940 C.3   107  LEU107      0.0270
     53  CG        24.3960  -13.1720   12.6470 C.3   107  LEU107      0.0019
     54  CD1       23.2220  -13.1090   11.6720 C.3   107  LEU107      0.0001
     55  CD2       25.6050  -12.4380   12.0420 C.3   107  LEU107      0.0001
     56  N         29.2580  -12.9000   12.8490 N.3   109  TRP109     -0.1241
     57  CA        29.5620  -12.5600   11.4600 C.3   109  TRP109      0.1605
     58  C         30.9690  -12.9300   11.1480 C.2   109  TRP109      0.2264
     59  O         31.9330  -12.3880   11.7200 O.2   109  TRP109     -0.2867
     60  CB        29.2510  -11.0320   11.1720 C.3   109  TRP109      0.0550
     61  CG        29.8350  -10.6330    9.8410 C.ar  109  TRP109      0.0003
     62  CD1       31.0520   -9.9960    9.6040 C.ar  109  TRP109      0.0946
     63  CD2       29.3380  -11.0070    8.5120 C.ar  109  TRP109      0.0152
     64  NE1       31.2900   -9.8680    8.2220 N.ar  109  TRP109     -0.2442
     65  CE2       30.2540  -10.4710    7.5440 C.ar  109  TRP109      0.0810
     66  CE3       28.1480  -11.5930    8.0660 C.ar  109  TRP109      0.0012
     67  CZ2       30.0470  -10.5930    6.1620 C.ar  109  TRP109      0.0191
     68  CZ3       27.9210  -11.7020    6.6730 C.ar  109  TRP109      0.0001
     69  CH2       28.8670  -11.2100    5.7440 C.ar  109  TRP109      0.0015
     70  N         23.1030  -15.0440    3.3800 N.3   158  VAL158     -0.1245
     71  CA        23.4660  -13.7200    2.7870 C.3   158  VAL158      0.1561
     72  C         23.4850  -13.8180    1.2350 C.2   158  VAL158      0.2260
     73  O         24.2810  -14.6220    0.6650 O.2   158  VAL158     -0.2867
     74  CB        24.8570  -13.3090    3.2980 C.3   158  VAL158      0.0252
     75  CG1       25.2960  -11.8520    2.7680 C.3   158  VAL158      0.0019
     76  CG2       24.9180  -13.2820    4.8450 C.3   158  VAL158      0.0019
     77  N         19.5020  -12.2980    4.4740 N.3   177  GLU177     -0.1245
     78  CA        20.0990  -10.9830    4.5030 C.3   177  GLU177      0.1567
     79  C         20.3600  -10.5520    3.0760 C.2   177  GLU177      0.2260
     80  O         21.0930  -11.2380    2.3310 O.2   177  GLU177     -0.2867
     81  CB        21.4070  -11.0630    5.2600 C.3   177  GLU177      0.0388
     82  CG        22.1440   -9.7070    5.0370 C.3   177  GLU177      0.1160
     83  CD        23.6250   -9.6960    5.5090 C.2   177  GLU177      0.3649
     84  OE1       24.4700   -8.8700    4.9470 O.co2 177  GLU177     -0.2457
     85  OE2       23.9140  -10.4600    6.4840 O.co2 177  GLU177     -0.2457
     86  N         22.2050   -8.1990    1.0900 N.3   179  ALA179     -0.1245
     87  CA        23.4290   -7.3500    1.2490 C.3   179  ALA179      0.1562
     88  C         23.5480   -6.4680    0.0110 C.2   179  ALA179      0.2260
     89  O         23.6140   -6.9820   -1.1340 O.2   179  ALA179     -0.2867
     90  CB        24.6660   -8.2480    1.3990 C.3   179  ALA179      0.0290
     91  N         30.4610   -8.5950   -2.4870 N.3   183  LEU183     -0.1245
     92  CA        31.6260   -8.9820   -1.6610 C.3   183  LEU183      0.1561
     93  C         32.9370   -8.8720   -2.4070 C.2   183  LEU183      0.2260
     94  O         33.9860   -8.5480   -1.8310 O.2   183  LEU183     -0.2867
     95  CB        31.4900  -10.4490   -1.1510 C.3   183  LEU183      0.0270
     96  CG        30.6090  -10.5510    0.0710 C.3   183  LEU183      0.0019
     97  CD1       30.5330  -12.0340    0.4040 C.3   183  LEU183      0.0001
     98  CD2       31.3140   -9.8510    1.2440 C.3   183  LEU183      0.0001
     99  N         20.8590   -5.0390    4.4490 N.3   209  TRP209     -0.1227
    100  CA        22.1160   -4.8130    5.1270 C.3   209  TRP209      0.1737
    101  C         22.9690   -4.0350    4.1900 C.2   209  TRP209      0.2595
    102  O         23.0130   -4.3040    2.9920 O.2   209  TRP209     -0.2718
    103  CB        22.8540   -6.1270    5.4000 C.3   209  TRP209      0.0564
    104  CG        23.7430   -5.9650    6.7120 C.ar  209  TRP209      0.0003
    105  CD1       24.7790   -5.1350    6.9430 C.ar  209  TRP209      0.0946
    106  CD2       23.4900   -6.6590    7.9380 C.ar  209  TRP209      0.0152
    107  NE1       25.2310   -5.2640    8.2580 N.ar  209  TRP209     -0.2442
    108  CE2       24.4610   -6.2110    8.8860 C.ar  209  TRP209      0.0810
    109  CE3       22.5540   -7.6330    8.2990 C.ar  209  TRP209      0.0012
    110  CZ2       24.4880   -6.6680   10.2080 C.ar  209  TRP209      0.0191
    111  CZ3       22.6130   -8.1320    9.6520 C.ar  209  TRP209      0.0001
    112  CH2       23.5860   -7.6650   10.5390 C.ar  209  TRP209      0.0015
    113  N         23.7300   -3.0900    4.7590 N.am  210  GLN210     -0.1979
    114  CA        24.7730   -2.3160    4.1120 C.3   210  GLN210      0.1601
    115  C         24.2820   -1.0660    3.4300 C.2   210  GLN210      0.2287
    116  O         23.3220   -1.0990    2.6810 O.2   210  GLN210     -0.2864
    117  CB        25.7540   -3.1030    3.2140 C.3   210  GLN210      0.0394
    118  CG        26.3220   -4.3690    3.8590 C.3   210  GLN210      0.0908
    119  CD        26.9880   -5.2990    2.9130 C.2   210  GLN210      0.2608
    120  OE1       26.3760   -5.6150    1.9070 O.2   210  GLN210     -0.2717
    121  NE2       28.2530   -5.6220    3.1190 N.am  210  GLN210     -0.0878
@<TRIPOS>BOND
     1    91    92    1
     2    93    94    2
     3    93    92    1
     4    92    95    1
     5    95    96    1
     6    89    88    2
     7    88    87    1
     8    96    97    1
     9    96    98    1
    10    73    72    2
    11    86    87    1
    12    72    71    1
    13    87    90    1
    14   120   119    2
    15    80    79    2
    16   116   115    2
    17    75    74    1
    18    71    74    1
    19    71    70    1
    20   119   121   am
    21   119   118    1
    22   102   101    2
    23    79    78    1
    24   117   118    1
    25   117   114    1
    26    74    76    1
    27   115   114    1
    28   114   113    1
    29   101   113   am
    30   101   100    1
    31    99   100    1
    32    77    78    1
    33    78    81    1
    34    84    83   ar
    35    82    81    1
    36    82    83    1
    37   100   103    1
    38   103   104    1
    39    83    85   ar
    40    69    67   ar
    41    69    68   ar
    42    67    65   ar
    43    68    66   ar
    44    47    45   ar
    45    47    46   ar
    46   104   105   ar
    47   104   106   ar
    48    45    43   ar
    49   105   107   ar
    50    65    64   ar
    51    65    63   ar
    52    46    44   ar
    53   106   109   ar
    54   106   108   ar
    55    66    63   ar
    56    43    42   ar
    57    64    62   ar
    58   107   108   ar
    59   109   111   ar
    60    26    25    1
    61    63    61   ar
    62   108   110   ar
    63    44    42   ar
    64    42    41    1
    65    37    38    1
    66    62    61   ar
    67   111   112   ar
    68    61    60    1
    69    25    24    1
    70   110   112   ar
    71    24    23    1
    72    38    41    1
    73    38    39    1
    74    58    57    1
    75    58    59    2
    76    60    57    1
    77    57    56    1
    78    54    53    1
    79    39    40    2
    80    23    22    1
    81    55    53    1
    82    22    19    1
    83    36    33    1
    84    53    52    1
    85     5     2    1
    86    31    28    1
    87    33    34    1
    88    33    32    1
    89    21    20    2
    90    19    20    1
    91    19    18    1
    92    52    49    1
    93    34    35    2
    94     2     1    1
    95     2     3    1
    96    18     8   am
    97    28    29    1
    98    28    27    1
    99     4     3    2
   100     9     8    2
   101     3     6   am
   102    50    49    1
   103    50    51    2
   104    49    48    1
   105    29    30    2
   106     8     7    1
   107     6     7    1
   108     7    10    1
   109    10    11    1
   110    13    15   ar
   111    13    11   ar
   112    15    16   ar
   113    11    12   ar
   114    16    17    1
   115    16    14   ar
   116    12    14   ar
