@<TRIPOS>MOLECULE
tmp/3nz2I00.pdb
 102 96 0 0 0
SMALL
GASTEIGER

@<TRIPOS>ATOM
      1  N         30.8690   68.1070  116.3800 N.3    84  LEU84      -0.1245
      2  CA        30.6970   68.6450  115.0480 C.3    84  LEU84       0.1561
      3  C         29.6190   69.6590  115.3680 C.2    84  LEU84       0.2260
      4  O         28.4760   69.3090  115.5670 O.2    84  LEU84      -0.2867
      5  CB        30.1470   67.5690  114.1210 C.3    84  LEU84       0.0270
      6  CG        31.1160   66.7590  113.2600 C.3    84  LEU84       0.0019
      7  CD1       32.3280   66.3600  114.0220 C.3    84  LEU84       0.0001
      8  CD2       30.4620   65.5790  112.6200 C.3    84  LEU84       0.0001
      9  N         27.1720   65.1770  117.0230 N.3   104  TYR104     -0.1241
     10  CA        27.2010   65.3090  115.5780 C.3   104  TYR104      0.1605
     11  C         25.9890   66.1290  115.1220 C.2   104  TYR104      0.2264
     12  O         24.9160   65.6060  114.8270 O.2   104  TYR104     -0.2867
     13  CB        27.1370   63.9360  114.8920 C.3   104  TYR104      0.0534
     14  CG        28.2190   62.9520  115.2190 C.ar  104  TYR104     -0.0201
     15  CD1       29.4840   63.3830  115.5980 C.ar  104  TYR104     -0.0009
     16  CD2       27.9840   61.5830  115.1280 C.ar  104  TYR104     -0.0009
     17  CE1       30.4930   62.4820  115.8990 C.ar  104  TYR104      0.0417
     18  CE2       28.9770   60.6610  115.4230 C.ar  104  TYR104      0.0417
     19  CZ        30.2530   61.1220  115.8040 C.ar  104  TYR104      0.1957
     20  OH        31.2880   60.2520  116.0940 O.3   104  TYR104     -0.2866
     21  N         25.9980   67.4700  112.4080 N.3   106  ALA106     -0.1231
     22  CA        26.0730   67.4380  110.9590 C.3   106  ALA106      0.1694
     23  C         25.4920   66.1430  110.4530 C.2   106  ALA106      0.2593
     24  O         25.4500   65.1590  111.1730 O.2   106  ALA106     -0.2718
     25  CB        27.5330   67.5970  110.5060 C.3   106  ALA106      0.0304
     26  N         25.0330   66.1420  109.2100 N.am  107  SER107     -0.1938
     27  CA        24.6320   64.8920  108.5900 C.3   107  SER107      0.2055
     28  C         24.6320   64.9830  107.0670 C.2   107  SER107      0.2643
     29  O         24.8340   66.0440  106.5040 O.2   107  SER107     -0.2714
     30  CB        23.2770   64.4370  109.1170 C.3   107  SER107      0.2130
     31  OG        23.2000   63.0170  109.1050 O.3   107  SER107     -0.2179
     32  N         24.4190   63.8500  106.4100 N.am  108  HIS108     -0.1973
     33  CA        24.4140   63.7950  104.9530 C.3   108  HIS108      0.1656
     34  C         23.1780   63.0620  104.4530 C.2   108  HIS108      0.2291
     35  O         22.3810   62.5490  105.2360 O.2   108  HIS108     -0.2864
     36  CB        25.6860   63.1000  104.4560 C.3   108  HIS108      0.0771
     37  CG        26.9380   63.7500  104.9470 C.ar  108  HIS108      0.0820
     38  ND1       27.3920   64.9520  104.4480 N.ar  108  HIS108     -0.2267
     39  CD2       27.8080   63.3920  105.9190 C.ar  108  HIS108      0.1154
     40  CE1       28.4950   65.3040  105.0840 C.ar  108  HIS108      0.1986
     41  NE2       28.7760   64.3640  105.9720 N.ar  108  HIS108     -0.2212
     42  N         21.4260   59.8840  102.4420 N.3   110  LEU110     -0.1245
     43  CA        21.6810   58.4620  102.1840 C.3   110  LEU110      0.1561
     44  C         21.8710   58.1930  100.6970 C.2   110  LEU110      0.2260
     45  O         22.3010   57.1110  100.2820 O.2   110  LEU110     -0.2867
     46  CB        20.5360   57.6170  102.7250 C.3   110  LEU110      0.0270
     47  CG        20.3920   57.6800  104.2430 C.3   110  LEU110      0.0019
     48  CD1       19.1420   56.9150  104.6990 C.3   110  LEU110      0.0001
     49  CD2       21.6570   57.0960  104.9010 C.3   110  LEU110      0.0001
     50  N         27.3400   58.5610  121.3750 N.3   138  VAL138     -0.1245
     51  CA        27.1630   59.3550  120.1730 C.3   138  VAL138      0.1561
     52  C         25.8110   60.0330  120.2160 C.2   138  VAL138      0.2260
     53  O         24.7950   59.3860  120.4760 O.2   138  VAL138     -0.2867
     54  CB        27.2380   58.5240  118.8910 C.3   138  VAL138      0.0252
     55  CG1       26.6450   59.3190  117.7150 C.3   138  VAL138      0.0019
     56  CG2       28.6920   58.0980  118.6150 C.3   138  VAL138      0.0019
     57  N         23.3110   62.2790  117.8720 N.3   140  ASN140     -0.1240
     58  CA        23.0800   62.7730  116.5220 C.3   140  ASN140      0.1653
     59  C         22.2760   64.0480  116.4780 C.2   140  ASN140      0.2266
     60  O         21.8940   64.5870  117.5050 O.2   140  ASN140     -0.2867
     61  CB        22.4780   61.7100  115.6020 C.3   140  ASN140      0.1155
     62  CG        23.4630   60.5950  115.2810 C.2   140  ASN140      0.2627
     63  OD1       24.5320   60.8230  114.6850 O.2   140  ASN140     -0.2716
     64  ND2       23.1040   59.3770  115.6670 N.am  140  ASN140     -0.0877
     65  N         23.9070   55.2120  121.0550 N.3   156  VAL156     -0.1245
     66  CA        23.6640   56.1230  119.9500 C.3   156  VAL156      0.1561
     67  C         22.2420   56.7390  120.1020 C.2   156  VAL156      0.2260
     68  O         21.2310   56.0510  120.0510 O.2   156  VAL156     -0.2867
     69  CB        23.8740   55.4210  118.5770 C.3   156  VAL156      0.0252
     70  CG1       23.4580   56.3300  117.4230 C.3   156  VAL156      0.0019
     71  CG2       25.3230   55.0490  118.4190 C.3   156  VAL156      0.0019
     72  N         19.3680   58.9190  118.7150 N.3   158  ASN158     -0.1225
     73  CA        18.9200   59.3180  117.3830 C.3   158  ASN158      0.1785
     74  C         17.7550   60.2430  117.4040 C.2   158  ASN158      0.2597
     75  O         17.5170   60.9220  116.4290 O.2   158  ASN158     -0.2718
     76  CB        18.5350   58.1100  116.5140 C.3   158  ASN158      0.1169
     77  CG        19.7290   57.4580  115.8660 C.2   158  ASN158      0.2627
     78  OD1       20.8030   58.0720  115.7320 O.2   158  ASN158     -0.2716
     79  ND2       19.5530   56.2130  115.4410 N.am  158  ASN158     -0.0877
     80  N         17.0060   60.2380  118.4980 N.am  159  GLN159     -0.1979
     81  CA        15.8240   61.0780  118.5890 C.3   159  GLN159      0.1601
     82  C         15.6290   61.5260  120.0210 C.2   159  GLN159      0.2287
     83  O         16.3380   61.0720  120.9130 O.2   159  GLN159     -0.2864
     84  CB        14.5910   60.3290  118.0940 C.3   159  GLN159      0.0394
     85  CG        14.2670   59.0650  118.8710 C.3   159  GLN159      0.0908
     86  CD        13.3220   58.1460  118.1070 C.2   159  GLN159      0.2608
     87  OE1       13.7330   57.4480  117.1770 O.2   159  GLN159     -0.2717
     88  NE2       12.0500   58.1500  118.4900 N.am  159  GLN159     -0.0878
     89  N         21.8870   51.0740  121.0390 N.3   170  THR170     -0.1204
     90  CA        22.1370   51.6260  119.7300 C.3   170  THR170      0.1979
     91  C         21.1500   50.9920  118.8100 C.2   170  THR170      0.2459
     92  O         21.2980   49.8230  118.4910 O.2   170  THR170     -0.2732
     93  CB        23.5380   51.2770  119.2300 C.3   170  THR170      0.1783
     94  OG1       24.4840   51.7860  120.1530 O.3   170  THR170     -0.2211
     95  CG2       23.7820   51.8800  117.8520 C.3   170  THR170      0.0376
     96  N         20.1350   51.7690  118.3950 N.am  171  PRO171     -0.2728
     97  CA        19.9520   53.1370  118.9040 C.3   171  PRO171      0.1401
     98  C         19.4130   53.1420  120.3320 C.2   171  PRO171      0.2269
     99  O         18.9490   52.1110  120.8140 O.2   171  PRO171     -0.2865
    100  CB        18.8930   53.7130  117.9620 C.3   171  PRO171      0.0296
    101  CG        18.1190   52.5240  117.5530 C.3   171  PRO171      0.0237
    102  CD        19.1280   51.4330  117.3750 C.3   171  PRO171      0.0939
@<TRIPOS>BOND
     1    45    44    2
     2    44    43    1
     3    43    42    1
     4    43    46    1
     5    46    47    1
     6    47    48    1
     7    47    49    1
     8    38    37   ar
     9    38    40   ar
    10    34    33    1
    11    34    35    2
    12    36    37    1
    13    36    33    1
    14    37    39   ar
    15    33    32    1
    16    40    41   ar
    17    39    41   ar
    18    32    28   am
    19    29    28    2
    20    28    27    1
    21    27    30    1
    22    27    26    1
    23    31    30    1
    24    26    23   am
    25    23    22    1
    26    23    24    2
    27    25    22    1
    28    22    21    1
    29     8     6    1
    30     6     7    1
    31     6     5    1
    32     5     2    1
    33    63    62    2
    34    12    11    2
    35    13    14    1
    36    13    10    1
    37     2     3    1
    38     2     1    1
    39    11    10    1
    40    16    14   ar
    41    16    18   ar
    42    14    15   ar
    43    62    61    1
    44    62    64   am
    45     3     4    2
    46    18    19   ar
    47    79    77   am
    48    10     9    1
    49    15    17   ar
    50    61    58    1
    51    78    77    2
    52    19    17   ar
    53    19    20    1
    54    77    76    1
    55    75    74    2
    56    59    58    1
    57    59    60    2
    58    76    73    1
    59    58    57    1
    60    87    86    2
    61   102   101    1
    62   102    96    1
    63    73    74    1
    64    73    72    1
    65    74    80   am
    66    70    69    1
    67   101   100    1
    68    55    54    1
    69    95    93    1
    70   100    97    1
    71    84    81    1
    72    84    85    1
    73    86    88   am
    74    86    85    1
    75    96    91   am
    76    96    97    1
    77    71    69    1
    78    92    91    2
    79    80    81    1
    80    69    66    1
    81    81    82    1
    82    56    54    1
    83    91    90    1
    84    54    51    1
    85    97    98    1
    86    93    90    1
    87    93    94    1
    88    90    89    1
    89    66    67    1
    90    66    65    1
    91    82    83    2
    92    68    67    2
    93    51    52    1
    94    51    50    1
    95    52    53    2
    96    98    99    2
