@<TRIPOS>MOLECULE
tmp/3nz2I01.pdb
 154 149 0 0 0
SMALL
GASTEIGER

@<TRIPOS>ATOM
      1  N         30.2560   69.7970  134.0200 N.3    78  PHE78      -0.1241
      2  CA        31.5640   69.1750  133.7790 C.3    78  PHE78       0.1605
      3  C         31.6230   68.3360  132.4830 C.2    78  PHE78       0.2264
      4  O         30.8240   67.4370  132.2740 O.2    78  PHE78      -0.2867
      5  CB        31.9820   68.3170  134.9810 C.3    78  PHE78       0.0534
      6  CG        33.1770   67.4760  134.7250 C.ar   78  PHE78      -0.0203
      7  CD1       34.4510   67.9860  134.9000 C.ar   78  PHE78      -0.0042
      8  CD2       33.0440   66.1650  134.2930 C.ar   78  PHE78      -0.0042
      9  CE1       35.5820   67.1850  134.6500 C.ar   78  PHE78      -0.0003
     10  CE2       34.1630   65.3670  134.0530 C.ar   78  PHE78      -0.0003
     11  CZ        35.4310   65.8760  134.2270 C.ar   78  PHE78      -0.0000
     12  N         34.2860   65.8900  130.4620 N.3    80  ASN80      -0.1240
     13  CA        35.5020   65.0880  130.5080 C.3    80  ASN80       0.1653
     14  C         36.2430   65.0370  129.1690 C.2    80  ASN80       0.2266
     15  O         35.7430   65.5060  128.1700 O.2    80  ASN80      -0.2867
     16  CB        35.2150   63.6920  131.0740 C.3    80  ASN80       0.1155
     17  CG        36.3010   63.2030  132.0070 C.2    80  ASN80       0.2627
     18  OD1       37.4670   63.4610  131.7950 O.2    80  ASN80      -0.2716
     19  ND2       35.9160   62.4970  133.0370 N.am   80  ASN80      -0.0877
     20  N         26.8280   66.5320  133.1030 N.3    96  LEU96      -0.1231
     21  CA        28.0380   65.7190  133.1610 C.3    96  LEU96       0.1693
     22  C         28.1990   64.9060  131.8620 C.2    96  LEU96       0.2592
     23  O         27.3220   64.1290  131.4970 O.2    96  LEU96      -0.2718
     24  CB        27.9900   64.7660  134.3490 C.3    96  LEU96       0.0284
     25  CG        27.8430   65.3690  135.7370 C.3    96  LEU96       0.0019
     26  CD1       27.5570   64.2440  136.7580 C.3    96  LEU96       0.0001
     27  CD2       29.0810   66.1160  136.1090 C.3    96  LEU96       0.0001
     28  N         29.3220   65.0810  131.1660 N.am   97  ILE97      -0.1966
     29  CA        29.5120   64.4090  129.8760 C.3    97  ILE97       0.1727
     30  C         30.8000   63.5940  129.9010 C.2    97  ILE97       0.2617
     31  O         31.8700   64.1640  130.0100 O.2    97  ILE97      -0.2715
     32  CB        29.5310   65.4330  128.6810 C.3    97  ILE97       0.0290
     33  CG1       28.2320   66.2560  128.6390 C.3    97  ILE97       0.0022
     34  CG2       29.7470   64.7310  127.3430 C.3    97  ILE97       0.0023
     35  CD1       28.1410   67.3130  127.4970 C.3    97  ILE97       0.0001
     36  N         30.6960   62.2650  129.7800 N.am   98  GLY98      -0.1941
     37  CA        31.8610   61.3790  129.8330 C.3    98  GLY98       0.1998
     38  C         32.8640   61.4850  128.6930 C.2    98  GLY98       0.2480
     39  O         32.5460   62.0160  127.6260 O.2    98  GLY98      -0.2729
     40  N         34.0920   60.9540  128.9020 N.am   99  PRO99      -0.2726
     41  CA        35.1580   61.0280  127.9030 C.3    99  PRO99       0.1402
     42  C         34.7360   60.4490  126.5530 C.2    99  PRO99       0.2269
     43  O         33.9520   59.5050  126.5000 O.2    99  PRO99      -0.2865
     44  CB        36.2490   60.1290  128.5020 C.3    99  PRO99       0.0296
     45  CG        35.9400   60.0720  129.9510 C.3    99  PRO99       0.0237
     46  CD        34.4520   60.0370  129.9920 C.3    99  PRO99       0.0939
     47  N         23.0090   63.3940  132.9240 N.3   132  TRP132     -0.1227
     48  CA        24.2600   62.6370  132.9950 C.3   132  TRP132      0.1737
     49  C         24.4480   61.8230  131.7140 C.2   132  TRP132      0.2595
     50  O         23.6320   60.9670  131.3990 O.2   132  TRP132     -0.2718
     51  CB        24.2980   61.7290  134.2270 C.3   132  TRP132      0.0564
     52  CG        25.5260   60.8150  134.2460 C.ar  132  TRP132      0.0003
     53  CD1       26.7100   61.0150  133.5860 C.ar  132  TRP132      0.0946
     54  CD2       25.6730   59.5770  134.9560 C.ar  132  TRP132      0.0152
     55  NE1       27.5780   59.9920  133.8490 N.ar  132  TRP132     -0.2442
     56  CE2       26.9770   59.0930  134.6840 C.ar  132  TRP132      0.0810
     57  CE3       24.8290   58.8230  135.7850 C.ar  132  TRP132      0.0012
     58  CZ2       27.4590   57.8950  135.2080 C.ar  132  TRP132      0.0191
     59  CZ3       25.3040   57.6320  136.3190 C.ar  132  TRP132      0.0001
     60  CH2       26.6120   57.1790  136.0260 C.ar  132  TRP132      0.0015
     61  N         25.5000   62.1230  130.9620 N.am  133  ILE133     -0.1966
     62  CA        25.7990   61.3930  129.7230 C.3   133  ILE133      0.1727
     63  C         27.0570   60.5340  129.8360 C.2   133  ILE133      0.2617
     64  O         28.1490   61.0340  130.1330 O.2   133  ILE133     -0.2715
     65  CB        25.9570   62.3540  128.5300 C.3   133  ILE133      0.0290
     66  CG1       24.6040   63.0370  128.2400 C.3   133  ILE133      0.0022
     67  CG2       26.5700   61.6400  127.2900 C.3   133  ILE133      0.0023
     68  CD1       24.6090   63.9790  127.0660 C.3   133  ILE133      0.0001
     69  N         26.8900   59.2390  129.5750 N.am  134  GLY134     -0.1940
     70  CA        27.9600   58.2780  129.7380 C.3   134  GLY134      0.2014
     71  C         29.1010   58.5050  128.7710 C.2   134  GLY134      0.2639
     72  O         29.0160   59.3880  127.9150 O.2   134  GLY134     -0.2714
     73  N         30.1580   57.6940  128.9040 N.am  135  GLY135     -0.1954
     74  CA        31.3370   57.8090  128.0720 C.3   135  GLY135      0.1869
     75  C         31.1400   57.0970  126.7440 C.2   135  GLY135      0.2309
     76  O         30.4310   56.0800  126.6740 O.2   135  GLY135     -0.2863
     77  N         19.4910   60.3440  131.9340 N.3   150  VAL150     -0.1231
     78  CA        20.7700   59.6570  131.9290 C.3   150  VAL150      0.1692
     79  C         20.8520   58.8560  130.6410 C.2   150  VAL150      0.2592
     80  O         19.8920   58.1680  130.3000 O.2   150  VAL150     -0.2718
     81  CB        20.9350   58.7020  133.1610 C.3   150  VAL150      0.0266
     82  CG1       22.3450   58.0360  133.1800 C.3   150  VAL150      0.0020
     83  CG2       20.7350   59.4600  134.4720 C.3   150  VAL150      0.0020
     84  N         21.9910   58.9630  129.9350 N.am  151  VAL151     -0.1966
     85  CA        22.3010   58.1370  128.7490 C.3   151  VAL151      0.1727
     86  C         23.4460   57.1420  129.0300 C.2   151  VAL151      0.2616
     87  O         24.5050   57.5370  129.4660 O.2   151  VAL151     -0.2715
     88  CB        22.6440   59.0170  127.5170 C.3   151  VAL151      0.0290
     89  CG1       22.9180   58.1690  126.2670 C.3   151  VAL151      0.0023
     90  CG2       21.5140   60.0250  127.2510 C.3   151  VAL151      0.0023
     91  N         23.2220   55.8600  128.7590 N.am  152  ALA152     -0.1963
     92  CA        24.1630   54.7780  129.1070 C.3   152  ALA152      0.1728
     93  C         25.4750   54.8050  128.3020 C.2   152  ALA152      0.2616
     94  O         25.4980   55.2920  127.1800 O.2   152  ALA152     -0.2715
     95  CB        23.4590   53.3740  128.9620 C.3   152  ALA152      0.0334
     96  N         26.5650   54.2670  128.8470 N.am  153  ALA153     -0.1963
     97  CA        27.8040   54.2950  128.0740 C.3   153  ALA153      0.1728
     98  C         27.6450   53.6040  126.7150 C.2   153  ALA153      0.2616
     99  O         26.9540   52.5940  126.6000 O.2   153  ALA153     -0.2715
    100  CB        28.9480   53.7220  128.8570 C.3   153  ALA153      0.0334
    101  N         28.2440   54.1940  125.6870 N.am  154  ASN154     -0.1972
    102  CA        28.2990   53.6290  124.3250 C.3   154  ASN154      0.1688
    103  C         26.9990   53.6490  123.5040 C.2   154  ASN154      0.2292
    104  O         26.9090   52.9750  122.4740 O.2   154  ASN154     -0.2864
    105  CB        28.9500   52.2200  124.3250 C.3   154  ASN154      0.1181
    106  CG        29.2660   51.7110  122.9230 C.2   154  ASN154      0.2629
    107  OD1       29.7340   52.4780  122.0640 O.2   154  ASN154     -0.2716
    108  ND2       29.0180   50.3980  122.6790 N.am  154  ASN154     -0.0877
    109  N         16.2370   57.0700  132.1380 N.3   166  LEU166     -0.1245
    110  CA        17.4530   56.3470  131.7920 C.3   166  LEU166      0.1561
    111  C         17.2550   55.6550  130.4250 C.2   166  LEU166      0.2260
    112  O         16.2640   54.9370  130.2340 O.2   166  LEU166     -0.2867
    113  CB        17.7440   55.3170  132.8810 C.3   166  LEU166      0.0270
    114  CG        18.7110   54.1820  132.5530 C.3   166  LEU166      0.0019
    115  CD1       20.0440   54.7640  132.1710 C.3   166  LEU166      0.0001
    116  CD2       18.8690   53.2420  133.7640 C.3   166  LEU166      0.0001
    117  N         19.4460   53.5790  127.0020 N.3   168  GLY168     -0.1210
    118  CA        20.6350   52.8620  126.6360 C.3   168  GLY168      0.1956
    119  C         20.4820   52.2300  125.2780 C.2   168  GLY168      0.2612
    120  O         19.3580   51.9910  124.8130 O.2   168  GLY168     -0.2717
    121  N         21.6090   51.9950  124.6100 N.am  169  GLY169     -0.1956
    122  CA        21.5910   51.1630  123.4240 C.3   169  GLY169      0.1869
    123  C         21.8870   51.8540  122.1040 C.2   169  GLY169      0.2309
    124  O         22.1110   53.0420  122.0250 O.2   169  GLY169     -0.2863
    125  N         17.2740   53.2200  123.6280 N.3   173  ARG173     -0.1245
    126  CA        15.9370   52.8210  123.9970 C.3   173  ARG173      0.1563
    127  C         15.7150   53.1290  125.4710 C.2   173  ARG173      0.2260
    128  O         16.6460   53.0980  126.2560 O.2   173  ARG173     -0.2867
    129  CB        15.7060   51.3430  123.6860 C.3   173  ARG173      0.0307
    130  CG        15.7230   50.4230  124.8820 C.3   173  ARG173      0.0489
    131  CD        15.9340   48.9810  124.4600 C.3   173  ARG173      0.2205
    132  NE        17.0090   48.3580  125.2100 N.pl3 173  ARG173     -0.0865
    133  CZ        18.2820   48.3980  124.8500 C.cat 173  ARG173      0.5346
    134  NH1       18.6350   49.0180  123.7350 N.pl3 173  ARG173      0.1354
    135  NH2       19.1980   47.8170  125.6060 N.pl3 173  ARG173      0.1354
    136  N         15.2410   52.6720  129.1060 N.3   175  LEU175     -0.1231
    137  CA        15.5950   51.5700  129.9720 C.3   175  LEU175      0.1693
    138  C         14.7280   51.5200  131.2150 C.2   175  LEU175      0.2591
    139  O         14.2550   50.4640  131.6170 O.2   175  LEU175     -0.2718
    140  CB        17.0640   51.6860  130.3830 C.3   175  LEU175      0.0284
    141  CG        18.1540   51.2080  129.4340 C.3   175  LEU175      0.0019
    142  CD1       19.5000   51.5940  129.9520 C.3   175  LEU175      0.0001
    143  CD2       18.0760   49.7260  129.2870 C.3   175  LEU175      0.0001
    144  N         14.5610   52.6700  131.8440 N.am  176  ARG176     -0.1980
    145  CA        13.7490   52.7700  133.0300 C.3   176  ARG176      0.1597
    146  C         13.4070   54.2150  133.3140 C.2   176  ARG176      0.2287
    147  O         14.1210   55.1150  132.9210 O.2   176  ARG176     -0.2864
    148  CB        14.4870   52.1500  134.2150 C.3   176  ARG176      0.0334
    149  CG        14.3470   52.8990  135.5020 C.3   176  ARG176      0.0492
    150  CD        15.4170   52.5170  136.4960 C.3   176  ARG176      0.2205
    151  NE        16.2150   51.3830  136.0520 N.pl3 176  ARG176     -0.0865
    152  CZ        17.3470   50.9920  136.6210 C.cat 176  ARG176      0.5346
    153  NH1       18.0080   49.9520  136.1420 N.pl3 176  ARG176      0.1354
    154  NH2       17.8220   51.6470  137.6600 N.pl3 176  ARG176      0.1354
@<TRIPOS>BOND
     1   124   123    2
     2   107   106    2
     3   123   122    1
     4   104   103    2
     5   108   106   am
     6   106   105    1
     7   122   121    1
     8   103   102    1
     9   125   126    1
    10   129   126    1
    11   129   130    1
    12   134   133    1
    13   126   127    1
    14   102   105    1
    15   102   101    1
    16   131   130    1
    17   131   132    1
    18   121   119   am
    19   120   119    2
    20   133   132    2
    21   133   135    1
    22   119   118    1
    23   127   128    2
    24   101    98   am
    25    89    88    1
    26    43    42    2
    27    42    41    1
    28    99    98    2
    29   118   117    1
    30    76    75    2
    31    98    97    1
    32    75    74    1
    33    68    66    1
    34    94    93    2
    35    90    88    1
    36    67    65    1
    37    34    32    1
    38    35    33    1
    39    88    85    1
    40    39    38    2
    41    41    44    1
    42    41    40    1
    43    72    71    2
    44    74    73    1
    45    97    96    1
    46    97   100    1
    47    15    14    2
    48    66    65    1
    49    93    96   am
    50    93    92    1
    51    44    45    1
    52    65    62    1
    53    33    32    1
    54    32    29    1
    55    38    40   am
    56    38    37    1
    57    85    86    1
    58    85    84    1
    59    91    86   am
    60    91    92    1
    61    71    73   am
    62    71    70    1
    63    40    46    1
    64    95    92    1
    65    86    87    2
    66   136   137    1
    67    14    13    1
    68   143   141    1
    69   141   142    1
    70   141   140    1
    71    69    70    1
    72    69    63   am
    73    62    63    1
    74    62    61    1
    75    36    37    1
    76    36    30   am
    77    63    64    2
    78    29    30    1
    79    29    28    1
    80    30    31    2
    81    84    79   am
    82    45    46    1
    83   137   140    1
    84   137   138    1
    85   112   111    2
    86    80    79    2
    87   111   110    1
    88    12    13    1
    89    13    16    1
    90    79    78    1
    91    61    49   am
    92    16    17    1
    93    28    22   am
    94   138   139    2
    95   138   144   am
    96    50    49    2
    97    23    22    2
    98    49    48    1
    99   110   109    1
   100   110   113    1
   101    18    17    2
   102   144   145    1
   103    22    21    1
   104    78    77    1
   105    78    81    1
   106    17    19   am
   107   115   114    1
   108     4     3    2
   109     3     2    1
   110   114   113    1
   111   114   116    1
   112   147   146    2
   113    47    48    1
   114    48    51    1
   115   145   146    1
   116   145   148    1
   117    20    21    1
   118    21    24    1
   119    81    82    1
   120    81    83    1
   121    53    55   ar
   122    53    52   ar
   123     2     1    1
   124     2     5    1
   125    55    56   ar
   126    10    11   ar
   127    10     8   ar
   128   148   149    1
   129    11     9   ar
   130    51    52    1
   131    52    54   ar
   132     8     6   ar
   133    24    25    1
   134     9     7   ar
   135    56    54   ar
   136    56    58   ar
   137     6     7   ar
   138     6     5    1
   139    54    57   ar
   140    58    60   ar
   141   149   150    1
   142    25    27    1
   143    25    26    1
   144    57    59   ar
   145    60    59   ar
   146   151   150    1
   147   151   152    2
   148   153   152    1
   149   152   154    1
