@<TRIPOS>MOLECULE
tmp/3nz4B00.pdb
 118 110 0 0 0
SMALL
GASTEIGER

@<TRIPOS>ATOM
      1  N        -18.2110   11.0450   15.4540 N.3    74  TYR74      -0.1241
      2  CA       -17.8470   11.0140   16.8580 C.3    74  TYR74       0.1605
      3  C        -17.8930    9.6050   17.4310 C.2    74  TYR74       0.2264
      4  O        -16.9740    9.1790   18.1400 O.2    74  TYR74      -0.2867
      5  CB       -18.7350   11.9270   17.7020 C.3    74  TYR74       0.0534
      6  CG       -18.5610   11.6320   19.1640 C.ar   74  TYR74      -0.0201
      7  CD1      -17.3330   11.8470   19.7840 C.ar   74  TYR74      -0.0009
      8  CD2      -19.6010   11.0940   19.9200 C.ar   74  TYR74      -0.0009
      9  CE1      -17.1500   11.5540   21.1220 C.ar   74  TYR74       0.0417
     10  CE2      -19.4290   10.8030   21.2630 C.ar   74  TYR74       0.0417
     11  CZ       -18.1980   11.0360   21.8570 C.ar   74  TYR74       0.1957
     12  OH       -17.9960   10.7540   23.1870 O.3    74  TYR74      -0.2866
     13  N        -13.3300    9.3270   22.8770 N.3    80  PHE80      -0.1227
     14  CA       -14.5040    9.6800   23.6770 C.3    80  PHE80       0.1736
     15  C        -14.2680   10.7580   24.7280 C.2    80  PHE80       0.2596
     16  O        -13.1600   10.9120   25.2370 O.2    80  PHE80      -0.2718
     17  CB       -15.0710    8.4380   24.3570 C.3    80  PHE80       0.0547
     18  CG       -15.3830    7.3270   23.4140 C.ar   80  PHE80      -0.0202
     19  CD1      -16.4970    7.3930   22.5930 C.ar   80  PHE80      -0.0042
     20  CD2      -14.5620    6.2080   23.3460 C.ar   80  PHE80      -0.0042
     21  CE1      -16.7930    6.3550   21.7130 C.ar   80  PHE80      -0.0003
     22  CE2      -14.8510    5.1670   22.4740 C.ar   80  PHE80      -0.0003
     23  CZ       -15.9700    5.2400   21.6540 C.ar   80  PHE80      -0.0000
     24  N        -15.3360   11.4860   25.0560 N.am   81  GLY81      -0.1957
     25  CA       -15.2930   12.5370   26.0680 C.3    81  GLY81       0.1869
     26  C        -14.4020   13.6960   25.6590 C.2    81  GLY81       0.2309
     27  O        -14.4500   14.1570   24.5160 O.2    81  GLY81      -0.2863
     28  N        -14.0380    0.9420   25.3170 N.3    98  LEU98      -0.1245
     29  CA       -14.9530    1.8950   25.9510 C.3    98  LEU98       0.1561
     30  C        -15.8240    1.2080   27.0220 C.2    98  LEU98       0.2260
     31  O        -15.9870    1.7230   28.1200 O.2    98  LEU98      -0.2867
     32  CB       -15.8240    2.5780   24.8900 C.3    98  LEU98       0.0270
     33  CG       -17.0540    3.3540   25.3650 C.3    98  LEU98       0.0019
     34  CD1      -16.6420    4.6750   25.9850 C.3    98  LEU98       0.0001
     35  CD2      -18.0380    3.5750   24.2250 C.3    98  LEU98       0.0001
     36  N        -13.5080    0.3800   30.1420 N.3   101  CYS101     -0.1221
     37  CA       -13.1640    1.4780   31.0220 C.3   101  CYS101      0.1808
     38  C        -14.3600    1.9690   31.8540 C.2   101  CYS101      0.2601
     39  O        -14.1950    2.4440   32.9670 O.2   101  CYS101     -0.2717
     40  CB       -12.5230    2.6020   30.2050 C.3   101  CYS101      0.0970
     41  SG       -13.4610    4.1040   30.1080 S.3   101  CYS101     -0.0800
     42  N        -15.5670    1.8000   31.3300 N.am  102  LEU102     -0.1979
     43  CA       -16.7590    2.1890   32.0650 C.3   102  LEU102      0.1596
     44  C        -17.2070    1.1970   33.1420 C.2   102  LEU102      0.2287
     45  O        -17.9840    1.5550   34.0420 O.2   102  LEU102     -0.2864
     46  CB       -17.8950    2.4770   31.1060 C.3   102  LEU102      0.0297
     47  CG       -17.7150    3.7590   30.2980 C.3   102  LEU102      0.0022
     48  CD1      -18.8540    3.8920   29.2930 C.3   102  LEU102      0.0001
     49  CD2      -17.6430    4.9740   31.2230 C.3   102  LEU102      0.0001
     50  N        -23.6060    6.2560   31.9620 N.3   170  LEU170     -0.1245
     51  CA       -22.5240    5.5190   31.3250 C.3   170  LEU170      0.1561
     52  C        -22.2350    4.2180   32.0570 C.2   170  LEU170      0.2260
     53  O        -22.3370    3.1350   31.4870 O.2   170  LEU170     -0.2867
     54  CB       -21.2450    6.3770   31.2810 C.3   170  LEU170      0.0270
     55  CG       -20.8370    7.2660   30.0920 C.3   170  LEU170      0.0019
     56  CD1      -21.5560    6.8980   28.7540 C.3   170  LEU170      0.0001
     57  CD2      -20.9820    8.7510   30.3820 C.3   170  LEU170      0.0001
     58  N        -21.0340    2.7310   22.0570 N.3   218  LEU218     -0.1245
     59  CA       -21.5430    4.0640   22.3850 C.3   218  LEU218      0.1561
     60  C        -23.0630    4.0780   22.4480 C.2   218  LEU218      0.2260
     61  O        -23.6490    4.6200   23.3840 O.2   218  LEU218     -0.2867
     62  CB       -21.0910    5.0720   21.3330 C.3   218  LEU218      0.0270
     63  CG       -20.4610    6.3670   21.8240 C.3   218  LEU218      0.0019
     64  CD1      -20.6470    7.4430   20.7720 C.3   218  LEU218      0.0001
     65  CD2      -21.0580    6.7920   23.1380 C.3   218  LEU218      0.0001
     66  N        -24.5310    5.3910   25.8600 N.3   222  ASN222     -0.1240
     67  CA       -25.1160    6.7240   25.7310 C.3   222  ASN222      0.1653
     68  C        -26.6190    6.6810   25.9030 C.2   222  ASN222      0.2266
     69  O        -27.3100    6.0610   25.1000 O.2   222  ASN222     -0.2867
     70  CB       -24.8260    7.2740   24.3400 C.3   222  ASN222      0.1155
     71  CG       -23.8520    8.3970   24.3640 C.2   222  ASN222      0.2627
     72  OD1      -23.3600    8.8240   23.3230 O.2   222  ASN222     -0.2716
     73  ND2      -23.5730    8.9120   25.5570 N.am  222  ASN222     -0.0877
     74  N        -26.1990    9.4280   21.1260 N.3   346  ASN346     -0.1240
     75  CA       -25.3250   10.3380   20.4100 C.3   346  ASN346      0.1653
     76  C        -24.1560    9.5670   19.8280 C.2   346  ASN346      0.2266
     77  O        -23.6120    8.6720   20.4850 O.2   346  ASN346     -0.2867
     78  CB       -24.8190   11.4430   21.3490 C.3   346  ASN346      0.1155
     79  CG       -24.0290   12.5230   20.6220 C.2   346  ASN346      0.2627
     80  OD1      -22.8190   12.6720   20.8300 O.2   346  ASN346     -0.2716
     81  ND2      -24.7060   13.2780   19.7690 N.am  346  ASN346     -0.0877
     82  N        -28.2290   12.4190   25.5010 N.3   362  PHE362     -0.1241
     83  CA       -27.9030   11.6550   26.7090 C.3   362  PHE362      0.1605
     84  C        -28.0410   12.4990   27.9680 C.2   362  PHE362      0.2264
     85  O        -27.8780   11.9730   29.0610 O.2   362  PHE362     -0.2867
     86  CB       -26.4700   11.1280   26.6550 C.3   362  PHE362      0.0534
     87  CG       -25.4640   12.1670   26.2560 C.ar  362  PHE362     -0.0203
     88  CD1      -25.1470   13.1970   27.1020 C.ar  362  PHE362     -0.0042
     89  CD2      -24.8450   12.1090   25.0170 C.ar  362  PHE362     -0.0042
     90  CE1      -24.2240   14.1670   26.7200 C.ar  362  PHE362     -0.0003
     91  CE2      -23.9190   13.0730   24.6270 C.ar  362  PHE362     -0.0003
     92  CZ       -23.6080   14.1020   25.4760 C.ar  362  PHE362     -0.0000
     93  N        -15.4480   14.6360   34.2710 N.3   446  GLU446     -0.1245
     94  CA       -14.7860   13.9850   33.1220 C.3   446  GLU446      0.1567
     95  C        -13.8200   14.8990   32.3570 C.2   446  GLU446      0.2260
     96  O        -14.0960   15.2990   31.2340 O.2   446  GLU446     -0.2867
     97  CB       -15.8140   13.4030   32.1520 C.3   446  GLU446      0.0388
     98  CG       -15.2010   12.4440   31.1220 C.3   446  GLU446      0.1160
     99  CD       -15.5740   12.8070   29.6870 C.2   446  GLU446      0.3649
    100  OE1      -16.7770   12.9970   29.3890 O.co2 446  GLU446     -0.2457
    101  OE2      -14.6580   12.9170   28.8520 O.co2 446  GLU446     -0.2457
    102  N        -14.9780   18.0600   30.6440 N.3   449  ASN449     -0.1225
    103  CA       -15.8090   17.8920   29.4620 C.3   449  ASN449      0.1785
    104  C        -17.3000   17.9980   29.8100 C.2   449  ASN449      0.2597
    105  O        -18.0870   18.6340   29.1010 O.2   449  ASN449     -0.2718
    106  CB       -15.5240   16.5350   28.8130 C.3   449  ASN449      0.1169
    107  CG       -16.4270   16.2560   27.6260 C.2   449  ASN449      0.2627
    108  OD1      -16.7090   17.1620   26.8240 O.2   449  ASN449     -0.2716
    109  ND2      -16.8950   14.9990   27.4990 N.am  449  ASN449     -0.0877
    110  N        -17.6790   17.3820   30.9250 N.am  450  GLN450     -0.1979
    111  CA       -19.0630   17.3480   31.3430 C.3   450  GLN450      0.1601
    112  C        -19.2690   18.4390   32.3990 C.2   450  GLN450      0.2287
    113  O        -19.5920   18.1540   33.5640 O.2   450  GLN450     -0.2864
    114  CB       -19.3890   15.9580   31.8890 C.3   450  GLN450      0.0394
    115  CG       -19.0540   14.8340   30.9070 C.3   450  GLN450      0.0908
    116  CD       -19.5280   13.4570   31.3720 C.2   450  GLN450      0.2608
    117  OE1      -18.9550   12.4380   30.9900 O.2   450  GLN450     -0.2717
    118  NE2      -20.5710   13.4230   32.1840 N.am  450  GLN450     -0.0878
@<TRIPOS>BOND
     1     1     2    1
     2     2     3    1
     3     2     5    1
     4     3     4    2
     5     5     6    1
     6     6     7   ar
     7     6     8   ar
     8    81    79   am
     9     7     9   ar
    10    76    75    1
    11    76    77    2
    12     8    10   ar
    13    75    74    1
    14    75    78    1
    15    79    80    2
    16    79    78    1
    17    64    63    1
    18     9    11   ar
    19    10    11   ar
    20    62    63    1
    21    62    59    1
    22    23    21   ar
    23    23    22   ar
    24    21    19   ar
    25    63    65    1
    26    11    12    1
    27    58    59    1
    28    59    60    1
    29    60    61    2
    30    22    20   ar
    31    19    18   ar
    32    13    14    1
    33    72    71    2
    34    20    18   ar
    35    18    17    1
    36    14    17    1
    37    14    15    1
    38    35    33    1
    39    70    71    1
    40    70    67    1
    41    71    73   am
    42    27    26    2
    43    91    89   ar
    44    91    92   ar
    45    15    24   am
    46    15    16    2
    47    32    33    1
    48    32    29    1
    49    89    87   ar
    50    24    25    1
    51    69    68    2
    52    28    29    1
    53    33    34    1
    54    92    90   ar
    55    82    83    1
    56    26    25    1
    57    67    66    1
    58    67    68    1
    59    29    30    1
    60    87    86    1
    61    87    88   ar
    62    86    83    1
    63    83    84    1
    64    90    88   ar
    65   108   107    2
    66    30    31    2
    67   109   107   am
    68   107   106    1
    69    84    85    2
    70    56    55    1
    71   106   103    1
    72   101    99   ar
    73   105   104    2
    74    48    47    1
    75   100    99   ar
    76   103   104    1
    77   103   102    1
    78    99    98    1
    79   104   110   am
    80    55    57    1
    81    55    54    1
    82    41    40    1
    83    36    37    1
    84    40    37    1
    85    47    46    1
    86    47    49    1
    87   115   116    1
    88   115   114    1
    89   110   111    1
    90   117   116    2
    91    37    38    1
    92    46    43    1
    93    98    97    1
    94    96    95    2
    95    54    51    1
    96    51    50    1
    97    51    52    1
    98    42    38   am
    99    42    43    1
   100   111   114    1
   101   111   112    1
   102   116   118   am
   103    53    52    2
   104    38    39    2
   105    43    44    1
   106    97    94    1
   107    95    94    1
   108   112   113    2
   109    94    93    1
   110    44    45    2
