@<TRIPOS>MOLECULE
tmp/3nz6A00.pdb
 191 185 0 0 0
SMALL
GASTEIGER

@<TRIPOS>ATOM
      1  N          5.7340   -0.7850   16.7420 N.3    10  ILE10      -0.1231
      2  CA         6.2000   -1.5930   15.5990 C.3    10  ILE10       0.1692
      3  C          7.6280   -1.9290   15.8480 C.2    10  ILE10       0.2592
      4  O          8.3760   -1.0780   16.3150 O.2    10  ILE10      -0.2718
      5  CB         5.9900   -0.9110   14.2130 C.3    10  ILE10       0.0266
      6  CG1        6.3750   -1.8650   13.0680 C.3    10  ILE10       0.0019
      7  CG2        6.7980    0.4370   14.0890 C.3    10  ILE10       0.0020
      8  CD1        6.0530   -1.2680   11.6320 C.3    10  ILE10       0.0001
      9  N          7.9840   -3.1950   15.6350 N.am   11  VAL11      -0.1966
     10  CA         9.2730   -3.6900   16.1050 C.3    11  VAL11       0.1727
     11  C          9.6780   -4.8670   15.2180 C.2    11  VAL11       0.2616
     12  O          8.8050   -5.5670   14.7120 O.2    11  VAL11      -0.2715
     13  CB         9.2230   -4.1070   17.6330 C.3    11  VAL11       0.0290
     14  CG1        8.2430   -5.3000   17.9160 C.3    11  VAL11       0.0023
     15  CG2       10.6450   -4.4080   18.2020 C.3    11  VAL11       0.0023
     16  N         10.9820   -5.0840   15.0670 N.am   12  ALA12      -0.1977
     17  CA        11.5720   -6.2890   14.5120 C.3    12  ALA12       0.1597
     18  C         12.4460   -6.9190   15.5810 C.2    12  ALA12       0.2287
     19  O         13.2120   -6.2210   16.2130 O.2    12  ALA12      -0.2864
     20  CB        12.4110   -5.9600   13.3180 C.3    12  ALA12       0.0319
     21  N         22.5690    0.0590   16.9160 N.3    24  SER24      -0.1202
     22  CA        22.0790   -0.2130   15.5660 C.3    24  SER24       0.2020
     23  C         21.2480   -1.4900   15.4970 C.2    24  SER24       0.2618
     24  O         21.0820   -2.1800   16.4910 O.2    24  SER24      -0.2717
     25  CB        23.2570   -0.3250   14.5790 C.3    24  SER24       0.2103
     26  OG        23.6510   -1.6820   14.4180 O.3    24  SER24      -0.2182
     27  N         20.7570   -1.7880   14.2940 N.am   25  LEU25      -0.1979
     28  CA        20.0090   -2.9840   13.9870 C.3    25  LEU25       0.1596
     29  C         20.9880   -4.0610   13.6510 C.2    25  LEU25       0.2287
     30  O         21.8070   -3.8760   12.7250 O.2    25  LEU25      -0.2864
     31  CB        19.1690   -2.7530   12.7480 C.3    25  LEU25       0.0297
     32  CG        18.0770   -1.7130   12.9190 C.3    25  LEU25       0.0022
     33  CD1       17.2850   -1.6350   11.6780 C.3    25  LEU25       0.0001
     34  CD2       17.1810   -2.0820   14.0900 C.3    25  LEU25       0.0001
     35  N         20.7950   -6.4910   11.7590 N.3    27  TRP27      -0.1241
     36  CA        20.6010   -7.1190   10.4490 C.3    27  TRP27       0.1605
     37  C         20.5460   -6.0100    9.4350 C.2    27  TRP27       0.2264
     38  O         20.5510   -4.8610    9.8350 O.2    27  TRP27      -0.2867
     39  CB        19.3000   -7.9430   10.4400 C.3    27  TRP27       0.0550
     40  CG        18.1870   -7.2330   11.1210 C.ar   27  TRP27       0.0003
     41  CD1       17.4230   -6.2310   10.6150 C.ar   27  TRP27       0.0946
     42  CD2       17.7720   -7.4260   12.4920 C.ar   27  TRP27       0.0152
     43  NE1       16.4990   -5.8040   11.5780 N.ar   27  TRP27      -0.2442
     44  CE2       16.6920   -6.5280   12.7340 C.ar   27  TRP27       0.0810
     45  CE3       18.1910   -8.2930   13.5280 C.ar   27  TRP27       0.0012
     46  CZ2       16.0400   -6.4380   13.9930 C.ar   27  TRP27       0.0191
     47  CZ3       17.5000   -8.2380   14.7910 C.ar   27  TRP27       0.0001
     48  CH2       16.4430   -7.3030   14.9990 C.ar   27  TRP27       0.0015
     49  N         12.1940   -5.5930    4.8560 N.3    32  GLU32      -0.1231
     50  CA        11.7060   -5.3540    6.1850 C.3    32  GLU32       0.1699
     51  C         11.5790   -3.8420    6.4150 C.2    32  GLU32       0.2592
     52  O         10.4900   -3.3530    6.7520 O.2    32  GLU32      -0.2718
     53  CB        12.6150   -6.0250    7.2050 C.3    32  GLU32       0.0402
     54  CG        11.9140   -6.4130    8.5360 C.3    32  GLU32       0.1161
     55  CD        11.3720   -5.2200    9.3210 C.2    32  GLU32       0.3649
     56  OE1       12.1110   -4.2150    9.5080 O.co2  32  GLU32      -0.2457
     57  OE2       10.2270   -5.3050    9.8110 O.co2  32  GLU32      -0.2457
     58  N         12.6620   -3.0900    6.1960 N.am   33  ILE33      -0.1980
     59  CA        12.5850   -1.6350    6.2530 C.3    33  ILE33       0.1595
     60  C         11.4630   -1.1270    5.3570 C.2    33  ILE33       0.2287
     61  O         10.7040   -0.2350    5.7390 O.2    33  ILE33      -0.2864
     62  CB        13.9530   -0.9370    5.9700 C.3    33  ILE33       0.0276
     63  CG1       14.7220   -0.7610    7.2720 C.3    33  ILE33       0.0022
     64  CG2       13.7720    0.4720    5.3950 C.3    33  ILE33       0.0022
     65  CD1       16.1490   -0.9270    7.0790 C.3    33  ILE33       0.0001
     66  N          8.6850   -2.5510    4.5920 N.3    35  TYR35      -0.1227
     67  CA         7.4190   -2.7910    5.2750 C.3    35  TYR35       0.1736
     68  C          7.2150   -1.7640    6.3900 C.2    35  TYR35       0.2595
     69  O          6.1550   -1.1560    6.5050 O.2    35  TYR35      -0.2718
     70  CB         7.4640   -4.1730    5.8770 C.3    35  TYR35       0.0548
     71  CG         6.2870   -4.5550    6.7660 C.ar   35  TYR35      -0.0200
     72  CD1        5.0600   -4.9640    6.2110 C.ar   35  TYR35      -0.0009
     73  CD2        6.4270   -4.5910    8.1720 C.ar   35  TYR35      -0.0009
     74  CE1        3.9690   -5.4100    7.0470 C.ar   35  TYR35       0.0417
     75  CE2        5.3720   -5.0090    8.9980 C.ar   35  TYR35       0.0417
     76  CZ         4.1620   -5.4260    8.4230 C.ar   35  TYR35       0.1957
     77  OH         3.1400   -5.8120    9.2530 O.3    35  TYR35      -0.2866
     78  N          8.2680   -1.5580    7.1710 N.am   36  PHE36      -0.1962
     79  CA         8.2440   -0.5630    8.2400 C.3    36  PHE36       0.1771
     80  C          7.7810    0.7910    7.6960 C.2    36  PHE36       0.2619
     81  O          6.8450    1.3790    8.2070 O.2    36  PHE36      -0.2715
     82  CB         9.5780   -0.4220    8.9090 C.3    36  PHE36       0.0574
     83  CG         9.6550    0.7670    9.7550 C.ar   36  PHE36      -0.0200
     84  CD1        9.0020    0.7840   10.9970 C.ar   36  PHE36      -0.0042
     85  CD2       10.3280    1.9020    9.3100 C.ar   36  PHE36      -0.0042
     86  CE1        9.0570    1.9160   11.8180 C.ar   36  PHE36      -0.0003
     87  CE2       10.3990    3.0510   10.1060 C.ar   36  PHE36      -0.0003
     88  CZ         9.7700    3.0580   11.3870 C.ar   36  PHE36      -0.0000
     89  N          8.3930    1.2280    6.6050 N.am   37  LYS37      -0.1977
     90  CA         8.0470    2.5100    6.0020 C.3    37  LYS37       0.1596
     91  C          6.5940    2.5480    5.5030 C.2    37  LYS37       0.2287
     92  O          5.8460    3.4990    5.7600 O.2    37  LYS37      -0.2864
     93  CB         9.0250    2.8110    4.8610 C.3    37  LYS37       0.0298
     94  CG         8.6380    4.0220    4.0650 C.3    37  LYS37       0.0038
     95  CD         9.7330    4.4730    3.1190 C.3    37  LYS37       0.0206
     96  CE         9.3220    5.8030    2.4730 C.3    37  LYS37       0.1093
     97  NZ         8.0110    5.6590    1.7220 N.3    37  LYS37      -0.1314
     98  N         17.3180    5.9380   19.4420 N.3    61  THR61      -0.1218
     99  CA        16.7890    5.5870   18.1010 C.3    61  THR61       0.1862
    100  C         16.8840    6.7160   17.0890 C.2    61  THR61       0.2287
    101  O         17.1260    6.4810   15.9080 O.2    61  THR61      -0.2866
    102  CB        15.3110    5.0920   18.2070 C.3    61  THR61       0.1770
    103  OG1       15.2860    3.9630   19.0820 O.3    61  THR61      -0.2211
    104  CG2       14.7310    4.6800   16.8590 C.3    61  THR61       0.0375
    105  N         20.4170    6.8310   15.9750 N.3    64  SER64      -0.1202
    106  CA        20.8810    5.6200   15.3350 C.3    64  SER64       0.2020
    107  C         20.3000    5.4520   13.9360 C.2    64  SER64       0.2619
    108  O         20.5700    4.4530   13.2950 O.2    64  SER64      -0.2717
    109  CB        20.5380    4.4050   16.1900 C.3    64  SER64       0.2103
    110  OG        19.4090    3.7290   15.6490 O.3    64  SER64      -0.2182
    111  N         19.5040    6.4160   13.4700 N.am   65  ILE65      -0.1966
    112  CA        18.9450    6.3520   12.1320 C.3    65  ILE65       0.1712
    113  C         19.8480    7.1660   11.2060 C.2    65  ILE65       0.2458
    114  O         20.1310    8.3310   11.5010 O.2    65  ILE65      -0.2730
    115  CB        17.5100    6.9090   12.0650 C.3    65  ILE65       0.0289
    116  CG1       16.5440    6.0290   12.9290 C.3    65  ILE65       0.0022
    117  CG2       17.0810    7.0640   10.5910 C.3    65  ILE65       0.0023
    118  CD1       15.0800    6.4860   12.9570 C.3    65  ILE65       0.0001
    119  N         20.2970    6.5680   10.0850 N.am   66  PRO66      -0.2727
    120  CA        21.2640    7.3200    9.2810 C.3    66  PRO66       0.1402
    121  C         20.7790    8.7200    9.0130 C.2    66  PRO66       0.2269
    122  O         19.6160    8.9510    8.7140 O.2    66  PRO66      -0.2865
    123  CB        21.3730    6.5020    8.0030 C.3    66  PRO66       0.0296
    124  CG        21.2210    5.1020    8.5080 C.3    66  PRO66       0.0237
    125  CD        20.1430    5.1920    9.5910 C.3    66  PRO66       0.0939
    126  N         18.2470    9.7700    6.4690 N.3    69  PHE69      -0.1241
    127  CA        16.8720    9.2850    6.5530 C.3    69  PHE69       0.1605
    128  C         15.9800   10.0110    7.6170 C.2    69  PHE69       0.2264
    129  O         14.7700    9.6930    7.7690 O.2    69  PHE69      -0.2867
    130  CB        16.8930    7.7600    6.6960 C.3    69  PHE69       0.0534
    131  CG        17.6240    7.0590    5.5560 C.ar   69  PHE69      -0.0203
    132  CD1       17.1530    7.1460    4.2310 C.ar   69  PHE69      -0.0042
    133  CD2       18.7970    6.3460    5.7970 C.ar   69  PHE69      -0.0042
    134  CE1       17.8220    6.5240    3.1780 C.ar   69  PHE69      -0.0003
    135  CE2       19.4760    5.6980    4.7420 C.ar   69  PHE69      -0.0003
    136  CZ        18.9810    5.7870    3.4260 C.ar   69  PHE69      -0.0000
    137  N         11.9730   10.9200    9.5690 N.3    72  LEU72      -0.1231
    138  CA        11.3280    9.9390    8.7320 C.3    72  LEU72       0.1693
    139  C         10.2590   10.6580    7.9320 C.2    72  LEU72       0.2591
    140  O          9.3660   11.3220    8.4620 O.2    72  LEU72      -0.2718
    141  CB        10.8510    8.6880    9.5010 C.3    72  LEU72       0.0284
    142  CG        11.8710    7.8680   10.3410 C.3    72  LEU72       0.0019
    143  CD1       11.1390    6.8090   11.2140 C.3    72  LEU72       0.0001
    144  CD2       12.9700    7.1790    9.5290 C.3    72  LEU72       0.0001
    145  N         10.4390   10.5570    6.6200 N.am   73  LYS73      -0.1980
    146  CA         9.7210   11.3690    5.6330 C.3    73  LYS73       0.1596
    147  C          8.2910   11.0200    5.6400 C.2    73  LYS73       0.2287
    148  O          7.9390    9.8270    5.6740 O.2    73  LYS73      -0.2864
    149  CB        10.3000   11.1200    4.2220 C.3    73  LYS73       0.0298
    150  CG        11.5220   11.9710    3.9410 C.3    73  LYS73       0.0038
    151  CD        12.3150   11.5800    2.6510 C.3    73  LYS73       0.0206
    152  CE        13.4240   12.6140    2.4170 C.3    73  LYS73       0.1093
    153  NZ        14.3050   12.3570    1.2400 N.3    73  LYS73      -0.1314
    154  N          5.9130   11.4310    7.7340 N.3    75  ARG75      -0.1245
    155  CA         5.3810   11.1180    9.0960 C.3    75  ARG75       0.1563
    156  C          5.8330   12.2030   10.1060 C.2    75  ARG75       0.2260
    157  O          6.9750   12.7200   10.0450 O.2    75  ARG75      -0.2867
    158  CB         5.8530    9.7410    9.5920 C.3    75  ARG75       0.0307
    159  CG         5.3000    8.5540    8.8220 C.3    75  ARG75       0.0489
    160  CD         6.3300    7.4350    8.7370 C.3    75  ARG75       0.2205
    161  NE         7.4390    7.8360    7.8550 N.pl3  75  ARG75      -0.0865
    162  CZ         8.4300    7.0610    7.4410 C.cat  75  ARG75       0.5346
    163  NH1        8.5390    5.7980    7.8490 N.pl3  75  ARG75       0.1354
    164  NH2        9.3290    7.5700    6.6150 N.pl3  75  ARG75       0.1354
    165  N          8.0500    3.4780   17.5840 N.3   123  ILE123     -0.1245
    166  CA         8.9220    2.7420   16.6770 C.3   123  ILE123      0.1561
    167  C         10.1640    2.4110   17.3840 C.2   123  ILE123      0.2260
    168  O         11.1400    1.9330   16.8070 O.2   123  ILE123     -0.2867
    169  CB         9.1530    3.5200   15.4740 C.3   123  ILE123      0.0252
    170  CG1        9.8160    4.8730   15.8250 C.3   123  ILE123      0.0019
    171  CG2        7.7950    3.7940   14.8700 C.3   123  ILE123      0.0019
    172  CD1       10.6450    5.4430   14.7400 C.3   123  ILE123      0.0001
    173  N          9.7710    1.4160   24.2160 N.3   129  TYR129     -0.1241
    174  CA         8.8910    0.2640   24.1710 C.3   129  TYR129      0.1605
    175  C          8.4290   -0.1270   25.5570 C.2   129  TYR129      0.2264
    176  O          7.2900   -0.5520   25.6950 O.2   129  TYR129     -0.2867
    177  CB         9.5790   -0.9410   23.5870 C.3   129  TYR129      0.0534
    178  CG         9.8230   -0.9040   22.0960 C.ar  129  TYR129     -0.0201
    179  CD1        8.8490   -0.4320   21.1920 C.ar  129  TYR129     -0.0009
    180  CD2       11.0130   -1.4180   21.5750 C.ar  129  TYR129     -0.0009
    181  CE1        9.0880   -0.4670   19.7680 C.ar  129  TYR129      0.0417
    182  CE2       11.2260   -1.4910   20.1820 C.ar  129  TYR129      0.0417
    183  CZ        10.2730   -1.0190   19.2950 C.ar  129  TYR129      0.1957
    184  OH        10.5520   -1.0460   17.9240 O.3   129  TYR129     -0.2866
    185  N          7.8290   -8.1010   13.5020 N.3   144  THR144     -0.1218
    186  CA         8.5630   -8.9180   12.5400 C.3   144  THR144      0.1862
    187  C          9.4540   -9.8630   13.3080 C.2   144  THR144      0.2287
    188  O         10.4070   -9.4270   13.9940 O.2   144  THR144     -0.2866
    189  CB         9.4110   -8.0910   11.5870 C.3   144  THR144      0.1770
    190  OG1        8.5980   -7.1770   10.8600 O.3   144  THR144     -0.2211
    191  CG2       10.2080   -9.0130   10.5740 C.3   144  THR144      0.0375
@<TRIPOS>BOND
     1   153   152    1
     2    97    96    1
     3   152   151    1
     4    96    95    1
     5   151   150    1
     6    95    94    1
     7   134   136   ar
     8   134   132   ar
     9   136   135   ar
    10   150   149    1
    11    94    93    1
    12   149   146    1
    13   132   131   ar
    14    66    67    1
    15   135   133   ar
    16    49    50    1
    17    93    90    1
    18    67    70    1
    19    67    68    1
    20    60    61    2
    21    60    59    1
    22    64    62    1
    23    91    92    2
    24    91    90    1
    25   131   133   ar
    26   131   130    1
    27   146   147    1
    28   146   145    1
    29   147   148    2
    30    70    71    1
    31    62    59    1
    32    62    63    1
    33    90    89    1
    34    50    51    1
    35    50    53    1
    36    58    59    1
    37    58    51   am
    38    72    71   ar
    39    72    74   ar
    40    68    69    2
    41    68    78   am
    42    51    52    2
    43   126   127    1
    44   127   130    1
    45   127   128    1
    46    89    80   am
    47   164   162    1
    48   145   139   am
    49    71    73   ar
    50    74    76   ar
    51    65    63    1
    52    78    79    1
    53    53    54    1
    54   162   163    1
    55   162   161    2
    56   128   129    2
    57    80    81    2
    58    80    79    1
    59   154   155    1
    60   161   160    1
    61   139   140    2
    62   139   138    1
    63   123   124    1
    64   123   120    1
    65    73    75   ar
    66    79    82    1
    67    76    75   ar
    68    76    77    1
    69   124   125    1
    70    54    55    1
    71   122   121    2
    72   138   141    1
    73   138   137    1
    74   160   159    1
    75   159   158    1
    76    82    83    1
    77   121   120    1
    78   155   158    1
    79   155   156    1
    80   120   119    1
    81    85    83   ar
    82    85    87   ar
    83    55    56   ar
    84    55    57   ar
    85    37    38    2
    86    37    36    1
    87   141   142    1
    88   144   142    1
    89   125   119    1
    90    83    84   ar
    91   157   156    2
    92   119   113   am
    93    87    88   ar
    94   142   143    1
    95    39    36    1
    96    39    40    1
    97    36    35    1
    98   191   189    1
    99   117   115    1
   100    41    40   ar
   101    41    43   ar
   102   190   189    1
   103    84    86   ar
   104    40    42   ar
   105   113   114    2
   106   113   112    1
   107    88    86   ar
   108    43    44   ar
   109   189   186    1
   110     8     6    1
   111    33    32    1
   112   115   112    1
   113   115   116    1
   114   112   111    1
   115    42    44   ar
   116    42    45   ar
   117   186   187    1
   118   186   185    1
   119    30    29    2
   120    44    46   ar
   121    31    32    1
   122    31    28    1
   123    32    34    1
   124   116   118    1
   125     6     5    1
   126   108   107    2
   127   187   188    2
   128    20    17    1
   129   111   107   am
   130    45    47   ar
   131    29    28    1
   132   107   106    1
   133    28    27    1
   134    46    48   ar
   135     7     5    1
   136     5     2    1
   137    27    23   am
   138    26    25    1
   139    17    16    1
   140    17    18    1
   141    25    22    1
   142    12    11    2
   143   172   170    1
   144    47    48   ar
   145   171   169    1
   146    16    11   am
   147    11    10    1
   148   106   105    1
   149   106   109    1
   150   169   170    1
   151   169   166    1
   152    23    22    1
   153    23    24    2
   154    22    21    1
   155    18    19    2
   156     2     3    1
   157     2     1    1
   158     9     3   am
   159     9    10    1
   160   110   109    1
   161     3     4    2
   162   101   100    2
   163    10    13    1
   164   166   167    1
   165   166   165    1
   166   168   167    2
   167   104   102    1
   168   100    99    1
   169    13    14    1
   170    13    15    1
   171   184   183    1
   172    99   102    1
   173    99    98    1
   174   102   103    1
   175   183   181   ar
   176   183   182   ar
   177   181   179   ar
   178   182   180   ar
   179   179   178   ar
   180   180   178   ar
   181   178   177    1
   182   177   174    1
   183   174   173    1
   184   174   175    1
   185   175   176    2
