@<TRIPOS>MOLECULE
tmp/3nzaA01.pdb
 180 171 0 0 0
SMALL
GASTEIGER

@<TRIPOS>ATOM
      1  N          5.5990   -0.8240   16.6040 N.3    10  ILE10      -0.1231
      2  CA         6.1830   -1.6000   15.4810 C.3    10  ILE10       0.1692
      3  C          7.6730   -1.9610   15.7440 C.2    10  ILE10       0.2592
      4  O          8.4410   -1.1250   16.2190 O.2    10  ILE10      -0.2718
      5  CB         5.9740   -0.8970   14.1100 C.3    10  ILE10       0.0266
      6  CG1        6.4870   -1.8010   12.9530 C.3    10  ILE10       0.0019
      7  CG2        6.5940    0.5700   14.1350 C.3    10  ILE10       0.0020
      8  CD1        5.8640   -1.4680   11.5420 C.3    10  ILE10       0.0001
      9  N          8.0560   -3.2000   15.4580 N.am   11  VAL11      -0.1966
     10  CA         9.3530   -3.7220   15.9320 C.3    11  VAL11       0.1727
     11  C          9.7220   -4.9730   15.1050 C.2    11  VAL11       0.2616
     12  O          8.8290   -5.7620   14.6960 O.2    11  VAL11      -0.2715
     13  CB         9.2320   -4.0870   17.4330 C.3    11  VAL11       0.0290
     14  CG1        8.2440   -5.2530   17.6410 C.3    11  VAL11       0.0023
     15  CG2       10.6300   -4.4460   18.0640 C.3    11  VAL11       0.0023
     16  N         11.0160   -5.1570   14.8740 N.am   12  ALA12      -0.1977
     17  CA        11.5830   -6.3220   14.2330 C.3    12  ALA12       0.1597
     18  C         12.3940   -6.9160   15.3610 C.2    12  ALA12       0.2287
     19  O         13.1350   -6.1680   16.0110 O.2    12  ALA12      -0.2864
     20  CB        12.5030   -5.8820   13.1490 C.3    12  ALA12       0.0319
     21  N         22.7360   -0.1840   16.6440 N.3    24  SER24      -0.1202
     22  CA        22.1550   -0.2960   15.3360 C.3    24  SER24       0.2020
     23  C         21.3720   -1.5800   15.2690 C.2    24  SER24       0.2618
     24  O         21.2410   -2.2590   16.2300 O.2    24  SER24      -0.2717
     25  CB        23.2580   -0.3370   14.3000 C.3    24  SER24       0.2103
     26  OG        23.9830   -1.5070   14.4080 O.3    24  SER24      -0.2182
     27  N         20.8860   -1.9050   14.0870 N.am   25  LEU25      -0.1979
     28  CA        20.1800   -3.1750   13.8900 C.3    25  LEU25       0.1596
     29  C         21.1850   -4.2510   13.5530 C.2    25  LEU25       0.2287
     30  O         22.0760   -4.0280   12.7260 O.2    25  LEU25      -0.2864
     31  CB        19.1810   -3.0590   12.7460 C.3    25  LEU25       0.0297
     32  CG        18.0870   -1.9890   12.9010 C.3    25  LEU25       0.0022
     33  CD1       17.1430   -2.0120   11.7350 C.3    25  LEU25       0.0001
     34  CD2       17.3140   -2.1360   14.2120 C.3    25  LEU25       0.0001
     35  N         16.3500   -4.9940    3.5570 N.3    30  LYS30      -0.1245
     36  CA        15.9300   -3.8430    2.8450 C.3    30  LYS30       0.1561
     37  C         14.4230   -3.9240    2.6450 C.2    30  LYS30       0.2260
     38  O         13.7230   -2.9160    2.7120 O.2    30  LYS30      -0.2867
     39  CB        16.7370   -3.7740    1.5290 C.3    30  LYS30       0.0271
     40  CG        16.3620   -2.6400    0.6440 C.3    30  LYS30       0.0035
     41  CD        17.0750   -2.7580   -0.7300 C.3    30  LYS30       0.0206
     42  CE        17.0520   -1.3880   -1.4130 C.3    30  LYS30       0.1093
     43  NZ        17.6490   -1.4190   -2.7940 N.3    30  LYS30      -0.1314
     44  N         12.3310   -5.5390    4.7040 N.3    32  GLU32      -0.1231
     45  CA        11.7570   -5.3490    6.0260 C.3    32  GLU32       0.1699
     46  C         11.6250   -3.8540    6.3190 C.2    32  GLU32       0.2592
     47  O         10.5110   -3.3710    6.5780 O.2    32  GLU32      -0.2718
     48  CB        12.5530   -6.0690    7.0780 C.3    32  GLU32       0.0402
     49  CG        11.6870   -6.4680    8.3010 C.3    32  GLU32       0.1161
     50  CD        11.3430   -5.2880    9.1890 C.2    32  GLU32       0.3649
     51  OE1       12.2190   -4.4140    9.3490 O.co2  32  GLU32      -0.2457
     52  OE2       10.2280   -5.2120    9.7550 O.co2  32  GLU32      -0.2457
     53  N         12.7100   -3.1010    6.1820 N.am   33  ILE33      -0.1966
     54  CA        12.5840   -1.6100    6.2090 C.3    33  ILE33       0.1727
     55  C         11.4640   -1.0700    5.3240 C.2    33  ILE33       0.2616
     56  O         10.7130   -0.1600    5.7200 O.2    33  ILE33      -0.2715
     57  CB        13.9030   -0.9080    5.7870 C.3    33  ILE33       0.0290
     58  CG1       15.0790   -1.3740    6.6880 C.3    33  ILE33       0.0022
     59  CG2       13.7250    0.6340    5.6560 C.3    33  ILE33       0.0023
     60  CD1       15.2600   -0.5740    7.9090 C.3    33  ILE33       0.0001
     61  N         11.3610   -1.6170    4.1170 N.am   34  SER34      -0.1950
     62  CA        10.3140   -1.1700    3.1670 C.3    34  SER34       0.1924
     63  C          8.8920   -1.3940    3.7560 C.2    34  SER34       0.2314
     64  O          7.9890   -0.5760    3.5710 O.2    34  SER34      -0.2863
     65  CB        10.5260   -1.8560    1.7810 C.3    34  SER34       0.2116
     66  OG         9.3110   -2.2990    1.1630 O.3    34  SER34      -0.2180
     67  N          8.2650   -1.5520    7.0720 N.3    36  PHE36      -0.1227
     68  CA         8.2370   -0.5390    8.1410 C.3    36  PHE36       0.1736
     69  C          7.7420    0.8030    7.5610 C.2    36  PHE36       0.2595
     70  O          6.7800    1.3930    8.0390 O.2    36  PHE36      -0.2718
     71  CB         9.6170   -0.4080    8.8090 C.3    36  PHE36       0.0547
     72  CG         9.7050    0.7430    9.7170 C.ar   36  PHE36      -0.0202
     73  CD1        9.0970    0.7020   10.9680 C.ar   36  PHE36      -0.0042
     74  CD2       10.3400    1.9110    9.3030 C.ar   36  PHE36      -0.0042
     75  CE1        9.1690    1.8350   11.8110 C.ar   36  PHE36      -0.0003
     76  CE2       10.4120    3.0330   10.1120 C.ar   36  PHE36      -0.0003
     77  CZ         9.8570    2.9950   11.3890 C.ar   36  PHE36      -0.0000
     78  N          8.3990    1.2690    6.5020 N.am   37  LYS37      -0.1980
     79  CA         7.9870    2.5180    5.8440 C.3    37  LYS37       0.1596
     80  C          6.5010    2.4630    5.3770 C.2    37  LYS37       0.2287
     81  O          5.7060    3.3540    5.6810 O.2    37  LYS37      -0.2864
     82  CB         8.9660    2.8700    4.6940 C.3    37  LYS37       0.0298
     83  CG         8.6280    4.1570    3.9690 C.3    37  LYS37       0.0038
     84  CD         9.5970    4.3640    2.7960 C.3    37  LYS37       0.0206
     85  CE         9.8430    5.8580    2.5330 C.3    37  LYS37       0.1093
     86  NZ        11.2410    6.1370    1.9860 N.3    37  LYS37      -0.1314
     87  N         17.3040    5.8550   19.4080 N.3    61  THR61      -0.1218
     88  CA        16.7440    5.4910   18.0560 C.3    61  THR61       0.1862
     89  C         16.7740    6.5510   16.9700 C.2    61  THR61       0.2287
     90  O         17.0380    6.2250   15.8120 O.2    61  THR61      -0.2866
     91  CB        15.2610    4.9180   18.1510 C.3    61  THR61       0.1770
     92  OG1       15.2790    3.7670   18.9730 O.3    61  THR61      -0.2211
     93  CG2       14.6890    4.5800   16.8080 C.3    61  THR61       0.0375
     94  N         20.3360    6.4700   15.9430 N.3    64  SER64      -0.1202
     95  CA        20.7100    5.2190   15.2620 C.3    64  SER64       0.2020
     96  C         20.2430    5.2030   13.8270 C.2    64  SER64       0.2619
     97  O         20.7200    4.4080   13.0520 O.2    64  SER64      -0.2717
     98  CB        20.2010    3.9640   16.0170 C.3    64  SER64       0.2103
     99  OG        18.9180    3.5580   15.5690 O.3    64  SER64      -0.2182
    100  N         19.3210    6.0740   13.4480 N.am   65  ILE65      -0.1966
    101  CA        18.9000    6.1040   12.0560 C.3    65  ILE65       0.1712
    102  C         19.9730    6.8950   11.2780 C.2    65  ILE65       0.2458
    103  O         20.4420    7.9580   11.7490 O.2    65  ILE65      -0.2730
    104  CB        17.5100    6.7460   11.8900 C.3    65  ILE65       0.0289
    105  CG1       16.4200    5.9470   12.6620 C.3    65  ILE65       0.0022
    106  CG2       17.1920    6.9400   10.4260 C.3    65  ILE65       0.0023
    107  CD1       14.9850    6.3920   12.3720 C.3    65  ILE65       0.0001
    108  N         20.3780    6.3890   10.0990 N.am   66  PRO66      -0.2727
    109  CA        21.3760    7.1400    9.3420 C.3    66  PRO66       0.1402
    110  C         20.8580    8.5450    9.1220 C.2    66  PRO66       0.2269
    111  O         19.6820    8.7290    8.7870 O.2    66  PRO66      -0.2865
    112  CB        21.4270    6.3960    8.0040 C.3    66  PRO66       0.0296
    113  CG        21.1380    4.9680    8.3710 C.3    66  PRO66       0.0237
    114  CD        20.0260    5.1160    9.4370 C.3    66  PRO66       0.0939
    115  N         18.2020    9.5650    6.5120 N.3    69  PHE69      -0.1241
    116  CA        16.8140    9.1210    6.5660 C.3    69  PHE69       0.1605
    117  C         15.9270    9.8770    7.5940 C.2    69  PHE69       0.2264
    118  O         14.7000    9.6340    7.6700 O.2    69  PHE69      -0.2867
    119  CB        16.7810    7.5970    6.7200 C.3    69  PHE69       0.0534
    120  CG        17.4710    6.8740    5.5720 C.ar   69  PHE69      -0.0203
    121  CD1       17.0140    7.0270    4.2530 C.ar   69  PHE69      -0.0042
    122  CD2       18.6050    6.1050    5.7960 C.ar   69  PHE69      -0.0042
    123  CE1       17.6610    6.3890    3.1820 C.ar   69  PHE69      -0.0003
    124  CE2       19.2600    5.4740    4.7340 C.ar   69  PHE69      -0.0003
    125  CZ        18.7830    5.6130    3.4210 C.ar   69  PHE69      -0.0000
    126  N         12.2110   10.8460    9.6560 N.3    72  LEU72      -0.1231
    127  CA        11.5320    9.8620    8.8240 C.3    72  LEU72       0.1693
    128  C         10.5100   10.5900    7.9950 C.2    72  LEU72       0.2591
    129  O          9.5640   11.2200    8.4980 O.2    72  LEU72      -0.2718
    130  CB        10.9110    8.7010    9.6260 C.3    72  LEU72       0.0284
    131  CG        11.8930    7.7580   10.3140 C.3    72  LEU72       0.0019
    132  CD1       11.1030    6.6950   11.1160 C.3    72  LEU72       0.0001
    133  CD2       12.7990    7.0690    9.2850 C.3    72  LEU72       0.0001
    134  N         10.7480   10.5340    6.6900 N.am   73  LYS73      -0.1980
    135  CA         9.9800   11.3220    5.7290 C.3    73  LYS73       0.1596
    136  C          8.4780   11.1010    5.6480 C.2    73  LYS73       0.2287
    137  O          7.9860    9.9610    5.6720 O.2    73  LYS73      -0.2864
    138  CB        10.6150   11.2210    4.3210 C.3    73  LYS73       0.0298
    139  CG        11.3080   12.5240    3.9010 C.3    73  LYS73       0.0038
    140  CD        12.1510   12.3780    2.5740 C.3    73  LYS73       0.0206
    141  CE        13.5790   11.8530    2.8550 C.3    73  LYS73       0.1093
    142  NZ        14.4880   11.8980    1.6520 N.3    73  LYS73      -0.1314
    143  N          6.1490   11.5330    7.7780 N.3    75  ARG75      -0.1245
    144  CA         5.5280   11.2480    9.0590 C.3    75  ARG75       0.1563
    145  C          5.9900   12.3080   10.0540 C.2    75  ARG75       0.2260
    146  O          7.1650   12.7720   10.0580 O.2    75  ARG75      -0.2867
    147  CB         5.8870    9.8340    9.5710 C.3    75  ARG75       0.0307
    148  CG         5.3510    8.6760    8.6880 C.3    75  ARG75       0.0489
    149  CD         6.3850    7.5110    8.6820 C.3    75  ARG75       0.2205
    150  NE         7.4960    7.8340    7.7950 N.pl3  75  ARG75      -0.0865
    151  CZ         8.4400    7.0090    7.4040 C.cat  75  ARG75       0.5346
    152  NH1        8.4970    5.7600    7.8600 N.pl3  75  ARG75       0.1354
    153  NH2        9.3430    7.4480    6.5480 N.pl3  75  ARG75       0.1354
    154  N          8.1140    3.4450   17.5830 N.3   123  ILE123     -0.1245
    155  CA         9.0480    2.7350   16.6960 C.3   123  ILE123      0.1561
    156  C         10.3300    2.3390   17.3800 C.2   123  ILE123      0.2260
    157  O         11.2370    1.7110   16.7820 O.2   123  ILE123     -0.2867
    158  CB         9.3140    3.5160   15.4270 C.3   123  ILE123      0.0252
    159  CG1       10.1990    4.7620   15.7070 C.3   123  ILE123      0.0019
    160  CG2        7.9870    3.8880   14.7520 C.3   123  ILE123      0.0019
    161  CD1       11.0140    5.2520   14.3660 C.3   123  ILE123      0.0001
    162  N          9.7620    1.3430   24.2250 N.3   129  TYR129     -0.1241
    163  CA         8.9200    0.1930   24.0850 C.3   129  TYR129      0.1605
    164  C          8.4290   -0.1800   25.4460 C.2   129  TYR129      0.2264
    165  O          7.3490   -0.7120   25.5760 O.2   129  TYR129     -0.2867
    166  CB         9.6910   -1.0030   23.5660 C.3   129  TYR129      0.0534
    167  CG         9.9160   -0.9930   22.0580 C.ar  129  TYR129     -0.0201
    168  CD1        8.9370   -0.4910   21.1970 C.ar  129  TYR129     -0.0009
    169  CD2       11.0660   -1.5480   21.5210 C.ar  129  TYR129     -0.0009
    170  CE1        9.1320   -0.5100   19.7900 C.ar  129  TYR129      0.0417
    171  CE2       11.2450   -1.6160   20.1150 C.ar  129  TYR129      0.0417
    172  CZ        10.3160   -1.0600   19.2860 C.ar  129  TYR129      0.1957
    173  OH        10.5400   -1.1270   17.9160 O.3   129  TYR129     -0.2866
    174  N          7.8430   -8.0520   13.3830 N.3   144  THR144     -0.1218
    175  CA         8.5530   -8.8940   12.4180 C.3   144  THR144      0.1862
    176  C          9.4110   -9.8800   13.1440 C.2   144  THR144      0.2287
    177  O         10.3360   -9.4770   13.8420 O.2   144  THR144     -0.2866
    178  CB         9.4050   -8.0270   11.5010 C.3   144  THR144      0.1770
    179  OG1        8.5650   -7.0040   10.9300 O.3   144  THR144     -0.2211
    180  CG2       10.1790   -8.8810   10.4060 C.3   144  THR144      0.0375
@<TRIPOS>BOND
     1    43    42    1
     2    42    41    1
     3    41    40    1
     4    40    39    1
     5    66    65    1
     6    39    36    1
     7   142   141    1
     8    65    62    1
     9    86    85    1
    10    85    84    1
    11   140   141    1
    12   140   139    1
    13    37    38    2
    14    37    36    1
    15    84    83    1
    16    36    35    1
    17    62    63    1
    18    62    61    1
    19   123   125   ar
    20   123   121   ar
    21   125   124   ar
    22    64    63    2
    23   139   138    1
    24    83    82    1
    25    61    55   am
    26   121   120   ar
    27   138   135    1
    28    82    79    1
    29    44    45    1
    30   124   122   ar
    31    55    56    2
    32    55    54    1
    33    80    81    2
    34    80    79    1
    35   120   122   ar
    36   120   119    1
    37   136   137    2
    38   136   135    1
    39    59    57    1
    40   135   134    1
    41    57    54    1
    42    57    58    1
    43    79    78    1
    44    45    46    1
    45    45    48    1
    46    53    54    1
    47    53    46   am
    48    46    47    2
    49    78    69   am
    50   115   116    1
    51   153   151    1
    52   116   119    1
    53   116   117    1
    54    58    60    1
    55   134   128   am
    56    67    68    1
    57    48    49    1
    58   151   150    2
    59   151   152    1
    60    69    70    2
    61    69    68    1
    62   117   118    2
    63   143   144    1
    64   150   149    1
    65   128   129    2
    66   128   127    1
    67   112   113    1
    68   112   109    1
    69    68    71    1
    70    49    50    1
    71   113   114    1
    72   149   148    1
    73   148   147    1
    74   111   110    2
    75    71    72    1
    76   127   130    1
    77   127   126    1
    78   144   147    1
    79   144   145    1
    80   110   109    1
    81    50    51   ar
    82    50    52   ar
    83   133   131    1
    84    74    72   ar
    85    74    76   ar
    86   109   108    1
    87   114   108    1
    88   130   131    1
    89    72    73   ar
    90   145   146    2
    91   108   102   am
    92    76    77   ar
    93   131   132    1
    94   180   178    1
    95   106   104    1
    96   179   178    1
    97    73    75   ar
    98   102   103    2
    99   102   101    1
   100    77    75   ar
   101   178   175    1
   102     8     6    1
   103    33    32    1
   104   104   101    1
   105   104   105    1
   106   101   100    1
   107   107   105    1
   108   175   176    1
   109   175   174    1
   110    30    29    2
   111    31    32    1
   112    31    28    1
   113    32    34    1
   114     6     5    1
   115    97    96    2
   116   176   177    2
   117    20    17    1
   118   100    96   am
   119    29    28    1
   120    96    95    1
   121    28    27    1
   122    27    23   am
   123     5     7    1
   124     5     2    1
   125    17    16    1
   126    17    18    1
   127    25    26    1
   128    25    22    1
   129   161   159    1
   130    12    11    2
   131   160   158    1
   132    16    11   am
   133    11    10    1
   134    95    94    1
   135    95    98    1
   136    23    22    1
   137    23    24    2
   138    22    21    1
   139    18    19    2
   140   158   159    1
   141   158   155    1
   142     9     3   am
   143     9    10    1
   144     2     3    1
   145     2     1    1
   146    99    98    1
   147     3     4    2
   148    90    89    2
   149    10    13    1
   150   155   156    1
   151   155   154    1
   152   157   156    2
   153    93    91    1
   154    89    88    1
   155    13    14    1
   156    13    15    1
   157   173   172    1
   158    88    91    1
   159    88    87    1
   160    91    92    1
   161   172   170   ar
   162   172   171   ar
   163   170   168   ar
   164   171   169   ar
   165   168   167   ar
   166   169   167   ar
   167   167   166    1
   168   166   163    1
   169   163   162    1
   170   163   164    1
   171   164   165    2
