@<TRIPOS>MOLECULE
tmp/3nzbA00.pdb
 177 171 0 0 0
SMALL
GASTEIGER

@<TRIPOS>ATOM
      1  N          5.6750   -0.8640   16.5460 N.3    10  ILE10      -0.1231
      2  CA         6.1810   -1.6570   15.4300 C.3    10  ILE10       0.1692
      3  C          7.6690   -1.9610   15.7410 C.2    10  ILE10       0.2592
      4  O          8.4430   -1.0540   16.1610 O.2    10  ILE10      -0.2718
      5  CB         5.9540   -0.9240   14.1130 C.3    10  ILE10       0.0266
      6  CG1        6.5260   -1.7630   12.9540 C.3    10  ILE10       0.0019
      7  CG2        6.5940    0.5160   14.0960 C.3    10  ILE10       0.0020
      8  CD1        5.8390   -1.4560   11.5280 C.3    10  ILE10       0.0001
      9  N          8.0190   -3.2090   15.5350 N.am   11  VAL11      -0.1966
     10  CA         9.2890   -3.7710   15.9430 C.3    11  VAL11       0.1727
     11  C          9.6730   -4.9740   15.0850 C.2    11  VAL11       0.2616
     12  O          8.7840   -5.6850   14.5760 O.2    11  VAL11      -0.2715
     13  CB         9.2500   -4.1450   17.4730 C.3    11  VAL11       0.0290
     14  CG1        8.2790   -5.2580   17.7250 C.3    11  VAL11       0.0023
     15  CG2       10.6680   -4.5570   17.9600 C.3    11  VAL11       0.0023
     16  N         10.9790   -5.1260   14.8390 N.am   12  ALA12      -0.1977
     17  CA        11.5840   -6.3450   14.2880 C.3    12  ALA12       0.1597
     18  C         12.4040   -6.9780   15.3870 C.2    12  ALA12       0.2287
     19  O         13.2230   -6.2760   16.0600 O.2    12  ALA12      -0.2864
     20  CB        12.4090   -6.0280   13.0940 C.3    12  ALA12       0.0319
     21  N         25.0910   -3.0670   19.2970 N.3    22  SER22      -0.1217
     22  CA        26.1360   -2.0720   19.1370 C.3    22  SER22       0.1889
     23  C         25.5340   -0.7740   18.6380 C.2    22  SER22       0.2288
     24  O         26.0800   -0.1790   17.7320 O.2    22  SER22      -0.2866
     25  CB        27.2870   -2.5930   18.2000 C.3    22  SER22       0.2089
     26  OG        27.8220   -3.8730   18.5920 O.3    22  SER22      -0.2183
     27  N         22.8160   -0.2740   16.7580 N.3    24  SER24      -0.1202
     28  CA        22.1470   -0.3170   15.4540 C.3    24  SER24       0.2020
     29  C         21.3100   -1.6240   15.3470 C.2    24  SER24       0.2618
     30  O         21.1420   -2.3080   16.3310 O.2    24  SER24      -0.2717
     31  CB        23.1670   -0.2620   14.3150 C.3    24  SER24       0.2103
     32  OG        23.8510   -1.4800   14.2630 O.3    24  SER24      -0.2182
     33  N         20.8710   -1.9770   14.1390 N.am   25  LEU25      -0.1979
     34  CA        20.2080   -3.2850   13.8730 C.3    25  LEU25       0.1596
     35  C         21.1750   -4.3760   13.5230 C.2    25  LEU25       0.2287
     36  O         22.0550   -4.1480   12.6920 O.2    25  LEU25      -0.2864
     37  CB        19.2400   -3.1420   12.7010 C.3    25  LEU25       0.0297
     38  CG        18.2310   -2.0090   12.9200 C.3    25  LEU25       0.0022
     39  CD1       17.4360   -1.8070   11.6500 C.3    25  LEU25       0.0001
     40  CD2       17.3420   -2.3030   14.1530 C.3    25  LEU25       0.0001
     41  N         20.9370   -6.7370   11.5250 N.3    27  TRP27      -0.1227
     42  CA        20.6300   -7.4220   10.2900 C.3    27  TRP27       0.1737
     43  C         20.5250   -6.3170    9.2600 C.2    27  TRP27       0.2595
     44  O         20.3610   -5.1190    9.6120 O.2    27  TRP27      -0.2718
     45  CB        19.3490   -8.2900   10.4080 C.3    27  TRP27       0.0564
     46  CG        18.2380   -7.5390   11.0510 C.ar   27  TRP27       0.0003
     47  CD1       17.5140   -6.5230   10.5170 C.ar   27  TRP27       0.0946
     48  CD2       17.7920   -7.6880   12.4210 C.ar   27  TRP27       0.0152
     49  NE1       16.6130   -6.0350   11.4560 N.ar   27  TRP27      -0.2442
     50  CE2       16.7600   -6.7390   12.6190 C.ar   27  TRP27       0.0810
     51  CE3       18.1390   -8.5440   13.4610 C.ar   27  TRP27       0.0012
     52  CZ2       16.0740   -6.6060   13.8460 C.ar   27  TRP27       0.0191
     53  CZ3       17.4400   -8.4130   14.6740 C.ar   27  TRP27       0.0001
     54  CH2       16.4250   -7.4560   14.8400 C.ar   27  TRP27       0.0015
     55  N         20.5390   -6.7360    8.0000 N.am   28  LYS28      -0.1980
     56  CA        20.4490   -5.8840    6.8140 C.3    28  LYS28       0.1596
     57  C         19.3040   -6.3970    5.9180 C.2    28  LYS28       0.2287
     58  O         19.4740   -7.3220    5.0780 O.2    28  LYS28      -0.2864
     59  CB        21.8020   -5.8960    6.0600 C.3    28  LYS28       0.0298
     60  CG        22.3880   -7.3050    5.7660 C.3    28  LYS28       0.0038
     61  CD        23.8000   -7.1860    5.1620 C.3    28  LYS28       0.0206
     62  CE        24.3210   -8.5110    4.5610 C.3    28  LYS28       0.1093
     63  NZ        23.9550   -8.7900    3.1200 N.3    28  LYS28      -0.1314
     64  N         12.2890   -5.5420    4.6730 N.3    32  GLU32      -0.1231
     65  CA        11.7640   -5.3320    6.0460 C.3    32  GLU32       0.1699
     66  C         11.7060   -3.8490    6.3420 C.2    32  GLU32       0.2592
     67  O         10.6980   -3.3760    6.8200 O.2    32  GLU32      -0.2718
     68  CB        12.5970   -6.0570    7.0660 C.3    32  GLU32       0.0402
     69  CG        11.7890   -6.4500    8.3730 C.3    32  GLU32       0.1161
     70  CD        11.3350   -5.2370    9.2230 C.2    32  GLU32       0.3649
     71  OE1       12.1590   -4.3210    9.4320 O.co2  32  GLU32      -0.2457
     72  OE2       10.1780   -5.2360    9.6550 O.co2  32  GLU32      -0.2457
     73  N         12.7430   -3.1040    5.9860 N.am   33  ILE33      -0.1980
     74  CA        12.6170   -1.6340    6.1150 C.3    33  ILE33       0.1595
     75  C         11.4990   -1.0330    5.2520 C.2    33  ILE33       0.2287
     76  O         10.7560   -0.1440    5.6730 O.2    33  ILE33      -0.2864
     77  CB        13.9620   -0.9160    5.9600 C.3    33  ILE33       0.0276
     78  CG1       14.8150   -1.2640    7.1730 C.3    33  ILE33       0.0022
     79  CG2       13.7660    0.6380    5.8500 C.3    33  ILE33       0.0022
     80  CD1       16.1880   -0.6320    7.1940 C.3    33  ILE33       0.0001
     81  N          8.7970   -2.4800    4.3980 N.3    35  TYR35      -0.1227
     82  CA         7.5650   -2.7680    5.1680 C.3    35  TYR35       0.1736
     83  C          7.3030   -1.7390    6.3270 C.2    35  TYR35       0.2595
     84  O          6.2010   -1.2420    6.4900 O.2    35  TYR35      -0.2718
     85  CB         7.5620   -4.2120    5.7090 C.3    35  TYR35       0.0548
     86  CG         6.3880   -4.5870    6.5710 C.ar   35  TYR35      -0.0200
     87  CD1        5.2010   -5.0070    6.0020 C.ar   35  TYR35      -0.0009
     88  CD2        6.4990   -4.5830    7.9990 C.ar   35  TYR35      -0.0009
     89  CE1        4.1190   -5.4050    6.7820 C.ar   35  TYR35       0.0417
     90  CE2        5.4550   -4.9620    8.7900 C.ar   35  TYR35       0.0417
     91  CZ         4.2350   -5.3780    8.2220 C.ar   35  TYR35       0.1957
     92  OH         3.2370   -5.7670    9.0610 O.3    35  TYR35      -0.2866
     93  N          8.3420   -1.5260    7.1030 N.am   36  PHE36      -0.1976
     94  CA         8.2310   -0.5420    8.1720 C.3    36  PHE36       0.1639
     95  C          7.7840    0.8030    7.6220 C.2    36  PHE36       0.2290
     96  O          6.8360    1.4220    8.0910 O.2    36  PHE36      -0.2864
     97  CB         9.5400   -0.4690    8.8890 C.3    36  PHE36       0.0560
     98  CG         9.7290    0.7980    9.7200 C.ar   36  PHE36      -0.0200
     99  CD1        9.2010    0.8610   11.0230 C.ar   36  PHE36      -0.0042
    100  CD2       10.4230    1.8910    9.2340 C.ar   36  PHE36      -0.0042
    101  CE1        9.3660    2.0130   11.8040 C.ar   36  PHE36      -0.0003
    102  CE2       10.5690    3.0670   10.0060 C.ar   36  PHE36      -0.0003
    103  CZ        10.0560    3.1290   11.2880 C.ar   36  PHE36      -0.0000
    104  N         17.3120    5.7100   19.5110 N.3    61  THR61      -0.1218
    105  CA        16.8250    5.2810   18.1600 C.3    61  THR61       0.1862
    106  C         16.9980    6.3680   17.1610 C.2    61  THR61       0.2287
    107  O         17.3020    6.1440   15.9540 O.2    61  THR61      -0.2866
    108  CB        15.3100    4.8240   18.2110 C.3    61  THR61       0.1770
    109  OG1       15.2300    3.6820   19.0000 O.3    61  THR61      -0.2211
    110  CG2       14.7540    4.5210   16.8470 C.3    61  THR61       0.0375
    111  N         20.4440    6.3470   16.1330 N.3    64  SER64      -0.1202
    112  CA        20.7250    5.0370   15.5060 C.3    64  SER64       0.2020
    113  C         20.4470    5.0370   14.0330 C.2    64  SER64       0.2619
    114  O         21.0420    4.2660   13.2670 O.2    64  SER64      -0.2717
    115  CB        19.8230    3.9530   16.1480 C.3    64  SER64       0.2103
    116  OG        20.0230    2.6620   15.5790 O.3    64  SER64      -0.2182
    117  N         19.5340    5.8930   13.6310 N.am   65  ILE65      -0.1966
    118  CA        19.0690    5.9430   12.2480 C.3    65  ILE65       0.1712
    119  C         20.0910    6.7870   11.5100 C.2    65  ILE65       0.2458
    120  O         20.4650    7.8530   12.0050 O.2    65  ILE65      -0.2730
    121  CB        17.6510    6.5510   12.1390 C.3    65  ILE65       0.0289
    122  CG1       16.5820    5.6280   12.7810 C.3    65  ILE65       0.0022
    123  CG2       17.2830    6.8100   10.7220 C.3    65  ILE65       0.0023
    124  CD1       15.2010    6.2650   12.8640 C.3    65  ILE65       0.0001
    125  N         20.5870    6.2770   10.3640 N.am   66  PRO66      -0.2727
    126  CA        21.5700    7.0150    9.5560 C.3    66  PRO66       0.1402
    127  C         21.0910    8.4030    9.2310 C.2    66  PRO66       0.2269
    128  O         19.9400    8.6000    8.8640 O.2    66  PRO66      -0.2865
    129  CB        21.6620    6.1830    8.2770 C.3    66  PRO66       0.0296
    130  CG        21.4250    4.7700    8.7590 C.3    66  PRO66       0.0237
    131  CD        20.4190    4.8880    9.8830 C.3    66  PRO66       0.0939
    132  N         18.4550    9.4680    6.6610 N.3    69  PHE69      -0.1241
    133  CA        17.0840    8.9650    6.7370 C.3    69  PHE69       0.1605
    134  C         16.2250    9.6790    7.7990 C.2    69  PHE69       0.2264
    135  O         15.1290    9.2200    8.1540 O.2    69  PHE69      -0.2867
    136  CB        17.0930    7.4290    6.9080 C.3    69  PHE69       0.0534
    137  CG        17.6440    6.6910    5.6970 C.ar   69  PHE69      -0.0203
    138  CD1       17.0310    6.8170    4.4460 C.ar   69  PHE69      -0.0042
    139  CD2       18.7970    5.9360    5.7910 C.ar   69  PHE69      -0.0042
    140  CE1       17.5660    6.1680    3.3240 C.ar   69  PHE69      -0.0003
    141  CE2       19.3350    5.3010    4.6720 C.ar   69  PHE69      -0.0003
    142  CZ        18.7020    5.4130    3.4380 C.ar   69  PHE69      -0.0000
    143  N         12.5780   10.7200    9.7110 N.3    72  LEU72      -0.1245
    144  CA        11.8880    9.7340    8.9090 C.3    72  LEU72       0.1561
    145  C         10.8200   10.4360    8.0450 C.2    72  LEU72       0.2260
    146  O          9.9230   11.1200    8.5310 O.2    72  LEU72      -0.2867
    147  CB        11.3290    8.6110    9.8290 C.3    72  LEU72       0.0270
    148  CG        12.3690    7.7690   10.5930 C.3    72  LEU72       0.0019
    149  CD1       11.5780    6.7470   11.4140 C.3    72  LEU72       0.0001
    150  CD2       13.3120    7.0320    9.6420 C.3    72  LEU72       0.0001
    151  N          8.1010    3.4760   17.6280 N.3   123  ILE123     -0.1245
    152  CA         9.0240    2.7570   16.7280 C.3   123  ILE123      0.1561
    153  C         10.3260    2.3480   17.3840 C.2   123  ILE123      0.2260
    154  O         11.1880    1.7710   16.7130 O.2   123  ILE123     -0.2867
    155  CB         9.3440    3.5520   15.4250 C.3   123  ILE123      0.0252
    156  CG1       10.3070    4.7010   15.8170 C.3   123  ILE123      0.0019
    157  CG2        8.0960    3.9470   14.7260 C.3   123  ILE123      0.0019
    158  CD1       11.0230    5.3570   14.5090 C.3   123  ILE123      0.0001
    159  N          9.8710    1.3150   24.1830 N.3   129  TYR129     -0.1241
    160  CA         8.9410    0.1830   24.0700 C.3   129  TYR129      0.1605
    161  C          8.3910   -0.2180   25.4670 C.2   129  TYR129      0.2264
    162  O          7.2310   -0.5830   25.6350 O.2   129  TYR129     -0.2867
    163  CB         9.6790   -0.9970   23.4890 C.3   129  TYR129      0.0534
    164  CG         9.8710   -0.9780   21.9510 C.ar  129  TYR129     -0.0201
    165  CD1        8.8870   -0.4530   21.0500 C.ar  129  TYR129     -0.0009
    166  CD2       11.0550   -1.5280   21.4400 C.ar  129  TYR129     -0.0009
    167  CE1        9.0940   -0.4990   19.6490 C.ar  129  TYR129      0.0417
    168  CE2       11.2240   -1.5720   20.1040 C.ar  129  TYR129      0.0417
    169  CZ        10.2990   -1.0730   19.2370 C.ar  129  TYR129      0.1957
    170  OH        10.5240   -1.1270   17.8730 O.3   129  TYR129     -0.2866
    171  N          7.8450   -8.0300   13.3310 N.3   144  THR144     -0.1218
    172  CA         8.5410   -8.8710   12.3400 C.3   144  THR144      0.1862
    173  C          9.3610   -9.8530   13.1120 C.2   144  THR144      0.2287
    174  O         10.2970   -9.4500   13.8500 O.2   144  THR144     -0.2866
    175  CB         9.3990   -8.0320   11.4370 C.3   144  THR144      0.1770
    176  OG1        8.5540   -7.0810   10.7810 O.3   144  THR144     -0.2211
    177  CG2       10.1070   -8.9510   10.3520 C.3   144  THR144      0.0375
@<TRIPOS>BOND
     1    63    62    1
     2   140   142   ar
     3   140   138   ar
     4   142   141   ar
     5    81    82    1
     6   138   137   ar
     7    62    61    1
     8   141   139   ar
     9    64    65    1
    10    58    57    2
    11    61    60    1
    12    82    85    1
    13    82    83    1
    14    75    76    2
    15    75    74    1
    16   137   139   ar
    17   137   136    1
    18    85    86    1
    19    60    59    1
    20    79    77    1
    21    57    56    1
    22    77    74    1
    23    77    78    1
    24    73    74    1
    25    73    66   am
    26    87    86   ar
    27    87    89   ar
    28    65    66    1
    29    65    68    1
    30    59    56    1
    31    83    84    2
    32    83    93   am
    33    66    67    2
    34    86    88   ar
    35   132   133    1
    36   133   136    1
    37   133   134    1
    38    89    91   ar
    39    56    55    1
    40    68    69    1
    41    93    94    1
    42    78    80    1
    43    95    96    2
    44    95    94    1
    45   134   135    2
    46    88    90   ar
    47    55    43   am
    48   145   146    2
    49   145   144    1
    50    94    97    1
    51    91    90   ar
    52    91    92    1
    53   129   130    1
    54   129   126    1
    55    69    70    1
    56   130   131    1
    57   128   127    2
    58    97    98    1
    59   144   143    1
    60   144   147    1
    61    70    71   ar
    62    70    72   ar
    63   127   126    1
    64   100    98   ar
    65   100   102   ar
    66    43    44    2
    67    43    42    1
    68   126   125    1
    69   150   148    1
    70    98    99   ar
    71   147   148    1
    72   131   125    1
    73   102   103   ar
    74    42    45    1
    75    42    41    1
    76   177   175    1
    77   125   119   am
    78    45    46    1
    79    47    46   ar
    80    47    49   ar
    81   148   149    1
    82   123   121    1
    83   176   175    1
    84    99   101   ar
    85    46    48   ar
    86   103   101   ar
    87   175   172    1
    88    49    50   ar
    89   119   120    2
    90   119   118    1
    91     8     6    1
    92    39    38    1
    93   121   118    1
    94   121   122    1
    95   118   117    1
    96   172   173    1
    97   172   171    1
    98    48    50   ar
    99    48    51   ar
   100    50    52   ar
   101    36    35    2
   102    37    38    1
   103    37    34    1
   104   122   124    1
   105    38    40    1
   106     6     5    1
   107    20    17    1
   108   173   174    2
   109   114   113    2
   110    51    53   ar
   111    35    34    1
   112   117   113   am
   113    52    54   ar
   114    34    33    1
   115   113   112    1
   116     7     5    1
   117     5     2    1
   118    33    29   am
   119    32    31    1
   120    17    16    1
   121    17    18    1
   122    31    28    1
   123   158   156    1
   124    12    11    2
   125    53    54   ar
   126   157   155    1
   127    16    11   am
   128    11    10    1
   129    29    28    1
   130    29    30    2
   131    18    19    2
   132   155   156    1
   133   155   152    1
   134     2     3    1
   135     2     1    1
   136    28    27    1
   137   112   111    1
   138   112   115    1
   139     9     3   am
   140     9    10    1
   141   116   115    1
   142     3     4    2
   143    10    13    1
   144   107   106    2
   145   154   153    2
   146   152   153    1
   147   152   151    1
   148   110   108    1
   149   106   105    1
   150    13    14    1
   151    13    15    1
   152    24    23    2
   153   170   169    1
   154   105   108    1
   155   105   104    1
   156    25    26    1
   157    25    22    1
   158   108   109    1
   159    23    22    1
   160    22    21    1
   161   169   167   ar
   162   169   168   ar
   163   167   165   ar
   164   168   166   ar
   165   165   164   ar
   166   166   164   ar
   167   164   163    1
   168   163   160    1
   169   160   159    1
   170   160   161    1
   171   161   162    2
