@<TRIPOS>MOLECULE
tmp/3nzcA00.pdb
 160 152 0 0 0
SMALL
GASTEIGER

@<TRIPOS>ATOM
      1  N          5.7540   -0.7960   16.2990 N.3    10  ILE10      -0.1231
      2  CA         6.2750   -1.6230   15.2030 C.3    10  ILE10       0.1692
      3  C          7.7410   -1.9520   15.5460 C.2    10  ILE10       0.2592
      4  O          8.4520   -1.1060   16.0750 O.2    10  ILE10      -0.2718
      5  CB         6.1090   -0.9560   13.8170 C.3    10  ILE10       0.0266
      6  CG1        6.6750   -1.8670   12.6740 C.3    10  ILE10       0.0019
      7  CG2        6.7160    0.5370   13.8030 C.3    10  ILE10       0.0020
      8  CD1        6.1550   -1.4240   11.1250 C.3    10  ILE10       0.0001
      9  N          8.1410   -3.1880   15.2790 N.am   11  VAL11      -0.1966
     10  CA         9.3990   -3.7560   15.8370 C.3    11  VAL11       0.1727
     11  C          9.7990   -4.9530   14.9820 C.2    11  VAL11       0.2616
     12  O          8.9160   -5.6840   14.4600 O.2    11  VAL11      -0.2715
     13  CB         9.2310   -4.1720   17.3510 C.3    11  VAL11       0.0290
     14  CG1        8.1920   -5.3170   17.5120 C.3    11  VAL11       0.0023
     15  CG2       10.6070   -4.5830   17.9870 C.3    11  VAL11       0.0023
     16  N         11.1220   -5.1840   14.8250 N.am   12  ALA12      -0.1977
     17  CA        11.6460   -6.3820   14.1770 C.3    12  ALA12       0.1597
     18  C         12.4870   -6.9960   15.2520 C.2    12  ALA12       0.2287
     19  O         13.2310   -6.2540   15.9510 O.2    12  ALA12      -0.2864
     20  CB        12.5160   -6.0020   12.9780 C.3    12  ALA12       0.0319
     21  N         22.7710   -0.1280   16.3560 N.3    24  SER24      -0.1202
     22  CA        22.2780   -0.5460   15.0280 C.3    24  SER24       0.2020
     23  C         21.4020   -1.8360   15.1130 C.2    24  SER24       0.2618
     24  O         21.0660   -2.2920   16.2060 O.2    24  SER24      -0.2717
     25  CB        23.4360   -0.7210   14.0270 C.3    24  SER24       0.2103
     26  OG        23.8590   -2.0730   13.9700 O.3    24  SER24      -0.2182
     27  N         21.0360   -2.3960   13.9610 N.am   25  LEU25      -0.1979
     28  CA        20.3040   -3.6700   13.8890 C.3    25  LEU25       0.1596
     29  C         21.2460   -4.6960   13.2900 C.2    25  LEU25       0.2287
     30  O         21.7580   -4.4770   12.1690 O.2    25  LEU25      -0.2864
     31  CB        19.1010   -3.5360   12.9560 C.3    25  LEU25       0.0297
     32  CG        18.3160   -2.2560   13.1840 C.3    25  LEU25       0.0022
     33  CD1       17.7150   -1.7840   11.8670 C.3    25  LEU25       0.0001
     34  CD2       17.2790   -2.4840   14.2590 C.3    25  LEU25       0.0001
     35  N         16.5760   -5.0890    3.4020 N.3    30  LYS30      -0.1245
     36  CA        16.0200   -3.9530    2.6960 C.3    30  LYS30       0.1561
     37  C         14.4980   -4.0790    2.4190 C.2    30  LYS30       0.2260
     38  O         13.7940   -3.0680    2.4400 O.2    30  LYS30      -0.2867
     39  CB        16.9180   -3.4710    1.5120 C.3    30  LYS30       0.0271
     40  CG        17.8230   -2.2220    1.9710 C.3    30  LYS30       0.0035
     41  CD        18.9690   -1.7110    1.0400 C.3    30  LYS30       0.0206
     42  CE        18.4920   -1.3050   -0.3410 C.3    30  LYS30       0.1093
     43  NZ        18.1710   -2.5260   -1.1370 N.3    30  LYS30      -0.1314
     44  N         12.4810   -5.6580    4.5920 N.3    32  GLU32      -0.1231
     45  CA        11.9010   -5.4410    5.8870 C.3    32  GLU32       0.1699
     46  C         11.7310   -3.9060    6.0110 C.2    32  GLU32       0.2592
     47  O         10.5790   -3.3910    6.1560 O.2    32  GLU32      -0.2718
     48  CB        12.7860   -6.0360    6.9750 C.3    32  GLU32       0.0402
     49  CG        11.9990   -6.4180    8.2390 C.3    32  GLU32       0.1161
     50  CD        11.4570   -5.2240    9.0330 C.2    32  GLU32       0.3649
     51  OE1       12.2120   -4.2500    9.3050 O.co2  32  GLU32      -0.2457
     52  OE2       10.2560   -5.2620    9.3900 O.co2  32  GLU32      -0.2457
     53  N         12.8420   -3.1710    5.8780 N.am   33  ILE33      -0.1966
     54  CA        12.8090   -1.6660    5.9920 C.3    33  ILE33       0.1727
     55  C         11.6650   -1.0770    5.1570 C.2    33  ILE33       0.2616
     56  O         10.9410   -0.1660    5.5940 O.2    33  ILE33      -0.2715
     57  CB        14.1540   -1.0010    5.6330 C.3    33  ILE33       0.0290
     58  CG1       15.3060   -1.6410    6.4160 C.3    33  ILE33       0.0022
     59  CG2       14.0820    0.5540    5.7970 C.3    33  ILE33       0.0023
     60  CD1       15.6050   -1.0310    7.7780 C.3    33  ILE33       0.0001
     61  N         11.4580   -1.6660    3.9870 N.am   34  SER34      -0.1950
     62  CA        10.4470   -1.1840    3.0780 C.3    34  SER34       0.1924
     63  C          9.0150   -1.5300    3.5620 C.2    34  SER34       0.2314
     64  O          8.0780   -0.7570    3.3430 O.2    34  SER34      -0.2863
     65  CB        10.7500   -1.6570    1.6500 C.3    34  SER34       0.2116
     66  OG         9.6000   -2.2640    1.0690 O.3    34  SER34      -0.2180
     67  N          8.4150   -1.5600    6.8010 N.3    36  PHE36      -0.1227
     68  CA         8.3370   -0.5820    7.8880 C.3    36  PHE36       0.1736
     69  C          7.8780    0.7350    7.2610 C.2    36  PHE36       0.2595
     70  O          6.9420    1.3730    7.7250 O.2    36  PHE36      -0.2718
     71  CB         9.7210   -0.4080    8.5580 C.3    36  PHE36       0.0547
     72  CG         9.8290    0.8140    9.4230 C.ar   36  PHE36      -0.0202
     73  CD1        9.3350    0.8160   10.7290 C.ar   36  PHE36      -0.0042
     74  CD2       10.4040    1.9700    8.9350 C.ar   36  PHE36      -0.0042
     75  CE1        9.4020    1.9300   11.5060 C.ar   36  PHE36      -0.0003
     76  CE2       10.5120    3.1210    9.7380 C.ar   36  PHE36      -0.0003
     77  CZ        10.0080    3.0990   11.0250 C.ar   36  PHE36      -0.0000
     78  N          8.5570    1.1590    6.1860 N.am   37  LYS37      -0.1980
     79  CA         8.1580    2.4560    5.5420 C.3    37  LYS37       0.1596
     80  C          6.6820    2.4220    5.1080 C.2    37  LYS37       0.2287
     81  O          5.9240    3.3340    5.4350 O.2    37  LYS37      -0.2864
     82  CB         9.0930    2.8440    4.3870 C.3    37  LYS37       0.0298
     83  CG         8.8190    4.2100    3.7110 C.3    37  LYS37       0.0038
     84  CD        10.1090    4.5870    2.9180 C.3    37  LYS37       0.0206
     85  CE         9.8800    5.6940    1.8750 C.3    37  LYS37       0.1093
     86  NZ        10.5970    5.3910    0.5700 N.3    37  LYS37      -0.1314
     87  N         17.3000    5.8630   18.9210 N.3    61  THR61      -0.1218
     88  CA        16.7880    5.3530   17.6640 C.3    61  THR61       0.1862
     89  C         16.9360    6.4370   16.6380 C.2    61  THR61       0.2287
     90  O         17.2950    6.1720   15.4670 O.2    61  THR61      -0.2866
     91  CB        15.2990    4.9360   17.7640 C.3    61  THR61       0.1770
     92  OG1       15.2000    3.7690   18.5870 O.3    61  THR61      -0.2211
     93  CG2       14.7380    4.6570   16.4130 C.3    61  THR61       0.0375
     94  N         20.6220    6.3590   15.9020 N.3    64  SER64      -0.1202
     95  CA        20.7180    5.1690   15.0290 C.3    64  SER64       0.2020
     96  C         20.3230    5.3110   13.5320 C.2    64  SER64       0.2619
     97  O         20.8440    4.5990   12.6950 O.2    64  SER64      -0.2717
     98  CB        19.9350    4.0120   15.6580 C.3    64  SER64       0.2103
     99  OG        19.9910    2.8520   14.8530 O.3    64  SER64      -0.2182
    100  N         19.3920    6.1850   13.1830 N.am   65  ILE65      -0.1966
    101  CA        18.9300    6.2790   11.7690 C.3    65  ILE65       0.1712
    102  C         19.9190    7.1050   10.9020 C.2    65  ILE65       0.2458
    103  O         20.2330    8.2480   11.2560 O.2    65  ILE65      -0.2730
    104  CB        17.4710    6.8780   11.6600 C.3    65  ILE65       0.0289
    105  CG1       16.4340    5.9860   12.3980 C.3    65  ILE65       0.0022
    106  CG2       17.0760    7.1690   10.1760 C.3    65  ILE65       0.0023
    107  CD1       14.9430    6.3470   12.1310 C.3    65  ILE65       0.0001
    108  N         20.3910    6.5390    9.7650 N.am   66  PRO66      -0.2727
    109  CA        21.4000    7.2610    8.9770 C.3    66  PRO66       0.1402
    110  C         20.8540    8.6280    8.6460 C.2    66  PRO66       0.2269
    111  O         19.7500    8.7330    8.1040 O.2    66  PRO66      -0.2865
    112  CB        21.5320    6.4340    7.6850 C.3    66  PRO66       0.0296
    113  CG        20.9650    5.1100    7.9930 C.3    66  PRO66       0.0237
    114  CD        19.8670    5.3700    9.0330 C.3    66  PRO66       0.0939
    115  N         18.1350    9.8310    6.1620 N.3    69  PHE69      -0.1241
    116  CA        16.7560    9.3350    6.2490 C.3    69  PHE69       0.1605
    117  C         15.8860   10.0280    7.3310 C.2    69  PHE69       0.2264
    118  O         14.6890    9.7180    7.4600 O.2    69  PHE69      -0.2867
    119  CB        16.7560    7.7930    6.4130 C.3    69  PHE69       0.0534
    120  CG        17.4190    7.0530    5.2540 C.ar   69  PHE69      -0.0203
    121  CD1       16.9030    7.1640    3.9410 C.ar   69  PHE69      -0.0042
    122  CD2       18.5640    6.2900    5.4730 C.ar   69  PHE69      -0.0042
    123  CE1       17.5030    6.5180    2.8670 C.ar   69  PHE69      -0.0003
    124  CE2       19.1870    5.6290    4.4140 C.ar   69  PHE69      -0.0003
    125  CZ        18.6540    5.7420    3.0950 C.ar   69  PHE69      -0.0000
    126  N         11.9120   10.9550    9.1770 N.3    72  LEU72      -0.1245
    127  CA        11.3070    9.9500    8.3100 C.3    72  LEU72       0.1561
    128  C         10.2430   10.6590    7.5590 C.2    72  LEU72       0.2260
    129  O          9.3740   11.2770    8.1580 O.2    72  LEU72      -0.2867
    130  CB        10.7640    8.7350    9.1050 C.3    72  LEU72       0.0270
    131  CG        11.8210    7.9560    9.9090 C.3    72  LEU72       0.0019
    132  CD1       11.1800    6.8950   10.8400 C.3    72  LEU72       0.0001
    133  CD2       12.8830    7.2880    9.0530 C.3    72  LEU72       0.0001
    134  N          8.2020    3.4690   17.3460 N.3   123  ILE123     -0.1245
    135  CA         9.1240    2.7370   16.4330 C.3   123  ILE123      0.1561
    136  C         10.4040    2.3560   17.1760 C.2   123  ILE123      0.2260
    137  O         11.3260    1.7510   16.6290 O.2   123  ILE123     -0.2867
    138  CB         9.4320    3.5110   15.1820 C.3   123  ILE123      0.0252
    139  CG1       10.2720    4.7880   15.5070 C.3   123  ILE123      0.0019
    140  CG2        8.0980    3.8970   14.3920 C.3   123  ILE123      0.0019
    141  CD1       10.8700    5.4550   14.2120 C.3   123  ILE123      0.0001
    142  N          9.7940    1.4000   23.8790 N.3   129  TYR129     -0.1241
    143  CA         8.9570    0.1960   23.8190 C.3   129  TYR129      0.1605
    144  C          8.4130   -0.1760   25.2050 C.2   129  TYR129      0.2264
    145  O          7.2380   -0.5640   25.3520 O.2   129  TYR129     -0.2867
    146  CB         9.7460   -0.9720   23.2240 C.3   129  TYR129      0.0534
    147  CG         9.9690   -0.9610   21.7150 C.ar  129  TYR129     -0.0201
    148  CD1        8.9940   -0.5010   20.8360 C.ar  129  TYR129     -0.0009
    149  CD2       11.1620   -1.5070   21.1850 C.ar  129  TYR129     -0.0009
    150  CE1        9.1960   -0.5200   19.4550 C.ar  129  TYR129      0.0417
    151  CE2       11.3610   -1.5740   19.8350 C.ar  129  TYR129      0.0417
    152  CZ        10.3980   -1.0750   18.9590 C.ar  129  TYR129      0.1957
    153  OH        10.6330   -1.1710   17.5940 O.3   129  TYR129     -0.2866
    154  N          7.8870   -8.0200   13.1440 N.3   144  THR144     -0.1218
    155  CA         8.6020   -8.8650   12.1750 C.3   144  THR144      0.1862
    156  C          9.4540   -9.8440   12.8910 C.2   144  THR144      0.2287
    157  O         10.3030   -9.4550   13.7000 O.2   144  THR144     -0.2866
    158  CB         9.4750   -8.0610   11.2790 C.3   144  THR144      0.1770
    159  OG1        8.6690   -7.0660   10.6540 O.3   144  THR144     -0.2211
    160  CG2       10.1510   -9.0160   10.2110 C.3   144  THR144      0.0375
@<TRIPOS>BOND
     1    43    42    1
     2    42    41    1
     3    86    85    1
     4    41    40    1
     5    66    65    1
     6    39    40    1
     7    39    36    1
     8    65    62    1
     9    85    84    1
    10    37    38    2
    11    37    36    1
    12    36    35    1
    13   123   125   ar
    14   123   121   ar
    15    84    83    1
    16    62    63    1
    17    62    61    1
    18   125   124   ar
    19    64    63    2
    20    83    82    1
    21   121   120   ar
    22    61    55   am
    23    82    79    1
    24   124   122   ar
    25    44    45    1
    26    80    81    2
    27    80    79    1
    28    55    56    2
    29    55    54    1
    30   120   122   ar
    31   120   119    1
    32    79    78    1
    33    57    59    1
    34    57    54    1
    35    57    58    1
    36    53    54    1
    37    53    46   am
    38    45    46    1
    39    45    48    1
    40    46    47    2
    41   115   116    1
    42    78    69   am
    43   116   119    1
    44   116   117    1
    45    58    60    1
    46    67    68    1
    47    48    49    1
    48    69    70    2
    49    69    68    1
    50   117   118    2
    51   128   129    2
    52   128   127    1
    53   112   113    1
    54   112   109    1
    55    68    71    1
    56   113   114    1
    57   111   110    2
    58    49    50    1
    59   127   130    1
    60   127   126    1
    61    71    72    1
    62   110   109    1
    63    74    72   ar
    64    74    76   ar
    65   109   108    1
    66    50    51   ar
    67    50    52   ar
    68   114   108    1
    69   133   131    1
    70   130   131    1
    71    72    73   ar
    72    76    77   ar
    73   108   102   am
    74   131   132    1
    75   106   104    1
    76   160   158    1
    77   159   158    1
    78    73    75   ar
    79   102   103    2
    80   102   101    1
    81    77    75   ar
    82     8     6    1
    83   158   155    1
    84   104   101    1
    85   104   105    1
    86   101   100    1
    87    33    32    1
    88   107   105    1
    89    30    29    2
    90   155   156    1
    91   155   154    1
    92     6     5    1
    93    97    96    2
    94   156   157    2
    95    31    32    1
    96    31    28    1
    97    20    17    1
    98   100    96   am
    99    32    34    1
   100    29    28    1
   101    96    95    1
   102     7     5    1
   103     5     2    1
   104    28    27    1
   105    27    23   am
   106    26    25    1
   107    25    22    1
   108    17    16    1
   109    17    18    1
   110   141   139    1
   111   140   138    1
   112    12    11    2
   113    16    11   am
   114    99    98    1
   115    11    10    1
   116    22    23    1
   117    22    21    1
   118    95    98    1
   119    95    94    1
   120    23    24    2
   121   138   139    1
   122   138   135    1
   123     2     3    1
   124     2     1    1
   125    18    19    2
   126     9     3   am
   127     9    10    1
   128    90    89    2
   129     3     4    2
   130    10    13    1
   131    93    91    1
   132   135   136    1
   133   135   134    1
   134   137   136    2
   135    89    88    1
   136    13    14    1
   137    13    15    1
   138   153   152    1
   139    88    91    1
   140    88    87    1
   141    91    92    1
   142   152   150   ar
   143   152   151   ar
   144   150   148   ar
   145   151   149   ar
   146   148   147   ar
   147   149   147   ar
   148   147   146    1
   149   146   143    1
   150   143   142    1
   151   143   144    1
   152   144   145    2
