@<TRIPOS>MOLECULE
tmp/3nzdA00.pdb
 201 193 0 0 0
SMALL
GASTEIGER

@<TRIPOS>ATOM
      1  N        -21.6890  -12.8840   -1.5320 N.3     7  ILE7       -0.1231
      2  CA       -20.6060  -12.8640   -2.4920 C.3     7  ILE7        0.1692
      3  C        -19.3490  -13.5750   -1.9720 C.2     7  ILE7        0.2592
      4  O        -19.0270  -13.4350   -0.8000 O.2     7  ILE7       -0.2718
      5  CB       -20.3120  -11.3560   -2.9390 C.3     7  ILE7        0.0266
      6  CG1      -19.2370  -11.3060   -4.0500 C.3     7  ILE7        0.0019
      7  CG2      -19.9040  -10.4980   -1.7430 C.3     7  ILE7        0.0020
      8  CD1      -19.2060   -9.8690   -4.7480 C.3     7  ILE7        0.0001
      9  N        -18.6090  -14.2700   -2.8590 N.am    8  VAL8       -0.1966
     10  CA       -17.5500  -15.1730   -2.4450 C.3     8  VAL8        0.1727
     11  C        -16.6840  -15.4430   -3.6600 C.2     8  VAL8        0.2616
     12  O        -17.1770  -15.3720   -4.8300 O.2     8  VAL8       -0.2715
     13  CB       -18.0990  -16.5730   -1.9190 C.3     8  VAL8        0.0290
     14  CG1      -18.6480  -17.4040   -3.0400 C.3     8  VAL8        0.0023
     15  CG2      -16.9960  -17.3280   -1.1620 C.3     8  VAL8        0.0023
     16  N        -15.4130  -15.7470   -3.3930 N.am    9  ALA9       -0.1977
     17  CA       -14.5700  -16.3490   -4.4280 C.3     9  ALA9        0.1597
     18  C        -14.1410  -17.7200   -3.9950 C.2     9  ALA9        0.2287
     19  O        -13.7390  -17.9220   -2.8040 O.2     9  ALA9       -0.2864
     20  CB       -13.3500  -15.4100   -4.7610 C.3     9  ALA9        0.0319
     21  N        -12.2840  -21.4840    0.3900 N.3    16  ILE16      -0.1231
     22  CA       -12.3740  -19.9760    0.4840 C.3    16  ILE16       0.1692
     23  C        -11.3140  -19.3440    1.3880 C.2    16  ILE16       0.2592
     24  O        -11.0640  -18.1630    1.3080 O.2    16  ILE16      -0.2718
     25  CB       -13.7710  -19.4690    0.8810 C.3    16  ILE16       0.0266
     26  CG1      -14.1290  -19.8760    2.3100 C.3    16  ILE16       0.0019
     27  CG2      -14.8760  -20.0370   -0.1510 C.3    16  ILE16       0.0020
     28  CD1      -15.3410  -19.0610    2.8470 C.3    16  ILE16       0.0001
     29  N        -10.6650  -20.1300    2.2290 N.am   17  GLY17      -0.1957
     30  CA        -9.7460  -19.5210    3.1860 C.3    17  GLY17       0.1869
     31  C         -8.7030  -20.5500    3.5980 C.2    17  GLY17       0.2309
     32  O         -8.9270  -21.7390    3.4740 O.2    17  GLY17      -0.2863
     33  N         -6.7070  -17.9130    7.8940 N.3    20  GLY20      -0.1210
     34  CA        -7.1460  -16.5260    8.1430 C.3    20  GLY20       0.1956
     35  C         -6.8680  -15.6340    6.9540 C.2    20  GLY20       0.2612
     36  O         -6.9670  -14.4160    7.0420 O.2    20  GLY20      -0.2717
     37  N         -6.4920  -16.2470    5.8390 N.am   21  ASP21      -0.1959
     38  CA        -6.2830  -15.4950    4.5850 C.3    21  ASP21       0.1840
     39  C         -6.8900  -16.2030    3.3830 C.2    21  ASP21       0.2621
     40  O         -7.5240  -17.2600    3.5600 O.2    21  ASP21      -0.2715
     41  CB        -4.7970  -15.2590    4.3360 C.3    21  ASP21       0.1450
     42  CG        -4.5420  -13.8860    3.6660 C.2    21  ASP21       0.3671
     43  OD1       -5.2960  -13.4780    2.7170 O.co2  21  ASP21      -0.2456
     44  OD2       -3.6400  -13.1670    4.1620 O.co2  21  ASP21      -0.2456
     45  N         -6.8110  -15.5760    2.1890 N.am   22  LEU22      -0.1977
     46  CA        -7.2900  -16.2530    0.9520 C.3    22  LEU22       0.1596
     47  C         -6.3390  -17.4080    0.5750 C.2    22  LEU22       0.2287
     48  O         -5.1440  -17.3270    0.8440 O.2    22  LEU22      -0.2864
     49  CB        -7.4450  -15.2600   -0.2260 C.3    22  LEU22       0.0297
     50  CG        -8.4480  -14.0900    0.0020 C.3    22  LEU22       0.0022
     51  CD1       -8.6270  -13.1510   -1.1980 C.3    22  LEU22       0.0001
     52  CD2       -9.8200  -14.6380    0.4280 C.3    22  LEU22       0.0001
     53  N         -3.0130  -12.6710   -3.8260 N.3    26  PRO26      -0.2116
     54  CA        -3.9630  -11.5780   -4.0710 C.3    26  PRO26       0.1372
     55  C         -4.3280  -11.4370   -5.5670 C.2    26  PRO26       0.2244
     56  O         -3.4230  -11.3850   -6.4370 O.2    26  PRO26      -0.2868
     57  CB        -3.1910  -10.3370   -3.6000 C.3    26  PRO26       0.0268
     58  CG        -2.1920  -10.8760   -2.5670 C.3    26  PRO26       0.0207
     59  CD        -1.7760  -12.2040   -3.1450 C.3    26  PRO26       0.0892
     60  N         -5.8760   -8.7500   -7.7240 N.3    28  ARG28      -0.1245
     61  CA        -6.3200   -7.3980   -7.4080 C.3    28  ARG28       0.1563
     62  C         -7.6080   -6.9820   -8.1640 C.2    28  ARG28       0.2260
     63  O         -8.4390   -6.2740   -7.6180 O.2    28  ARG28      -0.2867
     64  CB        -5.1660   -6.3880   -7.5660 C.3    28  ARG28       0.0307
     65  CG        -5.1470   -5.6500   -8.8480 C.3    28  ARG28       0.0489
     66  CD        -4.4930   -4.1930   -8.7420 C.3    28  ARG28       0.2205
     67  NE        -3.5080   -3.9110   -7.6660 N.pl3  28  ARG28      -0.0865
     68  CZ        -3.1390   -2.6750   -7.2560 C.cat  28  ARG28       0.5346
     69  NH1       -2.2390   -2.5200   -6.2810 N.pl3  28  ARG28       0.1354
     70  NH2       -3.6620   -1.5750   -7.8130 N.pl3  28  ARG28       0.1354
     71  N         -9.9710   -9.0830   -9.0740 N.3    30  GLU30      -0.1231
     72  CA       -11.0450   -9.7980   -8.3670 C.3    30  GLU30       0.1699
     73  C        -11.4930   -9.0050   -7.1660 C.2    30  GLU30       0.2592
     74  O        -12.6660   -8.7780   -6.9490 O.2    30  GLU30      -0.2718
     75  CB       -10.6170  -11.2350   -7.9910 C.3    30  GLU30       0.0402
     76  CG       -11.7990  -12.2450   -7.9310 C.3    30  GLU30       0.1161
     77  CD       -12.6930  -12.0450   -6.6750 C.2    30  GLU30       0.3649
     78  OE1      -13.9190  -12.1470   -6.8690 O.co2  30  GLU30      -0.2457
     79  OE2      -12.1770  -11.8010   -5.5010 O.co2  30  GLU30      -0.2457
     80  N        -10.5600   -8.5340   -6.3770 N.am   31  PHE31      -0.1976
     81  CA       -10.9550   -7.6980   -5.2880 C.3    31  PHE31       0.1639
     82  C        -11.6420   -6.3810   -5.7260 C.2    31  PHE31       0.2290
     83  O        -12.5950   -5.9370   -5.0740 O.2    31  PHE31      -0.2864
     84  CB        -9.7460   -7.3890   -4.3890 C.3    31  PHE31       0.0560
     85  CG       -10.1110   -6.6070   -3.1820 C.ar   31  PHE31      -0.0200
     86  CD1      -11.0180   -7.1100   -2.2200 C.ar   31  PHE31      -0.0042
     87  CD2       -9.5630   -5.3430   -3.0020 C.ar   31  PHE31      -0.0042
     88  CE1      -11.3270   -6.3300   -1.0620 C.ar   31  PHE31      -0.0003
     89  CE2       -9.8560   -4.6130   -1.8730 C.ar   31  PHE31      -0.0003
     90  CZ       -10.7200   -5.1150   -0.9070 C.ar   31  PHE31      -0.0000
     91  N        -13.5440   -6.0320   -8.2900 N.3    33  TYR33      -0.1227
     92  CA       -14.9100   -6.5170   -8.6450 C.3    33  TYR33       0.1736
     93  C        -15.7620   -6.6160   -7.3430 C.2    33  TYR33       0.2595
     94  O        -16.8860   -6.0820   -7.2770 O.2    33  TYR33      -0.2718
     95  CB       -14.8220   -7.8840   -9.3730 C.3    33  TYR33       0.0548
     96  CG       -16.1680   -8.5710   -9.5060 C.ar   33  TYR33      -0.0200
     97  CD1      -16.5520   -9.5970   -8.6420 C.ar   33  TYR33      -0.0009
     98  CD2      -17.0590   -8.1990  -10.5270 C.ar   33  TYR33      -0.0009
     99  CE1      -17.7860  -10.2320   -8.7960 C.ar   33  TYR33       0.0417
    100  CE2      -18.3070   -8.8030  -10.6520 C.ar   33  TYR33       0.0417
    101  CZ       -18.6760   -9.7840   -9.7740 C.ar   33  TYR33       0.1957
    102  OH       -19.9140  -10.4160   -9.9530 O.3    33  TYR33      -0.2866
    103  N        -15.2170   -7.2910   -6.3190 N.am   34  PHE34      -0.1962
    104  CA       -15.9250   -7.4470   -5.0180 C.3    34  PHE34       0.1771
    105  C        -16.2980   -6.0550   -4.4900 C.2    34  PHE34       0.2619
    106  O        -17.4220   -5.8760   -4.0250 O.2    34  PHE34      -0.2715
    107  CB       -15.0240   -8.1790   -3.9620 C.3    34  PHE34       0.0574
    108  CG       -15.4820   -8.0080   -2.5460 C.ar   34  PHE34      -0.0200
    109  CD1      -16.5710   -8.7240   -2.0490 C.ar   34  PHE34      -0.0042
    110  CD2      -14.8900   -7.0420   -1.7230 C.ar   34  PHE34      -0.0042
    111  CE1      -17.0290   -8.5560   -0.7460 C.ar   34  PHE34      -0.0003
    112  CE2      -15.3560   -6.8200   -0.4380 C.ar   34  PHE34      -0.0003
    113  CZ       -16.4360   -7.5940    0.0820 C.ar   34  PHE34      -0.0000
    114  N        -15.3400   -5.1250   -4.5140 N.am   35  GLN35      -0.1977
    115  CA       -15.5740   -3.7800   -3.9820 C.3    35  GLN35       0.1601
    116  C        -16.7320   -3.0690   -4.7420 C.2    35  GLN35       0.2287
    117  O        -17.5990   -2.4600   -4.1180 O.2    35  GLN35      -0.2864
    118  CB       -14.3110   -2.9350   -4.1510 C.3    35  GLN35       0.0394
    119  CG       -13.1130   -3.4020   -3.1810 C.3    35  GLN35       0.0908
    120  CD       -13.3330   -2.9790   -1.6910 C.2    35  GLN35       0.2608
    121  OE1      -14.2490   -3.4370   -1.0330 O.2    35  GLN35      -0.2717
    122  NE2      -12.4240   -2.1470   -1.1580 N.am   35  GLN35      -0.0878
    123  N        -13.8470  -13.1660    9.4420 N.3    56  THR56      -0.1218
    124  CA       -13.7490  -12.4650    8.1680 C.3    56  THR56       0.1862
    125  C        -13.3540  -11.0600    8.4240 C.2    56  THR56       0.2287
    126  O        -12.4520  -10.5410    7.7530 O.2    56  THR56      -0.2866
    127  CB       -15.1000  -12.5700    7.3290 C.3    56  THR56       0.1770
    128  OG1      -15.2730  -13.9470    6.8870 O.3    56  THR56      -0.2211
    129  CG2      -15.0190  -11.6510    6.0990 C.3    56  THR56       0.0375
    130  N         -9.7880  -10.8560    9.0350 N.3    59  SER59      -0.1202
    131  CA        -9.0530  -11.4120    7.8880 C.3    59  SER59       0.2020
    132  C         -8.8250  -10.3590    6.8090 C.2    59  SER59       0.2619
    133  O         -7.9470  -10.4920    5.9310 O.2    59  SER59      -0.2717
    134  CB        -9.8760  -12.5490    7.2710 C.3    59  SER59       0.2103
    135  OG        -9.8320  -13.6780    8.1180 O.3    59  SER59      -0.2182
    136  N         -9.6360   -9.3150    6.8460 N.am   60  ILE60      -0.1966
    137  CA        -9.4880   -8.1900    5.9120 C.3    60  ILE60       0.1712
    138  C         -8.3390   -7.2880    6.4420 C.2    60  ILE60       0.2458
    139  O         -8.3150   -6.9990    7.6690 O.2    60  ILE60      -0.2730
    140  CB       -10.7700   -7.3840    5.8230 C.3    60  ILE60       0.0289
    141  CG1      -11.9090   -8.2430    5.2550 C.3    60  ILE60       0.0022
    142  CG2      -10.4900   -6.1360    4.9130 C.3    60  ILE60       0.0023
    143  CD1      -13.3660   -7.5870    5.4420 C.3    60  ILE60       0.0001
    144  N         -7.3650   -6.9010    5.5690 N.am   61  PRO61      -0.2727
    145  CA        -6.3070   -6.0610    6.1270 C.3    61  PRO61       0.1402
    146  C         -6.8700   -4.7710    6.7580 C.2    61  PRO61       0.2269
    147  O         -7.7820   -4.1370    6.1880 O.2    61  PRO61      -0.2865
    148  CB        -5.4100   -5.7310    4.9060 C.3    61  PRO61       0.0296
    149  CG        -5.6200   -6.8450    3.9350 C.3    61  PRO61       0.0237
    150  CD        -7.1320   -7.1990    4.1400 C.3    61  PRO61       0.0939
    151  N         -5.9840   -1.7500    6.6840 N.3    63  LYS63      -0.1231
    152  CA        -6.1100   -0.5630    5.8030 C.3    63  LYS63       0.1693
    153  C         -7.4170   -0.5300    5.0260 C.2    63  LYS63       0.2592
    154  O         -7.9030    0.5640    4.6480 O.2    63  LYS63      -0.2718
    155  CB        -4.8990   -0.3780    4.8520 C.3    63  LYS63       0.0285
    156  CG        -5.1120   -0.7730    3.4020 C.3    63  LYS63       0.0035
    157  CD        -4.5300    0.2870    2.4060 C.3    63  LYS63       0.0206
    158  CE        -3.0060    0.4210    2.5500 C.3    63  LYS63       0.1093
    159  NZ        -2.2960    1.0480    1.3780 N.3    63  LYS63      -0.1314
    160  N         -8.0040   -1.7250    4.8330 N.am   64  ASN64      -0.1974
    161  CA        -9.1980   -1.8970    4.0170 C.3    64  ASN64       0.1688
    162  C        -10.4520   -2.0910    4.8240 C.2    64  ASN64       0.2292
    163  O        -11.5020   -2.3220    4.2250 O.2    64  ASN64      -0.2864
    164  CB        -9.0470   -3.1040    3.0470 C.3    64  ASN64       0.1181
    165  CG        -7.8260   -2.9920    2.1790 C.2    64  ASN64       0.2629
    166  OD1       -7.7570   -2.1510    1.2470 O.2    64  ASN64      -0.2716
    167  ND2       -6.8380   -3.7770    2.4890 N.am   64  ASN64      -0.0877
    168  N        -14.9080   -1.7100    5.2310 N.3    67  LEU67      -0.1245
    169  CA       -15.0650   -1.6070    3.7730 C.3    67  LEU67       0.1561
    170  C        -15.7700   -0.2940    3.4500 C.2    67  LEU67       0.2260
    171  O        -16.9120   -0.0350    3.9150 O.2    67  LEU67      -0.2867
    172  CB       -15.9050   -2.8020    3.2890 C.3    67  LEU67       0.0270
    173  CG       -15.2480   -4.2040    3.4890 C.3    67  LEU67       0.0019
    174  CD1      -16.2340   -5.3230    3.1430 C.3    67  LEU67       0.0001
    175  CD2      -13.9770   -4.3050    2.6100 C.3    67  LEU67       0.0001
    176  N        -20.6930  -11.2160    3.0750 N.3   115  VAL115     -0.1245
    177  CA       -19.3780  -11.2880    2.4780 C.3   115  VAL115      0.1561
    178  C        -18.3980  -12.3210    3.1670 C.2   115  VAL115      0.2260
    179  O        -17.2350  -12.4060    2.7610 O.2   115  VAL115     -0.2867
    180  CB       -18.7140   -9.8810    2.3620 C.3   115  VAL115      0.0252
    181  CG1      -19.6250   -8.9240    1.6700 C.3   115  VAL115      0.0019
    182  CG2      -18.2830   -9.3550    3.7870 C.3   115  VAL115      0.0019
    183  N        -22.6410  -17.8980    5.2890 N.3   121  TYR121     -0.1241
    184  CA       -23.0790  -18.3150    3.9470 C.3   121  TYR121      0.1605
    185  C        -24.0920  -19.4520    4.0570 C.2   121  TYR121      0.2264
    186  O        -25.1720  -19.4040    3.4160 O.2   121  TYR121     -0.2867
    187  CB       -21.8980  -18.7750    3.0940 C.3   121  TYR121      0.0534
    188  CG       -20.9390  -17.7200    2.6170 C.ar  121  TYR121     -0.0201
    189  CD1      -19.5600  -17.9620    2.6770 C.ar  121  TYR121     -0.0009
    190  CD2      -21.4020  -16.5100    1.9860 C.ar  121  TYR121     -0.0009
    191  CE1      -18.6130  -17.0420    2.1590 C.ar  121  TYR121      0.0417
    192  CE2      -20.4640  -15.5620    1.5110 C.ar  121  TYR121      0.0417
    193  CZ       -19.0830  -15.8530    1.5990 C.ar  121  TYR121      0.1957
    194  OH       -18.1530  -14.9760    1.1110 O.3   121  TYR121     -0.2866
    195  N        -17.2800  -16.0860   -7.6250 N.3   136  THR136     -0.1218
    196  CA       -16.1530  -16.1220   -8.5780 C.3   136  THR136      0.1862
    197  C        -15.5090  -17.5200   -8.5030 C.2   136  THR136      0.2287
    198  O        -15.0660  -17.9470   -7.4360 O.2   136  THR136     -0.2866
    199  CB       -15.0900  -15.0700   -8.1750 C.3   136  THR136      0.1770
    200  OG1      -15.6890  -13.7780   -8.0540 O.3   136  THR136     -0.2211
    201  CG2      -13.8830  -15.0660   -9.2100 C.3   136  THR136      0.0375
@<TRIPOS>BOND
     1   100    98   ar
     2   100   101   ar
     3    98    96   ar
     4   102   101    1
     5   101    99   ar
     6    96    95    1
     7    96    97   ar
     8    95    92    1
     9   201   199    1
    10    71    72    1
    11    65    66    1
    12    65    64    1
    13    99    97   ar
    14    66    67    1
    15    92    91    1
    16    92    93    1
    17   196   197    1
    18   196   199    1
    19   196   195    1
    20   197   198    2
    21    72    75    1
    22    72    73    1
    23   199   200    1
    24    62    63    2
    25    62    61    1
    26    75    76    1
    27    76    77    1
    28    70    68    1
    29    60    61    1
    30    67    68    2
    31    64    61    1
    32    93    94    2
    33    93   103   am
    34    68    69    1
    35    73    74    2
    36    73    80   am
    37    78    77   ar
    38    77    79   ar
    39    56    55    2
    40    80    81    1
    41   103   104    1
    42    82    81    1
    43    82    83    2
    44    55    54    1
    45    81    84    1
    46   104   105    1
    47   104   107    1
    48    12    11    2
    49    20    17    1
    50     8     6    1
    51   116   117    2
    52   116   115    1
    53   114   105   am
    54   114   115    1
    55   105   106    2
    56    17    18    1
    57    17    16    1
    58    84    85    1
    59   118   115    1
    60   118   119    1
    61    54    53    1
    62    54    57    1
    63     6     5    1
    64    18    19    2
    65   107   108    1
    66    53    59    1
    67    11    16   am
    68    11    10    1
    69    57    58    1
    70    85    87   ar
    71    85    86   ar
    72   119   120    1
    73    59    58    1
    74    14    13    1
    75    87    89   ar
    76     5     2    1
    77     5     7    1
    78     9    10    1
    79     9     3   am
    80   108   109   ar
    81   108   110   ar
    82     2     3    1
    83     2     1    1
    84    10    13    1
    85    86    88   ar
    86   109   111   ar
    87     3     4    2
    88    13    15    1
    89    89    90   ar
    90   110   112   ar
    91   120   122   am
    92   120   121    2
    93    51    50    1
    94    88    90   ar
    95   111   113   ar
    96   112   113   ar
    97    49    50    1
    98    49    46    1
    99    27    25    1
   100    50    52    1
   101    21    22    1
   102    22    25    1
   103    22    23    1
   104    47    48    2
   105    47    46    1
   106    25    26    1
   107    46    45    1
   108   194   193    1
   109   166   165    2
   110    24    23    2
   111   159   158    1
   112    23    29   am
   113   192   193   ar
   114   192   190   ar
   115   193   191   ar
   116   181   180    1
   117   190   188   ar
   118   191   189   ar
   119   165   167   am
   120   165   164    1
   121    45    39   am
   122    29    30    1
   123    26    28    1
   124   180   177    1
   125   180   182    1
   126   157   158    1
   127   157   156    1
   128   177   176    1
   129   177   178    1
   130   175   173    1
   131   188   189   ar
   132   188   187    1
   133    43    42   ar
   134   179   178    2
   135   164   161    1
   136   187   184    1
   137   174   173    1
   138    30    31    1
   139   172   173    1
   140   172   169    1
   141    39    40    2
   142    39    38    1
   143   156   155    1
   144   186   185    2
   145   170   169    1
   146   170   171    2
   147    32    31    2
   148    42    44   ar
   149    42    41    1
   150   169   168    1
   151   149   150    1
   152   149   148    1
   153   184   185    1
   154   184   183    1
   155   161   162    1
   156   161   160    1
   157   150   144    1
   158   163   162    2
   159    41    38    1
   160    38    37    1
   161   154   153    2
   162   160   153   am
   163   155   152    1
   164   148   145    1
   165   142   140    1
   166   153   152    1
   167   141   143    1
   168   141   140    1
   169   144   145    1
   170   144   138   am
   171   152   151    1
   172   140   137    1
   173    37    35   am
   174   137   138    1
   175   137   136    1
   176   133   132    2
   177   129   127    1
   178   145   146    1
   179   147   146    2
   180   138   139    2
   181   132   136   am
   182   132   131    1
   183   128   127    1
   184    35    36    2
   185    35    34    1
   186   134   131    1
   187   134   135    1
   188   127   124    1
   189   126   125    2
   190   131   130    1
   191    33    34    1
   192   124   125    1
   193   124   123    1
