@<TRIPOS>MOLECULE
tmp/3nziA00.pdb
 134 131 0 0 0
SMALL
GASTEIGER

@<TRIPOS>ATOM
      1  N          7.1350  -23.0960  -11.5140 N.3    61  HIS61      -0.1241
      2  CA         7.4220  -22.2790  -12.7010 C.3    61  HIS61       0.1621
      3  C          8.7380  -21.5060  -12.6420 C.2    61  HIS61       0.2264
      4  O          9.2170  -21.0420  -13.6720 O.2    61  HIS61      -0.2867
      5  CB         6.2500  -21.3260  -13.0320 C.3    61  HIS61       0.0745
      6  CG         6.0500  -20.2150  -12.0430 C.ar   61  HIS61       0.0817
      7  ND1        5.0660  -20.2420  -11.0780 N.ar   61  HIS61      -0.2268
      8  CD2        6.6920  -19.0320  -11.8870 C.ar   61  HIS61       0.1154
      9  CE1        5.1190  -19.1330  -10.3640 C.ar   61  HIS61       0.1986
     10  NE2        6.0970  -18.3810  -10.8340 N.ar   61  HIS61      -0.2212
     11  N          1.7750  -24.9940   -7.6180 N.3    91  ASP91      -0.1239
     12  CA         2.9900  -24.5660   -8.2830 C.3    91  ASP91       0.1674
     13  C          4.1480  -24.4970   -7.2880 C.2    91  ASP91       0.2266
     14  O          4.7240  -23.4330   -7.0840 O.2    91  ASP91      -0.2867
     15  CB         2.7120  -23.2030   -8.9220 C.3    91  ASP91       0.1410
     16  CG         3.7770  -22.7750   -9.9040 C.2    91  ASP91       0.3668
     17  OD1        3.4540  -21.9320  -10.7660 O.co2  91  ASP91      -0.2456
     18  OD2        4.9240  -23.2540   -9.8180 O.co2  91  ASP91      -0.2456
     19  N        -10.5220  -17.1470  -10.8770 N.3   148  LEU148     -0.1231
     20  CA        -9.4610  -16.3780  -11.5420 C.3   148  LEU148      0.1693
     21  C         -9.3010  -16.6710  -13.0400 C.2   148  LEU148      0.2593
     22  O         -8.5920  -15.9420  -13.7420 O.2   148  LEU148     -0.2718
     23  CB        -8.1260  -16.6270  -10.8320 C.3   148  LEU148      0.0284
     24  CG        -8.0930  -16.1850   -9.3700 C.3   148  LEU148      0.0019
     25  CD1       -6.9080  -16.7950   -8.6310 C.3   148  LEU148      0.0001
     26  CD2       -8.0680  -14.6730   -9.3010 C.3   148  LEU148      0.0001
     27  N         -9.9480  -17.7290  -13.5260 N.am  149  GLY149     -0.1942
     28  CA        -9.8430  -18.1140  -14.9330 C.3   149  GLY149      0.2014
     29  C         -9.3700  -19.5410  -15.1400 C.2   149  GLY149      0.2638
     30  O         -9.6220  -20.1240  -16.1920 O.2   149  GLY149     -0.2714
     31  N         -8.6790  -20.1030  -14.1500 N.am  150  LEU150     -0.1977
     32  CA        -8.2620  -21.5050  -14.2030 C.3   150  LEU150      0.1596
     33  C         -9.4980  -22.4020  -14.2040 C.2   150  LEU150      0.2287
     34  O        -10.0260  -22.7340  -13.1440 O.2   150  LEU150     -0.2864
     35  CB        -7.3590  -21.8570  -13.0120 C.3   150  LEU150      0.0297
     36  CG        -6.0130  -21.1330  -12.9070 C.3   150  LEU150      0.0022
     37  CD1       -5.3960  -21.3360  -11.5310 C.3   150  LEU150      0.0001
     38  CD2       -5.0580  -21.6000  -13.9950 C.3   150  LEU150      0.0001
     39  N          3.3930   -6.9650   -5.6410 N.3   164  ILE164     -0.1231
     40  CA         4.0960   -8.1940   -5.9740 C.3   164  ILE164      0.1692
     41  C          4.3890   -8.1420   -7.4680 C.2   164  ILE164      0.2592
     42  O          3.5220   -7.7840   -8.2720 O.2   164  ILE164     -0.2718
     43  CB         3.1950   -9.4210   -5.6480 C.3   164  ILE164      0.0266
     44  CG1        3.8600  -10.3480   -4.6260 C.3   164  ILE164      0.0019
     45  CG2        2.8240  -10.1900   -6.9170 C.3   164  ILE164      0.0020
     46  CD1        4.2330   -9.6610   -3.3450 C.3   164  ILE164      0.0001
     47  N          5.6080   -8.4770   -7.8550 N.am  165  ASN165     -0.1960
     48  CA         6.0310   -8.2360   -9.2250 C.3   165  ASN165      0.1819
     49  C          6.8460   -9.3730   -9.7970 C.2   165  ASN165      0.2621
     50  O          7.2310  -10.2770   -9.0670 O.2   165  ASN165     -0.2715
     51  CB         6.8100   -6.9230   -9.2880 C.3   165  ASN165      0.1195
     52  CG         5.9410   -5.7600   -9.7070 C.2   165  ASN165      0.2630
     53  OD1        5.5000   -5.6870  -10.8530 O.2   165  ASN165     -0.2716
     54  ND2        5.6910   -4.8430   -8.7840 N.am  165  ASN165     -0.0877
     55  N          7.0980   -9.3180  -11.1050 N.am  166  TYR166     -0.1960
     56  CA         7.8690  -10.3510  -11.7870 C.3   166  TYR166      0.1771
     57  C          9.1810  -10.5770  -11.0540 C.2   166  TYR166      0.2620
     58  O         10.0420   -9.6840  -11.0130 O.2   166  TYR166     -0.2715
     59  CB         8.1260   -9.9830  -13.2530 C.3   166  TYR166      0.0574
     60  CG         6.8640   -9.9560  -14.0910 C.ar  166  TYR166     -0.0198
     61  CD1        6.1390  -11.1250  -14.3340 C.ar  166  TYR166     -0.0009
     62  CD2        6.3850   -8.7630  -14.6300 C.ar  166  TYR166     -0.0009
     63  CE1        4.9670  -11.1040  -15.0990 C.ar  166  TYR166      0.0417
     64  CE2        5.2180   -8.7330  -15.3950 C.ar  166  TYR166      0.0417
     65  CZ         4.5150   -9.9050  -15.6240 C.ar  166  TYR166      0.1957
     66  OH         3.3640   -9.8720  -16.3760 O.3   166  TYR166     -0.2866
     67  N          9.2990  -11.7610  -10.4460 N.am  167  GLY167     -0.1940
     68  CA        10.4650  -12.1270   -9.6440 C.3   167  GLY167      0.2014
     69  C         10.1710  -12.4350   -8.1850 C.2   167  GLY167      0.2639
     70  O         10.9910  -13.0500   -7.5030 O.2   167  GLY167     -0.2714
     71  N          9.0160  -11.9940   -7.6900 N.am  168  ASN168     -0.1958
     72  CA         8.5860  -12.3410   -6.3390 C.3   168  ASN168      0.1819
     73  C          8.2290  -13.8180   -6.2750 C.2   168  ASN168      0.2622
     74  O          8.3190  -14.4480   -5.2130 O.2   168  ASN168     -0.2715
     75  CB         7.3850  -11.4950   -5.8950 C.3   168  ASN168      0.1195
     76  CG         7.7840  -10.1210   -5.3880 C.2   168  ASN168      0.2630
     77  OD1        7.3200   -9.1050   -5.9120 O.2   168  ASN168     -0.2716
     78  ND2        8.6430  -10.0760   -4.3680 N.am  168  ASN168     -0.0877
     79  N          7.8190  -14.3570   -7.4210 N.am  169  SER169     -0.1950
     80  CA         7.4790  -15.7650   -7.5520 C.3   169  SER169      0.1924
     81  C          8.2920  -16.6420   -6.5960 C.2   169  SER169      0.2314
     82  O          9.5170  -16.5140   -6.4910 O.2   169  SER169     -0.2863
     83  CB         7.6630  -16.2130   -9.0130 C.3   169  SER169      0.2116
     84  OG         6.5750  -15.7530   -9.8250 O.3   169  SER169     -0.2180
     85  N          4.1270  -16.4220   -2.7100 N.3   184  ASN184     -0.1225
     86  CA         3.6640  -15.4600   -3.7070 C.3   184  ASN184      0.1785
     87  C          3.7930  -16.0410   -5.1070 C.2   184  ASN184      0.2598
     88  O          4.8950  -16.4140   -5.5070 O.2   184  ASN184     -0.2718
     89  CB         4.4850  -14.1810   -3.6110 C.3   184  ASN184      0.1169
     90  CG         4.4190  -13.5550   -2.2400 C.2   184  ASN184      0.2627
     91  OD1        3.3490  -13.4870   -1.6320 O.2   184  ASN184     -0.2716
     92  ND2        5.5650  -13.0870   -1.7450 N.am  184  ASN184     -0.0877
     93  N          2.6880  -16.0740   -5.8550 N.am  185  THR185     -0.1939
     94  CA         2.5720  -16.9440   -7.0220 C.3   185  THR185      0.2028
     95  C          1.9700  -16.2920   -8.2800 C.2   185  THR185      0.2642
     96  O          2.5540  -16.3940   -9.3500 O.2   185  THR185     -0.2714
     97  CB         1.7690  -18.2070   -6.6300 C.3   185  THR185      0.1808
     98  OG1        2.3930  -18.8140   -5.4910 O.3   185  THR185     -0.2208
     99  CG2        1.7160  -19.2190   -7.7650 C.3   185  THR185      0.0379
    100  N          0.8030  -15.6590   -8.1720 N.am  186  LEU186     -0.1963
    101  CA         0.1850  -14.9720   -9.3270 C.3   186  LEU186      0.1728
    102  C         -0.0020  -13.4910   -9.0370 C.2   186  LEU186      0.2616
    103  O          0.1640  -13.0480   -7.9100 O.2   186  LEU186     -0.2715
    104  CB        -1.1820  -15.5760   -9.6870 C.3   186  LEU186      0.0311
    105  CG        -1.3850  -17.0780   -9.4560 C.3   186  LEU186      0.0022
    106  CD1       -2.7020  -17.5340  -10.0410 C.3   186  LEU186      0.0001
    107  CD2       -0.2530  -17.8910  -10.0420 C.3   186  LEU186      0.0001
    108  N         -0.3480  -12.7410  -10.0760 N.am  187  LYS187     -0.1963
    109  CA        -0.7300  -11.3340   -9.9640 C.3   187  LYS187      0.1728
    110  C         -1.7910  -11.0300  -11.0300 C.2   187  LYS187      0.2616
    111  O         -1.6880  -11.5140  -12.1540 O.2   187  LYS187     -0.2715
    112  CB         0.5130  -10.4350  -10.0900 C.3   187  LYS187      0.0311
    113  CG         0.3550   -9.1330  -10.9010 C.3   187  LYS187      0.0038
    114  CD         1.6770   -8.3380  -10.9310 C.3   187  LYS187      0.0206
    115  CE         1.7500   -7.3150  -12.0780 C.3   187  LYS187      0.1093
    116  NZ         2.0400   -7.9640  -13.4010 N.3   187  LYS187     -0.1314
    117  N         -2.8260  -10.2690  -10.6660 N.am  188  VAL188     -0.1977
    118  CA        -3.8160   -9.7770  -11.6350 C.3   188  VAL188      0.1596
    119  C         -3.4670   -8.3410  -11.9870 C.2   188  VAL188      0.2287
    120  O         -3.2920   -8.0070  -13.1540 O.2   188  VAL188     -0.2864
    121  CB        -5.2430   -9.8270  -11.0970 C.3   188  VAL188      0.0276
    122  CG1       -6.1620   -9.0770  -12.0190 C.3   188  VAL188      0.0022
    123  CG2       -5.7080  -11.2680  -10.9500 C.3   188  VAL188      0.0022
    124  N         -1.5310  -13.0930   -5.5220 N.3   194  PHE194     -0.1241
    125  CA        -2.0010  -14.3300   -4.9140 C.3   194  PHE194      0.1605
    126  C         -0.8670  -15.2300   -4.4840 C.2   194  PHE194      0.2264
    127  O          0.2370  -15.1680   -5.0290 O.2   194  PHE194     -0.2867
    128  CB        -2.9020  -15.0700   -5.8830 C.3   194  PHE194      0.0534
    129  CG        -4.1390  -14.3150   -6.2350 C.ar  194  PHE194     -0.0203
    130  CD1       -4.1630  -13.4760   -7.3370 C.ar  194  PHE194     -0.0042
    131  CD2       -5.2740  -14.4250   -5.4550 C.ar  194  PHE194     -0.0042
    132  CE1       -5.3140  -12.7760   -7.6630 C.ar  194  PHE194     -0.0003
    133  CE2       -6.4240  -13.7330   -5.7740 C.ar  194  PHE194     -0.0003
    134  CZ        -6.4490  -12.9090   -6.8770 C.ar  194  PHE194     -0.0000
@<TRIPOS>BOND
     1    66    65    1
     2    30    29    2
     3    65    64   ar
     4    65    63   ar
     5    64    62   ar
     6    29    28    1
     7    29    31   am
     8    63    61   ar
     9    28    27    1
    10    62    60   ar
    11    61    60   ar
    12    33    32    1
    13    33    34    2
    14    32    31    1
    15    32    35    1
    16    60    59    1
    17    38    36    1
    18    22    21    2
    19     4     3    2
    20    27    21   am
    21   116   115    1
    22    59    56    1
    23   120   119    2
    24    21    20    1
    25     5     2    1
    26     5     6    1
    27    35    36    1
    28    36    37    1
    29     2     3    1
    30     2     1    1
    31   111   110    2
    32   115   114    1
    33     6     8   ar
    34     6     7   ar
    35   122   121    1
    36   119   118    1
    37     8    10   ar
    38    56    55    1
    39    56    57    1
    40   118   121    1
    41   118   117    1
    42    20    19    1
    43    20    23    1
    44    55    49   am
    45   121   123    1
    46     7     9   ar
    47    57    58    2
    48    57    67   am
    49   110   117   am
    50   110   109    1
    51   114   113    1
    52   113   112    1
    53    53    52    2
    54    10     9   ar
    55    23    24    1
    56    17    16   ar
    57    67    68    1
    58   112   109    1
    59   108   109    1
    60   108   102   am
    61   107   105    1
    62   106   105    1
    63    16    18   ar
    64    16    15    1
    65    84    83    1
    66    49    48    1
    67    49    50    2
    68    52    51    1
    69    52    54   am
    70   104   105    1
    71   104   101    1
    72    68    69    1
    73    24    26    1
    74    24    25    1
    75    96    95    2
    76   101   102    1
    77   101   100    1
    78    51    48    1
    79    48    47    1
    80   102   103    2
    81    83    80    1
    82    15    12    1
    83    12    11    1
    84    12    13    1
    85    95   100   am
    86    95    94    1
    87    42    41    2
    88    69    71   am
    89    69    70    2
    90    47    41   am
    91    99    97    1
    92    71    72    1
    93   132   130   ar
    94   132   134   ar
    95    80    79    1
    96    80    81    1
    97    41    40    1
    98    79    73   am
    99   130   129   ar
   100    13    14    2
   101    94    97    1
   102    94    93    1
   103    45    43    1
   104   134   133   ar
   105    97    98    1
   106    81    82    2
   107    72    73    1
   108    72    75    1
   109    73    74    2
   110   129   128    1
   111   129   131   ar
   112    40    43    1
   113    40    39    1
   114    77    76    2
   115    75    76    1
   116   128   125    1
   117    93    87   am
   118   133   131   ar
   119    43    44    1
   120   124   125    1
   121    88    87    2
   122    76    78   am
   123    87    86    1
   124   127   126    2
   125   125   126    1
   126    44    46    1
   127    86    89    1
   128    86    85    1
   129    89    90    1
   130    90    92   am
   131    90    91    2
