@<TRIPOS>MOLECULE
tmp/3nzkB00.pdb
 209 202 0 0 0
SMALL
GASTEIGER

@<TRIPOS>ATOM
      1  N        -29.8310  -16.3530  -29.8420 N.3    18  LEU18      -0.1231
      2  CA       -28.5650  -16.1400  -30.5440 C.3    18  LEU18       0.1693
      3  C        -28.3750  -14.6940  -31.0040 C.2    18  LEU18       0.2592
      4  O        -27.3260  -14.0890  -30.7660 O.2    18  LEU18      -0.2718
      5  CB       -28.4650  -17.0680  -31.7530 C.3    18  LEU18       0.0284
      6  CG       -27.2820  -16.8060  -32.6970 C.3    18  LEU18       0.0019
      7  CD1      -25.9640  -16.9390  -31.9670 C.3    18  LEU18       0.0001
      8  CD2      -27.3590  -17.7640  -33.8950 C.3    18  LEU18       0.0001
      9  N        -29.3920  -14.1400  -31.6550 N.am   19  HIS19      -0.1976
     10  CA       -29.2620  -12.7960  -32.2100 C.3    19  HIS19       0.1656
     11  C        -29.7400  -11.6730  -31.2900 C.2    19  HIS19       0.2291
     12  O        -29.1470  -10.5950  -31.2680 O.2    19  HIS19      -0.2864
     13  CB       -29.9320  -12.7240  -33.5760 C.3    19  HIS19       0.0771
     14  CG       -29.2370  -13.5520  -34.6100 C.ar   19  HIS19       0.0820
     15  ND1      -29.8400  -14.6190  -35.2380 N.ar   19  HIS19      -0.2267
     16  CD2      -27.9710  -13.4990  -35.0870 C.ar   19  HIS19       0.1154
     17  CE1      -28.9820  -15.1750  -36.0750 C.ar   19  HIS19       0.1986
     18  NE2      -27.8400  -14.5150  -36.0010 N.ar   19  HIS19      -0.2212
     19  N        -30.5090  -14.8480  -42.7640 N.3    62  LEU62      -0.1231
     20  CA       -29.8620  -14.9910  -41.4640 C.3    62  LEU62       0.1693
     21  C        -30.3040  -16.2650  -40.7350 C.2    62  LEU62       0.2592
     22  O        -29.4800  -17.0500  -40.2460 O.2    62  LEU62      -0.2718
     23  CB       -30.1620  -13.7680  -40.5940 C.3    62  LEU62       0.0284
     24  CG       -29.5420  -13.7720  -39.1980 C.3    62  LEU62       0.0019
     25  CD1      -28.0250  -13.9200  -39.2810 C.3    62  LEU62       0.0001
     26  CD2      -29.9420  -12.5140  -38.4250 C.3    62  LEU62       0.0001
     27  N        -31.6160  -16.4510  -40.6650 N.am   63  CYS63      -0.1970
     28  CA       -32.2150  -17.5650  -39.9390 C.3    63  CYS63       0.1712
     29  C        -33.6260  -17.7440  -40.4560 C.2    63  CYS63       0.2296
     30  O        -34.0750  -16.9910  -41.3200 O.2    63  CYS63      -0.2864
     31  CB       -32.2540  -17.2630  -38.4390 C.3    63  CYS63       0.0983
     32  SG       -33.3160  -15.8370  -38.0170 S.3    63  CYS63      -0.0798
     33  N        -35.4120  -22.7180  -36.6940 N.3    78  GLU78      -0.1231
     34  CA       -34.9690  -23.8370  -37.5410 C.3    78  GLU78       0.1699
     35  C        -34.4520  -25.0790  -36.7940 C.2    78  GLU78       0.2592
     36  O        -34.6500  -26.2100  -37.2430 O.2    78  GLU78      -0.2718
     37  CB       -33.9470  -23.3780  -38.5910 C.3    78  GLU78       0.0402
     38  CG       -32.6910  -22.7360  -38.0330 C.3    78  GLU78       0.1161
     39  CD       -32.7700  -21.2180  -38.0230 C.2    78  GLU78       0.3649
     40  OE1      -33.8950  -20.6780  -37.9960 O.co2  78  GLU78      -0.2457
     41  OE2      -31.7130  -20.5670  -38.0460 O.co2  78  GLU78      -0.2457
     42  N        -33.7870  -24.8890  -35.6650 N.am   79  HIS79      -0.1976
     43  CA       -33.2010  -26.0440  -34.9900 C.3    79  HIS79       0.1656
     44  C        -34.2590  -26.7890  -34.1920 C.2    79  HIS79       0.2291
     45  O        -34.3100  -28.0100  -34.2300 O.2    79  HIS79      -0.2864
     46  CB       -32.0130  -25.6430  -34.1040 C.3    79  HIS79       0.0771
     47  CG       -30.9620  -24.8660  -34.8370 C.ar   79  HIS79       0.0820
     48  ND1      -30.0400  -24.0700  -34.1910 N.ar   79  HIS79      -0.2267
     49  CD2      -30.6880  -24.7660  -36.1590 C.ar   79  HIS79       0.1154
     50  CE1      -29.2520  -23.4980  -35.0860 C.ar   79  HIS79       0.1986
     51  NE2      -29.6150  -23.9160  -36.2860 N.ar   79  HIS79      -0.2212
     52  N        -24.5220  -25.1200  -35.0820 N.3   191  THR191     -0.1203
     53  CA       -24.3890  -23.9800  -35.9360 C.3   191  THR191      0.1994
     54  C        -22.9500  -23.4640  -35.9050 C.2   191  THR191      0.2618
     55  O        -22.1750  -23.7570  -34.9820 O.2   191  THR191     -0.2717
     56  CB       -25.3860  -22.8780  -35.5130 C.3   191  THR191      0.1784
     57  OG1      -25.4650  -21.9040  -36.5510 O.3   191  THR191     -0.2211
     58  CG2      -24.9550  -22.2300  -34.1970 C.3   191  THR191      0.0376
     59  N        -22.5920  -22.7050  -36.9310 N.am  192  PHE192     -0.1961
     60  CA       -21.2400  -22.2030  -37.0490 C.3   192  PHE192      0.1771
     61  C        -21.2530  -20.8210  -37.6610 C.2   192  PHE192      0.2620
     62  O        -22.1850  -20.4530  -38.3750 O.2   192  PHE192     -0.2715
     63  CB       -20.3770  -23.1560  -37.8980 C.3   192  PHE192      0.0574
     64  CG       -20.9190  -23.4160  -39.2740 C.ar  192  PHE192     -0.0200
     65  CD1      -21.8250  -24.4510  -39.5040 C.ar  192  PHE192     -0.0042
     66  CD2      -20.5210  -22.6370  -40.3450 C.ar  192  PHE192     -0.0042
     67  CE1      -22.3210  -24.6920  -40.7710 C.ar  192  PHE192     -0.0003
     68  CE2      -21.0130  -22.8790  -41.6190 C.ar  192  PHE192     -0.0003
     69  CZ       -21.9120  -23.9090  -41.8260 C.ar  192  PHE192     -0.0000
     70  N        -20.2250  -20.0420  -37.3530 N.am  193  GLY193     -0.1940
     71  CA       -20.1040  -18.7250  -37.9260 C.3   193  GLY193      0.2014
     72  C        -18.6500  -18.4700  -38.2470 C.2   193  GLY193      0.2639
     73  O        -17.7750  -18.8940  -37.4960 O.2   193  GLY193     -0.2714
     74  N        -18.3950  -17.8040  -39.3700 N.am  194  PHE194     -0.1959
     75  CA       -17.0540  -17.3350  -39.6810 C.3   194  PHE194      0.1771
     76  C        -16.8490  -15.9790  -39.0250 C.2   194  PHE194      0.2619
     77  O        -17.7610  -15.1450  -39.0200 O.2   194  PHE194     -0.2715
     78  CB       -16.8440  -17.2440  -41.1890 C.3   194  PHE194      0.0574
     79  CG       -16.8620  -18.5730  -41.8660 C.ar  194  PHE194     -0.0200
     80  CD1      -15.7160  -19.3440  -41.9220 C.ar  194  PHE194     -0.0042
     81  CD2      -18.0390  -19.0770  -42.4040 C.ar  194  PHE194     -0.0042
     82  CE1      -15.7320  -20.5880  -42.5390 C.ar  194  PHE194     -0.0003
     83  CE2      -18.0620  -20.3180  -43.0120 C.ar  194  PHE194     -0.0003
     84  CZ       -16.9060  -21.0750  -43.0750 C.ar  194  PHE194     -0.0000
     85  N        -15.6640  -15.7730  -38.4550 N.am  195  MET195     -0.1977
     86  CA       -15.3770  -14.5500  -37.7090 C.3   195  MET195      0.1605
     87  C        -15.6980  -13.3010  -38.5150 C.2   195  MET195      0.2287
     88  O        -16.2000  -12.3210  -37.9780 O.2   195  MET195     -0.2864
     89  CB       -13.9090  -14.5040  -37.2760 C.3   195  MET195      0.0413
     90  CG       -13.6190  -15.2000  -35.9710 C.3   195  MET195      0.0598
     91  SD       -14.6980  -14.6780  -34.6090 S.3   195  MET195     -0.1393
     92  CE       -14.3250  -12.9230  -34.5190 C.3   195  MET195      0.0692
     93  N        -18.0180  -12.9310  -40.7250 N.3   197  ASP197     -0.1225
     94  CA       -19.4680  -12.7410  -40.7110 C.3   197  ASP197      0.1805
     95  C        -19.9430  -12.3320  -39.3090 C.2   197  ASP197      0.2597
     96  O        -20.8260  -11.4910  -39.1690 O.2   197  ASP197     -0.2718
     97  CB       -20.2020  -14.0050  -41.1950 C.3   197  ASP197      0.1424
     98  CG       -19.8080  -14.4110  -42.6150 C.2   197  ASP197      0.3668
     99  OD1      -19.5940  -13.5200  -43.4640 O.co2 197  ASP197     -0.2456
    100  OD2      -19.7010  -15.6260  -42.8810 O.co2 197  ASP197     -0.2456
    101  N        -19.3420  -12.9180  -38.2760 N.am  198  ILE198     -0.1980
    102  CA       -19.7470  -12.6270  -36.9040 C.3   198  ILE198      0.1595
    103  C        -19.5640  -11.1340  -36.6130 C.2   198  ILE198      0.2287
    104  O        -20.4710  -10.4590  -36.1000 O.2   198  ILE198     -0.2864
    105  CB       -18.9520  -13.4870  -35.9040 C.3   198  ILE198      0.0276
    106  CG1      -19.4430  -14.9500  -35.9570 C.3   198  ILE198      0.0022
    107  CG2      -19.0820  -12.9240  -34.4890 C.3   198  ILE198      0.0022
    108  CD1      -18.4550  -15.9490  -35.3460 C.3   198  ILE198      0.0001
    109  N        -22.1110   -9.0170  -38.3940 N.3   201  LEU201     -0.1231
    110  CA       -23.4200   -9.0700  -37.7580 C.3   201  LEU201      0.1693
    111  C        -23.4640   -8.3470  -36.4040 C.2   201  LEU201      0.2591
    112  O        -24.4260   -7.6390  -36.1190 O.2   201  LEU201     -0.2718
    113  CB       -23.8840  -10.5270  -37.6150 C.3   201  LEU201      0.0284
    114  CG       -24.0030  -11.3020  -38.9340 C.3   201  LEU201      0.0019
    115  CD1      -24.2750  -12.7980  -38.6700 C.3   201  LEU201      0.0001
    116  CD2      -25.0670  -10.6940  -39.8720 C.3   201  LEU201      0.0001
    117  N        -22.4390   -8.5490  -35.5750 N.am  202  GLN202     -0.1979
    118  CA       -22.3490   -7.8930  -34.2710 C.3   202  GLN202      0.1601
    119  C        -22.3550   -6.3790  -34.4600 C.2   202  GLN202      0.2287
    120  O        -22.9690   -5.6440  -33.6820 O.2   202  GLN202     -0.2864
    121  CB       -21.0410   -8.2760  -33.5740 C.3   202  GLN202      0.0394
    122  CG       -20.9730   -9.6910  -33.0220 C.3   202  GLN202      0.0908
    123  CD       -19.5660  -10.0420  -32.5510 C.2   202  GLN202      0.2608
    124  OE1      -18.5720   -9.6930  -33.1990 O.2   202  GLN202     -0.2717
    125  NE2      -19.4760  -10.7280  -31.4250 N.am  202  GLN202     -0.0878
    126  N        -26.2020  -11.3520  -33.2960 N.3   207  CYS207     -0.1235
    127  CA       -25.3180  -12.2630  -32.5520 C.3   207  CYS207      0.1677
    128  C        -25.0890  -11.8450  -31.1210 C.2   207  CYS207      0.2270
    129  O        -24.0660  -12.1820  -30.5390 O.2   207  CYS207     -0.2867
    130  CB       -23.9370  -12.3540  -33.1910 C.3   207  CYS207      0.0956
    131  SG       -23.9370  -12.8540  -34.8740 S.3   207  CYS207     -0.0801
    132  N        -24.3770  -14.7780  -29.0500 N.3   210  GLY210     -0.1210
    133  CA       -23.3480  -15.7030  -29.5010 C.3   210  GLY210      0.1956
    134  C        -22.2560  -15.9550  -28.4770 C.2   210  GLY210      0.2613
    135  O        -21.8080  -15.0460  -27.7810 O.2   210  GLY210     -0.2717
    136  N        -21.8240  -17.2040  -28.3820 N.am  211  SER211     -0.1938
    137  CA       -20.6820  -17.5700  -27.5560 C.3   211  SER211      0.2055
    138  C        -20.0650  -18.8300  -28.1270 C.2   211  SER211      0.2643
    139  O        -20.6590  -19.4700  -29.0010 O.2   211  SER211     -0.2714
    140  CB       -21.1350  -17.8460  -26.1260 C.3   211  SER211      0.2130
    141  OG       -21.9160  -19.0250  -26.0890 O.3   211  SER211     -0.2179
    142  N        -18.8900  -19.2100  -27.6270 N.am  212  PHE212     -0.1973
    143  CA       -18.3180  -20.5020  -27.9990 C.3   212  PHE212      0.1639
    144  C        -19.1870  -21.6470  -27.5130 C.2   212  PHE212      0.2290
    145  O        -19.1110  -22.7520  -28.0540 O.2   212  PHE212     -0.2864
    146  CB       -16.8880  -20.6830  -27.4600 C.3   212  PHE212      0.0560
    147  CG       -15.8780  -19.7880  -28.1120 C.ar  212  PHE212     -0.0200
    148  CD1      -15.4290  -20.0510  -29.3950 C.ar  212  PHE212     -0.0042
    149  CD2      -15.3840  -18.6770  -27.4500 C.ar  212  PHE212     -0.0042
    150  CE1      -14.5050  -19.2230  -30.0070 C.ar  212  PHE212     -0.0003
    151  CE2      -14.4590  -17.8460  -28.0550 C.ar  212  PHE212     -0.0003
    152  CZ       -14.0150  -18.1230  -29.3300 C.ar  212  PHE212     -0.0000
    153  N        -21.9150  -22.1080  -30.5870 N.3   215  ALA215     -0.1245
    154  CA       -21.5560  -22.0920  -32.0160 C.3   215  ALA215      0.1562
    155  C        -20.1130  -22.5150  -32.2540 C.2   215  ALA215      0.2260
    156  O        -19.2360  -22.2350  -31.4370 O.2   215  ALA215     -0.2867
    157  CB       -21.7730  -20.6970  -32.6050 C.3   215  ALA215      0.0290
    158  N        -16.9440  -21.5330  -34.0390 N.3   217  VAL217     -0.1245
    159  CA       -16.4270  -20.2720  -34.5650 C.3   217  VAL217      0.1561
    160  C        -15.1790  -20.5380  -35.3880 C.2   217  VAL217      0.2260
    161  O        -14.2740  -21.2290  -34.9360 O.2   217  VAL217     -0.2867
    162  CB       -16.0530  -19.2990  -33.4350 C.3   217  VAL217      0.0252
    163  CG1      -15.4700  -18.0180  -34.0210 C.3   217  VAL217      0.0019
    164  CG2      -17.2810  -19.0030  -32.5760 C.3   217  VAL217      0.0019
    165  N        -11.8290  -22.1940  -33.9360 N.3   224  LEU224     -0.1245
    166  CA       -11.3010  -21.5690  -32.7260 C.3   224  LEU224      0.1561
    167  C        -11.7080  -22.3010  -31.4470 C.2   224  LEU224      0.2260
    168  O        -11.0000  -22.2400  -30.4450 O.2   224  LEU224     -0.2867
    169  CB       -11.7110  -20.1010  -32.6370 C.3   224  LEU224      0.0270
    170  CG       -11.2030  -19.1310  -33.7050 C.3   224  LEU224      0.0019
    171  CD1      -11.7040  -17.7250  -33.3910 C.3   224  LEU224      0.0001
    172  CD2       -9.6800  -19.1650  -33.8090 C.3   224  LEU224      0.0001
    173  N        -24.7150  -29.8700  -40.2080 N.3   238  HIS238     -0.1226
    174  CA       -25.5730  -28.7970  -39.6970 C.3   238  HIS238      0.1752
    175  C        -26.4000  -28.1500  -40.8010 C.2   238  HIS238      0.2595
    176  O        -27.5830  -27.8480  -40.6070 O.2   238  HIS238     -0.2718
    177  CB       -24.8140  -27.7140  -38.9190 C.3   238  HIS238      0.0759
    178  CG       -25.7460  -26.7310  -38.2820 C.ar  238  HIS238      0.0818
    179  ND1      -26.3960  -27.0000  -37.0980 N.ar  238  HIS238     -0.2268
    180  CD2      -26.2440  -25.5540  -38.7290 C.ar  238  HIS238      0.1154
    181  CE1      -27.2140  -26.0010  -36.8130 C.ar  238  HIS238      0.1986
    182  NE2      -27.1390  -25.1140  -37.7870 N.ar  238  HIS238     -0.2212
    183  N        -25.7990  -27.9580  -41.9730 N.am  239  LYS239     -0.1980
    184  CA       -26.5720  -27.4450  -43.0960 C.3   239  LYS239      0.1596
    185  C        -27.7590  -28.3590  -43.3980 C.2   239  LYS239      0.2287
    186  O        -28.8520  -27.8860  -43.7020 O.2   239  LYS239     -0.2864
    187  CB       -25.7050  -27.2440  -44.3380 C.3   239  LYS239      0.0298
    188  CG       -24.6580  -26.1440  -44.2000 C.3   239  LYS239      0.0038
    189  CD       -25.2890  -24.7850  -43.9720 C.3   239  LYS239      0.0206
    190  CE       -25.9590  -24.2760  -45.2360 C.3   239  LYS239      0.1093
    191  NZ       -26.3010  -22.8280  -45.0950 N.3   239  LYS239     -0.1314
    192  N        -30.4040  -27.7340  -40.7650 N.3   242  ASP242     -0.1239
    193  CA       -31.1830  -26.5560  -41.1380 C.3   242  ASP242      0.1674
    194  C        -32.2480  -26.8820  -42.1990 C.2   242  ASP242      0.2266
    195  O        -33.3890  -26.4180  -42.1030 O.2   242  ASP242     -0.2867
    196  CB       -30.2710  -25.4340  -41.6520 C.3   242  ASP242      0.1410
    197  CG       -29.5430  -24.6970  -40.5330 C.2   242  ASP242      0.3668
    198  OD1      -29.9740  -24.7970  -39.3690 O.co2 242  ASP242     -0.2456
    199  OD2      -28.5530  -23.9940  -40.8330 O.co2 242  ASP242     -0.2456
    200  N        -31.5040  -20.7780  -45.6730 N.3   265  HIS265     -0.1241
    201  CA       -32.8970  -20.6550  -45.2400 C.3   265  HIS265      0.1621
    202  C        -33.8280  -20.0770  -46.3080 C.2   265  HIS265      0.2264
    203  O        -34.9690  -20.5270  -46.4690 O.2   265  HIS265     -0.2867
    204  CB       -32.9790  -19.8120  -43.9670 C.3   265  HIS265      0.0745
    205  CG       -32.0780  -20.2990  -42.8760 C.ar  265  HIS265      0.0817
    206  ND1      -32.2340  -21.5340  -42.2880 N.ar  265  HIS265     -0.2268
    207  CD2      -30.9980  -19.7330  -42.2880 C.ar  265  HIS265      0.1154
    208  CE1      -31.2930  -21.7060  -41.3750 C.ar  265  HIS265      0.1986
    209  NE2      -30.5300  -20.6260  -41.3550 N.ar  265  HIS265     -0.2212
@<TRIPOS>BOND
     1   203   202    2
     2   202   201    1
     3   200   201    1
     4   201   204    1
     5   190   191    1
     6   190   189    1
     7   187   188    1
     8   187   184    1
     9   188   189    1
    10   204   205    1
    11   186   185    2
    12    99    98   ar
    13   185   184    1
    14   184   183    1
    15    84    83   ar
    16    84    82   ar
    17    83    81   ar
    18   100    98   ar
    19   205   206   ar
    20   205   207   ar
    21    19    20    1
    22    98    97    1
    23    82    80   ar
    24    81    79   ar
    25   206   208   ar
    26   207   209   ar
    27   194   195    2
    28   194   193    1
    29   183   175   am
    30    80    79   ar
    31    79    78    1
    32    69    68   ar
    33    69    67   ar
    34   196   193    1
    35   196   197    1
    36    68    66   ar
    37    20    21    1
    38    20    23    1
    39   208   209   ar
    40    30    29    2
    41    97    94    1
    42    78    75    1
    43   193   192    1
    44   199   197   ar
    45   175   176    2
    46   175   174    1
    47    67    65   ar
    48    21    27   am
    49    21    22    2
    50    93    94    1
    51    94    95    1
    52    27    28    1
    53    23    24    1
    54   197   198   ar
    55    29    28    1
    56    66    64   ar
    57   173   174    1
    58    28    31    1
    59   116   114    1
    60   174   177    1
    61    75    74    1
    62    75    76    1
    63    65    64   ar
    64    74    72   am
    65    95    96    2
    66    95   101   am
    67    25    24    1
    68    64    63    1
    69    24    26    1
    70    76    77    2
    71    76    85   am
    72   114   115    1
    73   114   113    1
    74   177   178    1
    75   180   178   ar
    76   180   182   ar
    77    37    38    1
    78    37    34    1
    79    87    88    2
    80    87    86    1
    81    85    86    1
    82    31    32    1
    83   109   110    1
    84    62    61    2
    85   178   179   ar
    86   101   102    1
    87    72    71    1
    88    72    73    2
    89    41    39   ar
    90    38    39    1
    91    39    40   ar
    92    71    70    1
    93    63    60    1
    94   182   181   ar
    95   110   113    1
    96   110   111    1
    97    86    89    1
    98    61    70   am
    99    61    60    1
   100    34    35    1
   101    34    33    1
   102    89    90    1
   103    36    35    2
   104   179   181   ar
   105    60    59    1
   106    59    54   am
   107   102   103    1
   108   102   105    1
   109    35    42   am
   110   103   104    2
   111    57    56    1
   112   111   112    2
   113   111   117   am
   114    51    49   ar
   115    51    50   ar
   116    49    47   ar
   117    17    18   ar
   118    17    15   ar
   119    18    16   ar
   120    90    91    1
   121   106   105    1
   122   106   108    1
   123    53    54    1
   124    53    56    1
   125    53    52    1
   126    54    55    2
   127   105   107    1
   128    42    43    1
   129   117   118    1
   130    56    58    1
   131   160   161    2
   132   160   159    1
   133    15    14   ar
   134    16    14   ar
   135    50    48   ar
   136    43    44    1
   137    43    46    1
   138   131   130    1
   139    47    48   ar
   140    47    46    1
   141    14    13    1
   142    91    92    1
   143   159   158    1
   144   159   162    1
   145   119   118    1
   146   119   120    2
   147   118   121    1
   148    45    44    2
   149   163   162    1
   150   165   166    1
   151     8     6    1
   152   172   170    1
   153   170   171    1
   154   170   169    1
   155    13    10    1
   156   121   122    1
   157   162   164    1
   158   126   127    1
   159   124   123    2
   160   130   127    1
   161   122   123    1
   162   166   169    1
   163   166   167    1
   164     6     7    1
   165     6     5    1
   166   157   154    1
   167   127   128    1
   168   123   125   am
   169   155   154    1
   170   155   156    2
   171    10     9    1
   172    10    11    1
   173   154   153    1
   174     5     2    1
   175     9     3   am
   176   167   168    2
   177    11    12    2
   178   128   129    2
   179     3     4    2
   180     3     2    1
   181     2     1    1
   182   150   148   ar
   183   150   152   ar
   184   133   132    1
   185   133   134    1
   186   148   147   ar
   187   152   151   ar
   188   139   138    2
   189   134   136   am
   190   134   135    2
   191   136   137    1
   192   138   142   am
   193   138   137    1
   194   147   146    1
   195   147   149   ar
   196   151   149   ar
   197   145   144    2
   198   143   142    1
   199   143   144    1
   200   143   146    1
   201   137   140    1
   202   140   141    1
