@<TRIPOS>MOLECULE
tmp/3nzpB00.pdb
 148 141 0 0 0
SMALL
GASTEIGER

@<TRIPOS>ATOM
      1  N        -27.9090  105.9220  -12.6500 N.3    82  PRO82      -0.2116
      2  CA       -27.1140  104.8910  -13.2990 C.3    82  PRO82       0.1372
      3  C        -26.4230  105.5060  -14.5110 C.2    82  PRO82       0.2244
      4  O        -27.0710  105.8850  -15.4950 O.2    82  PRO82      -0.2868
      5  CB       -28.1570  103.8440  -13.6620 C.3    82  PRO82       0.0268
      6  CG       -29.3730  104.6580  -13.9480 C.3    82  PRO82       0.0207
      7  CD       -29.3520  105.7080  -12.8690 C.3    82  PRO82       0.0892
      8  N        -24.8150  104.1850  -16.7350 N.3    84  LYS84      -0.1231
      9  CA       -25.0080  103.3980  -17.9420 C.3    84  LYS84       0.1693
     10  C        -26.0050  103.9770  -18.9590 C.2    84  LYS84       0.2591
     11  O        -25.9130  103.6530  -20.1350 O.2    84  LYS84      -0.2718
     12  CB       -25.4120  101.9650  -17.5810 C.3    84  LYS84       0.0285
     13  CG       -26.8780  101.7720  -17.3010 C.3    84  LYS84       0.0035
     14  CD       -27.5460  100.9770  -18.4010 C.3    84  LYS84       0.0206
     15  CE       -27.0290   99.5410  -18.4610 C.3    84  LYS84       0.1093
     16  NZ       -27.2480   98.7540  -17.2020 N.3    84  LYS84      -0.1314
     17  N        -26.9450  104.8260  -18.5380 N.am   85  VAL85      -0.1980
     18  CA       -27.9130  105.3790  -19.4960 C.3    85  VAL85       0.1595
     19  C        -27.3500  106.5670  -20.2720 C.2    85  VAL85       0.2287
     20  O        -27.9310  106.9930  -21.2710 O.2    85  VAL85      -0.2864
     21  CB       -29.2670  105.8250  -18.8220 C.3    85  VAL85       0.0276
     22  CG1      -29.6990  104.8140  -17.7930 C.3    85  VAL85       0.0022
     23  CG2      -29.1410  107.2170  -18.2150 C.3    85  VAL85       0.0022
     24  N        -24.5450  105.6070   -9.8690 N.3   107  GLU107     -0.1245
     25  CA       -24.4830  104.1580   -9.9260 C.3   107  GLU107      0.1567
     26  C        -23.4830  103.7910  -11.0130 C.2   107  GLU107      0.2260
     27  O        -23.4290  104.4400  -12.0530 O.2   107  GLU107     -0.2867
     28  CB       -25.8790  103.6070  -10.2430 C.3   107  GLU107      0.0388
     29  CG       -26.0010  102.0980  -10.2240 C.3   107  GLU107      0.1160
     30  CD       -25.5960  101.4630  -11.5350 C.2   107  GLU107      0.3649
     31  OE1      -25.3830  100.2330  -11.5500 O.co2 107  GLU107     -0.2457
     32  OE2      -25.4930  102.1820  -12.5590 O.co2 107  GLU107     -0.2457
     33  N        -23.1910   97.9880   -9.2630 N.3   129  ASN129     -0.1240
     34  CA       -23.7950   96.7300   -9.6800 C.3   129  ASN129      0.1653
     35  C        -22.9240   96.0550  -10.7230 C.2   129  ASN129      0.2266
     36  O        -21.9220   96.6190  -11.1590 O.2   129  ASN129     -0.2867
     37  CB       -25.1900   96.9840  -10.2360 C.3   129  ASN129      0.1155
     38  CG       -26.1340   97.5000   -9.1800 C.2   129  ASN129      0.2627
     39  OD1      -26.3400   96.8500   -8.1500 O.2   129  ASN129     -0.2716
     40  ND2      -26.7130   98.6770   -9.4170 N.am  129  ASN129     -0.0877
     41  N        -28.2700   91.8420   -3.9440 N.3   179  ARG179     -0.1245
     42  CA       -29.2650   91.8930   -5.0060 C.3   179  ARG179      0.1563
     43  C        -30.1700   90.6780   -4.8680 C.2   179  ARG179      0.2260
     44  O        -29.7260   89.5400   -5.0200 O.2   179  ARG179     -0.2867
     45  CB       -28.5950   91.8700   -6.3830 C.3   179  ARG179      0.0307
     46  CG       -29.5670   92.0330   -7.5230 C.3   179  ARG179      0.0489
     47  CD       -28.8900   91.9010   -8.8570 C.3   179  ARG179      0.2205
     48  NE       -29.8280   92.1310   -9.9510 N.pl3 179  ARG179     -0.0865
     49  CZ       -29.5620   91.9150  -11.2380 C.cat 179  ARG179      0.5346
     50  NH1      -30.4990   92.1600  -12.1480 N.pl3 179  ARG179      0.1354
     51  NH2      -28.3730   91.4530  -11.6220 N.pl3 179  ARG179      0.1354
     52  N        -31.1920   95.1920   -3.0910 N.3   212  HIS212     -0.1241
     53  CA       -31.4980   95.8240   -4.3610 C.3   212  HIS212      0.1621
     54  C        -32.0640   94.8150   -5.3480 C.2   212  HIS212      0.2264
     55  O        -31.7150   93.6310   -5.3060 O.2   212  HIS212     -0.2867
     56  CB       -30.2020   96.4690   -4.9100 C.3   212  HIS212      0.0745
     57  CG       -30.2450   96.8260   -6.3660 C.ar  212  HIS212      0.0817
     58  ND1      -29.7710   95.9850   -7.3510 N.ar  212  HIS212     -0.2268
     59  CD2      -30.7010   97.9300   -7.0060 C.ar  212  HIS212      0.1154
     60  CE1      -29.9330   96.5540   -8.5330 C.ar  212  HIS212      0.1986
     61  NE2      -30.4960   97.7360   -8.3510 N.ar  212  HIS212     -0.2212
     62  N        -33.6480   94.7490   -9.6920 N.3   214  HIS214     -0.1241
     63  CA       -33.8670   95.5240  -10.9230 C.3   214  HIS214      0.1621
     64  C        -34.8620   94.7890  -11.8000 C.2   214  HIS214      0.2264
     65  O        -34.6580   93.6260  -12.1160 O.2   214  HIS214     -0.2867
     66  CB       -32.5540   95.7580  -11.7190 C.3   214  HIS214      0.0745
     67  CG       -32.7260   96.6300  -12.9380 C.ar  214  HIS214      0.0817
     68  ND1      -33.1860   97.9320  -12.8780 N.ar  214  HIS214     -0.2268
     69  CD2      -32.5300   96.3700  -14.2530 C.ar  214  HIS214      0.1154
     70  CE1      -33.2710   98.4310  -14.0980 C.ar  214  HIS214      0.1986
     71  NE2      -32.8780   97.5040  -14.9500 N.ar  214  HIS214     -0.2212
     72  N        -35.6270   98.3280  -17.7110 N.3   217  SER217     -0.1202
     73  CA       -35.9010   99.7050  -18.0800 C.3   217  SER217      0.2020
     74  C        -37.2760   99.8960  -18.6920 C.2   217  SER217      0.2618
     75  O        -37.8990   98.9520  -19.1610 O.2   217  SER217     -0.2717
     76  CB       -34.8270  100.1970  -19.0510 C.3   217  SER217      0.2103
     77  OG       -35.0940  101.5160  -19.4950 O.3   217  SER217     -0.2182
     78  N        -37.7530  101.1340  -18.6690 N.am  218  GLN218     -0.1979
     79  CA       -39.0510  101.4770  -19.2510 C.3   218  GLN218      0.1601
     80  C        -40.1610  100.4670  -18.9700 C.2   218  GLN218      0.2287
     81  O        -40.6400   99.8010  -19.8830 O.2   218  GLN218     -0.2864
     82  CB       -38.9040  101.6610  -20.7630 C.3   218  GLN218      0.0394
     83  CG       -40.1400  102.1980  -21.4710 C.3   218  GLN218      0.0908
     84  CD       -40.3710  103.6850  -21.2400 C.2   218  GLN218      0.2608
     85  OE1      -41.2640  104.2820  -21.8410 O.2   218  GLN218     -0.2717
     86  NE2      -39.5720  104.2870  -20.3720 N.am  218  GLN218     -0.0878
     87  N        -34.1530  100.0820   -7.8670 N.3   252  GLY252     -0.1210
     88  CA       -33.5170  100.0610   -9.1600 C.3   252  GLY252      0.1956
     89  C        -34.1930  101.0120  -10.1310 C.2   252  GLY252      0.2612
     90  O        -34.8070  102.0100   -9.7340 O.2   252  GLY252     -0.2717
     91  N        -34.0820  100.7070  -11.4190 N.am  253  GLY253     -0.1942
     92  CA       -34.6970  101.5610  -12.4200 C.3   253  GLY253      0.2014
     93  C        -36.0720  101.0680  -12.7860 C.2   253  GLY253      0.2639
     94  O        -36.6730  100.2820  -12.0460 O.2   253  GLY253     -0.2714
     95  N        -36.5810  101.5270  -13.9240 N.am  254  GLY254     -0.1939
     96  CA       -37.8990  101.0810  -14.3580 C.3   254  GLY254      0.2014
     97  C        -38.9410  102.1660  -14.5420 C.2   254  GLY254      0.2638
     98  O        -39.8820  101.9890  -15.3100 O.2   254  GLY254     -0.2714
     99  N        -38.7850  103.2710  -13.8180 N.am  255  LEU255     -0.1977
    100  CA       -39.7050  104.3910  -13.9220 C.3   255  LEU255      0.1596
    101  C        -39.7570  104.6940  -15.4090 C.2   255  LEU255      0.2287
    102  O        -38.7320  105.0380  -16.0090 O.2   255  LEU255     -0.2864
    103  CB       -39.1390  105.5910  -13.1770 C.3   255  LEU255      0.0297
    104  CG       -40.1460  106.5610  -12.5690 C.3   255  LEU255      0.0022
    105  CD1      -39.4250  107.8610  -12.2380 C.3   255  LEU255      0.0001
    106  CD2      -41.2890  106.8100  -13.5400 C.3   255  LEU255      0.0001
    107  N        -33.1060  103.9960   -8.7130 N.3   300  GLU300     -0.1231
    108  CA       -32.0290  104.2510   -9.6680 C.3   300  GLU300      0.1699
    109  C        -32.6220  104.5120  -11.0610 C.2   300  GLU300      0.2593
    110  O        -32.2210  103.9070  -12.0520 O.2   300  GLU300     -0.2718
    111  CB       -31.0530  103.0670   -9.7080 C.3   300  GLU300      0.0402
    112  CG       -30.5530  102.6150   -8.3350 C.3   300  GLU300      0.1161
    113  CD       -29.5560  101.4460   -8.3990 C.2   300  GLU300      0.3649
    114  OE1      -29.6750  100.5980   -9.3080 O.co2 300  GLU300     -0.2457
    115  OE2      -28.6590  101.3690   -7.5250 O.co2 300  GLU300     -0.2457
    116  N        -33.5860  105.4260  -11.1120 N.am  301  SER301     -0.1938
    117  CA       -34.2530  105.7960  -12.3470 C.3   301  SER301      0.2055
    118  C        -33.3660  106.7390  -13.1280 C.2   301  SER301      0.2644
    119  O        -33.2040  107.9040  -12.7580 O.2   301  SER301     -0.2714
    120  CB       -35.5690  106.4940  -12.0330 C.3   301  SER301      0.2130
    121  OG       -36.3270  105.7120  -11.1290 O.3   301  SER301     -0.2179
    122  N        -32.7800  106.2370  -14.2040 N.am  302  GLY302     -0.1939
    123  CA       -31.9200  107.0730  -15.0110 C.3   302  GLY302      0.2014
    124  C        -32.6580  107.6210  -16.2140 C.2   302  GLY302      0.2638
    125  O        -32.6270  108.8190  -16.4870 O.2   302  GLY302     -0.2714
    126  N        -33.3360  106.7450  -16.9420 N.am  303  ARG303     -0.1977
    127  CA       -34.0600  107.1740  -18.1240 C.3   303  ARG303      0.1597
    128  C        -34.9370  108.3920  -17.8340 C.2   303  ARG303      0.2287
    129  O        -34.9170  109.3730  -18.5720 O.2   303  ARG303     -0.2864
    130  CB       -34.9230  106.0340  -18.6470 C.3   303  ARG303      0.0334
    131  CG       -35.6870  106.3780  -19.9010 C.3   303  ARG303      0.0492
    132  CD       -36.7170  105.3130  -20.1750 C.3   303  ARG303      0.2205
    133  NE       -36.1310  104.0380  -20.5760 N.pl3 303  ARG303     -0.0865
    134  CZ       -35.7440  103.7610  -21.8160 C.cat 303  ARG303      0.5346
    135  NH1      -35.2210  102.5830  -22.1000 N.pl3 303  ARG303      0.1354
    136  NH2      -35.8800  104.6630  -22.7770 N.pl3 303  ARG303      0.1354
    137  N        -29.8140  106.6970  -23.3100 N.3   483  TYR483     -0.1241
    138  CA       -29.4800  105.5300  -24.0980 C.3   483  TYR483      0.1605
    139  C        -29.1880  105.7370  -25.6000 C.2   483  TYR483      0.2264
    140  O        -28.7440  104.8100  -26.2620 O.2   483  TYR483     -0.2867
    141  CB       -30.5970  104.5050  -23.9460 C.3   483  TYR483      0.0534
    142  CG       -30.6590  103.9000  -22.5760 C.ar  483  TYR483     -0.0201
    143  CD1      -29.5420  103.2630  -22.0390 C.ar  483  TYR483     -0.0009
    144  CD2      -31.8460  103.9060  -21.8330 C.ar  483  TYR483     -0.0009
    145  CE1      -29.6010  102.6360  -20.8060 C.ar  483  TYR483      0.0417
    146  CE2      -31.9190  103.2800  -20.5930 C.ar  483  TYR483      0.0417
    147  CZ       -30.7910  102.6410  -20.0900 C.ar  483  TYR483      0.1957
    148  OH       -30.8370  101.9530  -18.9050 O.3   483  TYR483     -0.2866
@<TRIPOS>BOND
     1   140   139    2
     2   139   138    1
     3   138   141    1
     4   138   137    1
     5   141   142    1
     6   136   134    1
     7   142   143   ar
     8   142   144   ar
     9   135   134    1
    10   143   145   ar
    11    85    84    2
    12   144   146   ar
    13   134   133    2
    14    83    84    1
    15    83    82    1
    16    20    19    2
    17    84    86   am
    18   145   147   ar
    19    82    79    1
    20   146   147   ar
    21   133   132    1
    22    19    18    1
    23   132   131    1
    24    11    10    2
    25   147   148    1
    26   131   130    1
    27    81    80    2
    28    18    21    1
    29    18    17    1
    30    77    76    1
    31    79    80    1
    32    79    78    1
    33    75    74    2
    34    76    73    1
    35    10    17   am
    36    10     9    1
    37    21    23    1
    38    21    22    1
    39    74    78   am
    40    74    73    1
    41   130   127    1
    42   129   128    2
    43    15    14    1
    44    15    16    1
    45    14    13    1
    46   127   128    1
    47   127   126    1
    48    73    72    1
    49     9    12    1
    50     9     8    1
    51    12    13    1
    52   126   124   am
    53   125   124    2
    54   124   123    1
    55   102   101    2
    56     4     3    2
    57   101   100    1
    58    98    97    2
    59   123   122    1
    60    71    69   ar
    61    71    70   ar
    62    97    96    1
    63    97    99   am
    64     3     2    1
    65    96    95    1
    66    69    67   ar
    67   122   118   am
    68    70    68   ar
    69     6     5    1
    70     6     7    1
    71    95    93   am
    72   100    99    1
    73   100   103    1
    74     5     2    1
    75   106   104    1
    76     2     1    1
    77   103   104    1
    78   118   119    2
    79   118   117    1
    80    67    68   ar
    81    67    66    1
    82     7     1    1
    83    93    92    1
    84    93    94    2
    85   104   105    1
    86    32    30   ar
    87    92    91    1
    88   117   120    1
    89   117   116    1
    90    50    49    1
    91    65    64    2
    92    27    26    2
    93   110   109    2
    94   120   121    1
    95    64    63    1
    96    66    63    1
    97    51    49    1
    98    31    30   ar
    99    30    29    1
   100    91    89   am
   101    49    48    2
   102    36    35    2
   103   116   109   am
   104   109   108    1
   105    26    25    1
   106    63    62    1
   107    35    34    1
   108    28    29    1
   109    28    25    1
   110    37    34    1
   111    37    38    1
   112    89    90    2
   113    89    88    1
   114    48    47    1
   115    25    24    1
   116   111   108    1
   117   111   112    1
   118    34    33    1
   119   108   107    1
   120    40    38   am
   121   114   113   ar
   122    38    39    2
   123    88    87    1
   124    47    46    1
   125    60    61   ar
   126    60    58   ar
   127   113   112    1
   128   113   115   ar
   129    61    59   ar
   130    46    45    1
   131    58    57   ar
   132    59    57   ar
   133    45    42    1
   134    57    56    1
   135    54    55    2
   136    54    53    1
   137    44    43    2
   138    42    43    1
   139    42    41    1
   140    56    53    1
   141    53    52    1
