@<TRIPOS>MOLECULE
tmp/3nzsA00.pdb
 181 172 0 0 0
SMALL
GASTEIGER

@<TRIPOS>ATOM
      1  N         14.1960   13.3030   11.6660 N.3   551  LYS551     -0.1245
      2  CA        14.7480   14.5740   11.2100 C.3   551  LYS551      0.1561
      3  C         16.2730   14.5870   11.2080 C.2   551  LYS551      0.2260
      4  O         16.9160   13.6630   11.7030 O.2   551  LYS551     -0.2867
      5  CB        14.2340   15.7210   12.0840 C.3   551  LYS551      0.0271
      6  CG        14.5020   15.5320   13.5700 C.3   551  LYS551      0.0035
      7  CD        14.3170   16.8310   14.3370 C.3   551  LYS551      0.0206
      8  CE        14.3490   16.6000   15.8400 C.3   551  LYS551      0.1093
      9  NZ        13.1500   15.8490   16.3040 N.3   551  LYS551     -0.1314
     10  N         19.3610   16.5900   12.7460 N.3   553  MET553     -0.1230
     11  CA        19.6400   17.4930   13.8570 C.3   553  MET553      0.1702
     12  C         20.5020   18.6800   13.4330 C.2   553  MET553      0.2592
     13  O         21.2590   18.5960   12.4660 O.2   553  MET553     -0.2718
     14  CB        20.2870   16.7270   15.0120 C.3   553  MET553      0.0401
     15  CG        19.4300   15.5790   15.5270 C.3   553  MET553      0.0596
     16  SD        20.2120   14.6160   16.8350 S.3   553  MET553     -0.1393
     17  CE        20.3610   15.8500   18.1230 C.3   553  MET553      0.0692
     18  N         20.3790   19.7820   14.1670 N.am  554  ALA554     -0.1966
     19  CA        21.0510   21.0310   13.8140 C.3   554  ALA554      0.1728
     20  C         22.5090   21.0710   14.2640 C.2   554  ALA554      0.2616
     21  O         22.9550   22.0500   14.8620 O.2   554  ALA554     -0.2715
     22  CB        20.2880   22.2200   14.3830 C.3   554  ALA554      0.0334
     23  N         23.2770   20.0670   13.8940 N.am  555  SER555     -0.1950
     24  CA        24.6840   20.0330   14.2400 C.3   555  SER555      0.1924
     25  C         25.5270   19.8660   13.0130 C.2   555  SER555      0.2314
     26  O         25.0510   19.4430   11.9930 O.2   555  SER555     -0.2863
     27  CB        25.0090   18.9230   15.1870 C.3   555  SER555      0.2116
     28  OG        26.3770   18.6140   15.0250 O.3   555  SER555     -0.2180
     29  N         23.6570   14.5360   12.3630 N.3   559  PRO559     -0.2116
     30  CA        23.2300   13.2280   12.8680 C.3   559  PRO559      0.1372
     31  C         21.7420   13.0010   12.6100 C.2   559  PRO559      0.2244
     32  O         20.9600   13.9490   12.6700 O.2   559  PRO559     -0.2868
     33  CB        23.4830   13.3350   14.3790 C.3   559  PRO559      0.0268
     34  CG        24.3720   14.5370   14.5550 C.3   559  PRO559      0.0207
     35  CD        23.9790   15.4640   13.4580 C.3   559  PRO559      0.0892
     36  N         18.0330   11.8510   13.5080 N.3   561  TRP561     -0.1241
     37  CA        17.1330   11.6410   14.6340 C.3   561  TRP561      0.1605
     38  C         16.0120   10.7130   14.1870 C.2   561  TRP561      0.2264
     39  O         15.0950   11.1310   13.4810 O.2   561  TRP561     -0.2867
     40  CB        16.5570   12.9750   15.1120 C.3   561  TRP561      0.0550
     41  CG        15.4970   12.8490   16.1680 C.ar  561  TRP561      0.0003
     42  CD1       14.2170   12.4060   15.9970 C.ar  561  TRP561      0.0946
     43  CD2       15.6190   13.1920   17.5540 C.ar  561  TRP561      0.0152
     44  NE1       13.5390   12.4410   17.1910 N.ar  561  TRP561     -0.2442
     45  CE2       14.3770   12.9210   18.1620 C.ar  561  TRP561      0.0810
     46  CE3       16.6600   13.6980   18.3390 C.ar  561  TRP561      0.0012
     47  CZ2       14.1470   13.1380   19.5200 C.ar  561  TRP561      0.0191
     48  CZ3       16.4290   13.9120   19.6880 C.ar  561  TRP561      0.0001
     49  CH2       15.1830   13.6330   20.2630 C.ar  561  TRP561      0.0015
     50  N         19.7340    7.9020   17.5930 N.3   580  ILE580     -0.1245
     51  CA        20.4900    8.8980   16.8440 C.3   580  ILE580      0.1561
     52  C         21.6110    8.2370   16.0460 C.2   580  ILE580      0.2260
     53  O         22.4890    7.5900   16.6140 O.2   580  ILE580     -0.2867
     54  CB        21.1010    9.9670   17.7700 C.3   580  ILE580      0.0252
     55  CG1       20.0010   10.8050   18.4230 C.3   580  ILE580      0.0019
     56  CG2       22.0480   10.8610   16.9910 C.3   580  ILE580      0.0019
     57  CD1       20.5290   11.8710   19.3600 C.3   580  ILE580      0.0001
     58  N         24.8830    8.8060   13.8010 N.3   582  LYS582     -0.1245
     59  CA        25.8660    9.8640   13.5970 C.3   582  LYS582      0.1561
     60  C         27.1660    9.3950   12.9550 C.2   582  LYS582      0.2260
     61  O         27.7090    8.3490   13.3090 O.2   582  LYS582     -0.2867
     62  CB        26.1810   10.5620   14.9210 C.3   582  LYS582      0.0271
     63  CG        27.2730   11.6090   14.8110 C.3   582  LYS582      0.0035
     64  CD        27.5550   12.2610   16.1500 C.3   582  LYS582      0.0206
     65  CE        28.6710   13.2820   16.0300 C.3   582  LYS582      0.1093
     66  NZ        28.9190   13.9820   17.3190 N.3   582  LYS582     -0.1314
     67  N         23.3370    6.3420   28.9330 N.3   616  TYR616     -0.1241
     68  CA        22.5220    5.8780   27.8150 C.3   616  TYR616      0.1605
     69  C         23.2850    4.9390   26.8880 C.2   616  TYR616      0.2264
     70  O         24.5080    4.8200   26.9750 O.2   616  TYR616     -0.2867
     71  CB        22.0090    7.0780   27.0220 C.3   616  TYR616      0.0534
     72  CG        23.0870    8.0980   26.7370 C.ar  616  TYR616     -0.0201
     73  CD1       23.8400    8.0360   25.5720 C.ar  616  TYR616     -0.0009
     74  CD2       23.3620    9.1140   27.6410 C.ar  616  TYR616     -0.0009
     75  CE1       24.8300    8.9630   25.3130 C.ar  616  TYR616      0.0417
     76  CE2       24.3480   10.0450   27.3910 C.ar  616  TYR616      0.0417
     77  CZ        25.0800    9.9650   26.2250 C.ar  616  TYR616      0.1957
     78  OH        26.0650   10.8920   25.9710 O.3   616  TYR616     -0.2866
     79  N         23.1970    6.0980   18.8910 N.3   628  ILE628     -0.1231
     80  CA        23.0250    6.5870   20.2530 C.3   628  ILE628      0.1692
     81  C         21.5750    6.4130   20.6890 C.2   628  ILE628      0.2592
     82  O         20.6600    6.5120   19.8700 O.2   628  ILE628     -0.2718
     83  CB        23.3790    8.0840   20.3600 C.3   628  ILE628      0.0266
     84  CG1       24.7220    8.3770   19.6880 C.3   628  ILE628      0.0019
     85  CG2       23.3950    8.5280   21.8160 C.3   628  ILE628      0.0020
     86  CD1       25.9170    7.9700   20.5110 C.3   628  ILE628      0.0001
     87  N         21.3640    6.1500   21.9750 N.am  629  GLU629     -0.1966
     88  CA        20.0130    6.0860   22.5190 C.3   629  GLU629      0.1733
     89  C         19.4840    7.4900   22.7740 C.2   629  GLU629      0.2616
     90  O         20.1950    8.3420   23.3020 O.2   629  GLU629     -0.2715
     91  CB        19.9820    5.2890   23.8230 C.3   629  GLU629      0.0429
     92  CG        18.6540    5.3910   24.5610 C.3   629  GLU629      0.1163
     93  CD        18.7040    4.8030   25.9600 C.2   629  GLU629      0.3649
     94  OE1       17.8350    5.1590   26.7850 O.co2 629  GLU629     -0.2457
     95  OE2       19.6100    3.9870   26.2330 O.co2 629  GLU629     -0.2457
     96  N         18.2350    7.7280   22.3930 N.am  630  ILE630     -0.1963
     97  CA        17.5930    9.0100   22.6540 C.3   630  ILE630      0.1727
     98  C         16.8780    8.9980   24.0020 C.2   630  ILE630      0.2616
     99  O         15.8980    8.2770   24.1860 O.2   630  ILE630     -0.2715
    100  CB        16.5730    9.3710   21.5590 C.3   630  ILE630      0.0290
    101  CG1       17.2760    9.5700   20.2160 C.3   630  ILE630      0.0022
    102  CG2       15.8040   10.6230   21.9460 C.3   630  ILE630      0.0023
    103  CD1       16.3480   10.0090   19.1030 C.3   630  ILE630      0.0001
    104  N         17.3770    9.7940   24.9420 N.am  631  VAL631     -0.1977
    105  CA        16.7220    9.9460   26.2340 C.3   631  VAL631      0.1596
    106  C         15.4910   10.8310   26.0750 C.2   631  VAL631      0.2287
    107  O         15.5850   11.9480   25.5690 O.2   631  VAL631     -0.2864
    108  CB        17.6680   10.5550   27.2880 C.3   631  VAL631      0.0276
    109  CG1       16.9280   10.7890   28.5950 C.3   631  VAL631      0.0022
    110  CG2       18.8730    9.6510   27.5070 C.3   631  VAL631      0.0022
    111  N         14.3820   15.2530   26.9590 N.3   634  ALA634     -0.1231
    112  CA        15.6380   15.8810   27.3590 C.3   634  ALA634      0.1694
    113  C         16.0110   17.0510   26.4490 C.2   634  ALA634      0.2593
    114  O         15.8540   16.9790   25.2300 O.2   634  ALA634     -0.2718
    115  CB        16.7600   14.8500   27.3910 C.3   634  ALA634      0.0304
    116  N         16.5010   18.1300   27.0510 N.am  635  THR635     -0.1939
    117  CA        16.9470   19.2940   26.2910 C.3   635  THR635      0.2028
    118  C         18.3100   19.7750   26.7760 C.2   635  THR635      0.2642
    119  O         18.7080   19.5050   27.9090 O.2   635  THR635     -0.2714
    120  CB        15.9450   20.4640   26.3810 C.3   635  THR635      0.1808
    121  OG1       15.8900   20.9490   27.7280 O.3   635  THR635     -0.2208
    122  CG2       14.5570   20.0180   25.9460 C.3   635  THR635      0.0379
    123  N         19.0170   20.4920   25.9100 N.am  636  THR636     -0.1950
    124  CA        20.3300   21.0270   26.2450 C.3   636  THR636      0.1897
    125  C         20.2330   22.1340   27.2910 C.2   636  THR636      0.2313
    126  O         19.2790   22.9120   27.2990 O.2   636  THR636     -0.2863
    127  CB        21.0400   21.5690   24.9900 C.3   636  THR636      0.1794
    128  OG1       21.4260   20.4740   24.1490 O.3   636  THR636     -0.2208
    129  CG2       22.2750   22.3630   25.3720 C.3   636  THR636      0.0378
    130  N         20.3730   25.4010   25.5910 N.3   639  LYS639     -0.1245
    131  CA        19.1400   25.6850   24.8650 C.3   639  LYS639      0.1561
    132  C         18.0660   26.2820   25.7670 C.2   639  LYS639      0.2260
    133  O         17.2790   27.1240   25.3340 O.2   639  LYS639     -0.2867
    134  CB        18.6140   24.4280   24.1690 C.3   639  LYS639      0.0271
    135  CG        19.4380   24.0080   22.9660 C.3   639  LYS639      0.0035
    136  CD        18.7570   22.8950   22.1900 C.3   639  LYS639      0.0206
    137  CE        19.5410   22.5460   20.9370 C.3   639  LYS639      0.1093
    138  NZ        19.7120   23.7230   20.0400 N.3   639  LYS639     -0.1314
    139  N         26.4000   23.0720   26.3460 N.3   699  ASP699     -0.1239
    140  CA        25.6690   22.5560   25.2000 C.3   699  ASP699      0.1674
    141  C         25.8260   21.0410   25.1770 C.2   699  ASP699      0.2266
    142  O         24.9720   20.3200   24.6610 O.2   699  ASP699     -0.2867
    143  CB        26.1940   23.1640   23.9000 C.3   699  ASP699      0.1410
    144  CG        25.3230   22.8280   22.7060 C.2   699  ASP699      0.3668
    145  OD1       24.0810   22.8890   22.8370 O.co2 699  ASP699     -0.2456
    146  OD2       25.8780   22.4990   21.6370 O.co2 699  ASP699     -0.2456
    147  N         22.8490   17.9770   29.2570 N.3   702  MET702     -0.1245
    148  CA        21.4020   17.9520   29.0840 C.3   702  MET702      0.1570
    149  C         20.6780   17.6800   30.3960 C.2   702  MET702      0.2261
    150  O         21.2830   17.2340   31.3720 O.2   702  MET702     -0.2867
    151  CB        21.0100   16.9010   28.0440 C.3   702  MET702      0.0387
    152  CG        21.7250   17.0530   26.7110 C.3   702  MET702      0.0595
    153  SD        21.1050   15.9250   25.4490 S.3   702  MET702     -0.1393
    154  CE        19.4110   16.4830   25.2980 C.3   702  MET702      0.0692
    155  N         22.6250   15.0200   32.7560 N.3   710  PHE710     -0.1241
    156  CA        23.5460   14.0570   32.1540 C.3   710  PHE710      0.1605
    157  C         24.3510   14.6490   30.9980 C.2   710  PHE710      0.2264
    158  O         23.8400   15.4540   30.2200 O.2   710  PHE710     -0.2867
    159  CB        22.8000   12.8010   31.6940 C.3   710  PHE710      0.0534
    160  CG        21.7970   13.0500   30.6020 C.ar  710  PHE710     -0.0203
    161  CD1       22.1040   12.7570   29.2840 C.ar  710  PHE710     -0.0042
    162  CD2       20.5460   13.5690   30.8940 C.ar  710  PHE710     -0.0042
    163  CE1       21.1830   12.9810   28.2770 C.ar  710  PHE710     -0.0003
    164  CE2       19.6220   13.7960   29.8910 C.ar  710  PHE710     -0.0003
    165  CZ        19.9400   13.5000   28.5810 C.ar  710  PHE710     -0.0000
    166  N         26.8590   14.5440   27.4650 N.3   712  ILE712     -0.1231
    167  CA        26.8590   13.8990   26.1560 C.3   712  ILE712      0.1692
    168  C         28.1260   14.2580   25.3890 C.2   712  ILE712      0.2592
    169  O         29.0200   14.9020   25.9310 O.2   712  ILE712     -0.2718
    170  CB        25.6400   14.3170   25.3150 C.3   712  ILE712      0.0266
    171  CG1       25.5910   15.8400   25.1770 C.3   712  ILE712      0.0019
    172  CG2       24.3570   13.7910   25.9360 C.3   712  ILE712      0.0020
    173  CD1       24.4430   16.3450   24.3290 C.3   712  ILE712      0.0001
    174  N         28.3060   13.7340   24.2090 N.am  713  ASP713     -0.1974
    175  CA        29.4740   14.0920   23.4510 C.3   713  ASP713      0.1709
    176  C         30.7870   14.0090   24.1080 C.2   713  ASP713      0.2293
    177  O         31.3740   15.0160   24.3590 O.2   713  ASP713     -0.2864
    178  CB        29.3650   15.4850   22.9560 C.3   713  ASP713      0.1436
    179  CG        28.3880   15.6140   21.8840 C.2   713  ASP713      0.3671
    180  OD1       27.9200   16.7290   21.6680 O.co2 713  ASP713     -0.2456
    181  OD2       28.0940   14.6040   21.2550 O.co2 713  ASP713     -0.2456
@<TRIPOS>BOND
     1     3     2    1
     2     3     4    2
     3     2     1    1
     4     2     5    1
     5    26    25    2
     6     5     6    1
     7    29    30    1
     8    29    35    1
     9    13    12    2
    10    31    32    2
    11    31    30    1
    12    10    11    1
    13    30    33    1
    14    60    61    2
    15    60    59    1
    16    25    24    1
    17    12    11    1
    18    12    18   am
    19    35    34    1
    20    39    38    2
    21    36    37    1
    22     6     7    1
    23    59    58    1
    24    59    62    1
    25    19    18    1
    26    19    20    1
    27    19    22    1
    28    11    14    1
    29    23    24    1
    30    23    20   am
    31    38    37    1
    32    24    27    1
    33    20    21    2
    34     7     8    1
    35    33    34    1
    36    37    40    1
    37    63    62    1
    38    63    64    1
    39    14    15    1
    40    28    27    1
    41    40    41    1
    42    15    16    1
    43     8     9    1
    44    42    41   ar
    45    42    44   ar
    46    65    64    1
    47    65    66    1
    48    52    53    2
    49    52    51    1
    50    41    43   ar
    51    16    17    1
    52    51    50    1
    53    51    54    1
    54    56    54    1
    55    44    45   ar
    56    43    45   ar
    57    43    46   ar
    58    54    55    1
    59    45    47   ar
    60    46    48   ar
    61    55    57    1
    62    79    80    1
    63   103   101    1
    64    47    49   ar
    65    48    49   ar
    66    84    83    1
    67    84    86    1
    68    82    81    2
    69   138   137    1
    70   101   100    1
    71    80    83    1
    72    80    81    1
    73    83    85    1
    74    81    87   am
    75   137   136    1
    76   181   179   ar
    77   100   102    1
    78   100    97    1
    79   146   144   ar
    80   180   179   ar
    81   179   178    1
    82    87    88    1
    83   136   135    1
    84    96    97    1
    85    96    89   am
    86    88    89    1
    87    88    91    1
    88    97    98    1
    89   144   145   ar
    90   144   143    1
    91    89    90    2
    92   178   175    1
    93   135   134    1
    94   175   176    1
    95   175   174    1
    96    91    92    1
    97   143   140    1
    98    98    99    2
    99    98   104   am
   100   176   177    2
   101   128   127    1
   102   134   131    1
   103   174   168   am
   104   173   171    1
   105    92    93    1
   106   142   141    2
   107   131   130    1
   108   131   132    1
   109   104   105    1
   110   127   129    1
   111   127   124    1
   112   141   140    1
   113   171   170    1
   114   140   139    1
   115   114   113    2
   116   154   153    1
   117    75    73   ar
   118    75    77   ar
   119   170   172    1
   120   170   167    1
   121   133   132    2
   122   168   169    2
   123   168   167    1
   124   153   152    1
   125   107   106    2
   126    73    72   ar
   127   123   124    1
   128   123   118   am
   129   122   120    1
   130    93    95   ar
   131    93    94   ar
   132    78    77    1
   133   106   105    1
   134   167   166    1
   135    77    76   ar
   136   105   108    1
   137   124   125    1
   138   117   120    1
   139   117   118    1
   140   117   116    1
   141   120   121    1
   142   113   116   am
   143   113   112    1
   144   152   151    1
   145    72    71    1
   146    72    74   ar
   147   118   119    2
   148    69    70    2
   149    69    68    1
   150   111   112    1
   151    71    68    1
   152   108   110    1
   153   108   109    1
   154   125   126    2
   155   112   115    1
   156    76    74   ar
   157    68    67    1
   158   151   148    1
   159   163   165   ar
   160   163   161   ar
   161   165   164   ar
   162   148   147    1
   163   148   149    1
   164   161   160   ar
   165   164   162   ar
   166   158   157    2
   167   149   150    2
   168   160   162   ar
   169   160   159    1
   170   157   156    1
   171   159   156    1
   172   156   155    1
