@<TRIPOS>MOLECULE
tmp/3nzuA00.pdb
 192 180 0 0 0
SMALL
GASTEIGER

@<TRIPOS>ATOM
      1  N         14.1900   14.2240   11.4990 N.3   539  LYS539     -0.1245
      2  CA        14.7490   15.4860   11.0310 C.3   539  LYS539      0.1561
      3  C         16.2720   15.4930   11.0580 C.2   539  LYS539      0.2260
      4  O         16.8950   14.7460   11.8110 O.2   539  LYS539     -0.2867
      5  CB        14.2320   16.6430   11.8870 C.3   539  LYS539      0.0271
      6  CG        14.5500   16.4990   13.3670 C.3   539  LYS539      0.0035
      7  CD        14.4000   17.8200   14.1030 C.3   539  LYS539      0.0206
      8  CE        14.4600   17.6260   15.6110 C.3   539  LYS539      0.1093
      9  NZ        13.2320   16.9600   16.1300 N.3   539  LYS539     -0.1314
     10  N         19.4970   17.5130   12.2280 N.3   541  MET541     -0.1245
     11  CA        19.6640   18.3650   13.3980 C.3   541  MET541      0.1570
     12  C         20.5780   19.5570   13.1370 C.2   541  MET541      0.2261
     13  O         21.4740   19.4960   12.2960 O.2   541  MET541     -0.2867
     14  CB        20.1750   17.5430   14.5820 C.3   541  MET541      0.0387
     15  CG        19.2710   16.3730   14.9360 C.3   541  MET541      0.0595
     16  SD        19.9570   15.3050   16.2140 S.3   541  MET541     -0.1393
     17  CE        20.0580   16.4460   17.5870 C.3   541  MET541      0.0692
     18  N         23.2100   20.6460   13.8990 N.3   543  SER543     -0.1217
     19  CA        24.5590   20.3610   14.3690 C.3   543  SER543      0.1889
     20  C         25.5390   20.4400   13.2040 C.2   543  SER543      0.2288
     21  O         25.1830   20.1380   12.0650 O.2   543  SER543     -0.2866
     22  CB        24.6160   18.9760   15.0130 C.3   543  SER543      0.2089
     23  OG        25.9300   18.6630   15.4400 O.3   543  SER543     -0.2183
     24  N         23.7150   15.3670   12.1750 N.3   547  PRO547     -0.2116
     25  CA        23.2520   14.0740   12.6890 C.3   547  PRO547      0.1372
     26  C         21.7650   13.8790   12.4100 C.2   547  PRO547      0.2244
     27  O         21.0160   14.8550   12.3720 O.2   547  PRO547     -0.2868
     28  CB        23.4880   14.1920   14.2010 C.3   547  PRO547      0.0268
     29  CG        24.4490   15.3340   14.3670 C.3   547  PRO547      0.0207
     30  CD        24.1140   16.2770   13.2600 C.3   547  PRO547      0.0892
     31  N         18.0590   12.8750   13.4180 N.3   549  TRP549     -0.1241
     32  CA        17.1510   12.6810   14.5390 C.3   549  TRP549      0.1605
     33  C         16.0450   11.7330   14.0980 C.2   549  TRP549      0.2264
     34  O         15.1190   12.1320   13.3920 O.2   549  TRP549     -0.2867
     35  CB        16.5570   14.0160   14.9920 C.3   549  TRP549      0.0550
     36  CG        15.4650   13.8770   16.0120 C.ar  549  TRP549      0.0003
     37  CD1       14.1860   13.4560   15.7910 C.ar  549  TRP549      0.0946
     38  CD2       15.5520   14.1730   17.4120 C.ar  549  TRP549      0.0152
     39  NE1       13.4750   13.4640   16.9650 N.ar  549  TRP549     -0.2442
     40  CE2       14.2900   13.9010   17.9760 C.ar  549  TRP549      0.0810
     41  CE3       16.5750   14.6390   18.2440 C.ar  549  TRP549      0.0012
     42  CZ2       14.0230   14.0780   19.3320 C.ar  549  TRP549      0.0191
     43  CZ3       16.3080   14.8150   19.5910 C.ar  549  TRP549      0.0001
     44  CH2       15.0420   14.5350   20.1210 C.ar  549  TRP549      0.0015
     45  N         19.6510    8.8390   17.5760 N.3   568  ILE568     -0.1245
     46  CA        20.4350    9.8260   16.8400 C.3   568  ILE568      0.1561
     47  C         21.5600    9.1580   16.0510 C.2   568  ILE568      0.2260
     48  O         22.4690    8.5690   16.6320 O.2   568  ILE568     -0.2867
     49  CB        21.0460   10.8870   17.7810 C.3   568  ILE568      0.0252
     50  CG1       19.9510   11.7720   18.3790 C.3   568  ILE568      0.0019
     51  CG2       22.0600   11.7450   17.0380 C.3   568  ILE568      0.0019
     52  CD1       20.4800   12.8510   19.3020 C.3   568  ILE568      0.0001
     53  N         24.8020    9.6840   13.6960 N.3   570  LYS570     -0.1245
     54  CA        25.7700   10.7600   13.5310 C.3   570  LYS570      0.1561
     55  C         27.1030   10.2900   12.9650 C.2   570  LYS570      0.2260
     56  O         27.6820    9.3120   13.4350 O.2   570  LYS570     -0.2867
     57  CB        26.0100   11.4580   14.8700 C.3   570  LYS570      0.0271
     58  CG        27.2390   12.3470   14.8840 C.3   570  LYS570      0.0035
     59  CD        27.6220   12.7210   16.3030 C.3   570  LYS570      0.0206
     60  CE        29.0180   13.3140   16.3550 C.3   570  LYS570      0.1093
     61  NZ        29.5030   13.4430   17.7560 N.3   570  LYS570     -0.1314
     62  N         32.7970    7.6640   17.9500 N.3   575  LEU575     -0.1245
     63  CA        31.9090    7.4500   19.0880 C.3   575  LEU575      0.1561
     64  C         32.4520    6.4450   20.1050 C.2   575  LEU575      0.2260
     65  O         31.8800    6.2760   21.1820 O.2   575  LEU575     -0.2867
     66  CB        30.5210    7.0230   18.6030 C.3   575  LEU575      0.0270
     67  CG        29.7250    8.0980   17.8600 C.3   575  LEU575      0.0019
     68  CD1       28.4340    7.5260   17.3010 C.3   575  LEU575      0.0001
     69  CD2       29.4380    9.2800   18.7740 C.3   575  LEU575      0.0001
     70  N         33.2280    8.1220   23.1900 N.3   578  ASP578     -0.1239
     71  CA        31.9880    8.3380   23.9280 C.3   578  ASP578      0.1674
     72  C         31.5830    7.0900   24.7080 C.2   578  ASP578      0.2266
     73  O         31.1960    7.1780   25.8730 O.2   578  ASP578     -0.2867
     74  CB        30.8610    8.7620   22.9820 C.3   578  ASP578      0.1410
     75  CG        31.0130   10.1900   22.4960 C.2   578  ASP578      0.3668
     76  OD1       31.8300   10.4270   21.5820 O.co2 578  ASP578     -0.2456
     77  OD2       30.3070   11.0740   23.0250 O.co2 578  ASP578     -0.2456
     78  N         23.3100    7.5340   28.7900 N.3   604  TYR604     -0.1241
     79  CA        22.4910    7.1240   27.6560 C.3   604  TYR604      0.1605
     80  C         23.2320    6.1470   26.7540 C.2   604  TYR604      0.2264
     81  O         24.4630    6.1050   26.7440 O.2   604  TYR604     -0.2867
     82  CB        22.0720    8.3510   26.8470 C.3   604  TYR604      0.0534
     83  CG        23.2440    9.2100   26.4330 C.ar  604  TYR604     -0.0201
     84  CD1       23.8740    9.0150   25.2110 C.ar  604  TYR604     -0.0009
     85  CD2       23.7320   10.2040   27.2730 C.ar  604  TYR604     -0.0009
     86  CE1       24.9500    9.7910   24.8300 C.ar  604  TYR604      0.0417
     87  CE2       24.8110   10.9880   26.9000 C.ar  604  TYR604      0.0417
     88  CZ        25.4160   10.7750   25.6760 C.ar  604  TYR604      0.1957
     89  OH        26.4890   11.5480   25.2940 O.3   604  TYR604     -0.2866
     90  N         23.0610    6.9950   18.8720 N.3   616  ILE616     -0.1231
     91  CA        22.9470    7.4880   20.2390 C.3   616  ILE616      0.1692
     92  C         21.4960    7.4330   20.6970 C.2   616  ILE616      0.2592
     93  O         20.5880    7.7760   19.9410 O.2   616  ILE616     -0.2718
     94  CB        23.4390    8.9440   20.3480 C.3   616  ILE616      0.0266
     95  CG1       24.9000    9.0530   19.9060 C.3   616  ILE616      0.0019
     96  CG2       23.2620    9.4690   21.7660 C.3   616  ILE616      0.0020
     97  CD1       25.4410   10.4730   19.9170 C.3   616  ILE616      0.0001
     98  N         21.2760    7.0010   21.9340 N.am  617  GLU617     -0.1966
     99  CA        19.9280    6.9760   22.4870 C.3   617  GLU617      0.1733
    100  C         19.4340    8.3950   22.7270 C.2   617  GLU617      0.2616
    101  O         20.1420    9.2200   23.3040 O.2   617  GLU617     -0.2715
    102  CB        19.8820    6.1880   23.7990 C.3   617  GLU617      0.0429
    103  CG        18.5330    6.2660   24.5050 C.3   617  GLU617      0.1163
    104  CD        18.6110    5.9070   25.9770 C.2   617  GLU617      0.3649
    105  OE1       17.7430    6.3700   26.7480 O.co2 617  GLU617     -0.2457
    106  OE2       19.5370    5.1650   26.3660 O.co2 617  GLU617     -0.2457
    107  N         18.2190    8.6790   22.2740 N.am  618  ILE618     -0.1963
    108  CA        17.5950    9.9660   22.5420 C.3   618  ILE618      0.1727
    109  C         16.8750    9.9410   23.8850 C.2   618  ILE618      0.2616
    110  O         15.8490    9.2790   24.0330 O.2   618  ILE618     -0.2715
    111  CB        16.5930   10.3510   21.4360 C.3   618  ILE618      0.0290
    112  CG1       17.3360   10.7300   20.1540 C.3   618  ILE618      0.0022
    113  CG2       15.7090   11.5020   21.8940 C.3   618  ILE618      0.0023
    114  CD1       16.4300   11.2110   19.0350 C.3   618  ILE618      0.0001
    115  N         17.4260   10.6510   24.8650 N.am  619  VAL619     -0.1977
    116  CA        16.7770   10.7890   26.1620 C.3   619  VAL619      0.1596
    117  C         15.5320   11.6570   26.0040 C.2   619  VAL619      0.2287
    118  O         15.5790   12.7130   25.3740 O.2   619  VAL619     -0.2864
    119  CB        17.7230   11.4170   27.2040 C.3   619  VAL619      0.0276
    120  CG1       17.0070   11.5920   28.5340 C.3   619  VAL619      0.0022
    121  CG2       18.9770   10.5620   27.3700 C.3   619  VAL619      0.0022
    122  N         14.2670   16.1440   27.0510 N.3   622  ALA622     -0.1231
    123  CA        15.5010   16.8280   27.4210 C.3   622  ALA622      0.1694
    124  C         15.8640   17.9200   26.4200 C.2   622  ALA622      0.2593
    125  O         15.5770   17.8070   25.2290 O.2   622  ALA622     -0.2718
    126  CB        16.6410   15.8300   27.5550 C.3   622  ALA622      0.0304
    127  N         16.5010   18.9750   26.9170 N.am  623  THR623     -0.1939
    128  CA        16.9410   20.0790   26.0730 C.3   623  THR623      0.2028
    129  C         18.3000   20.6130   26.5190 C.2   623  THR623      0.2642
    130  O         18.7310   20.3820   27.6500 O.2   623  THR623     -0.2714
    131  CB        15.9130   21.2280   26.0560 C.3   623  THR623      0.1808
    132  OG1       16.5930   22.4840   26.1700 O.3   623  THR623     -0.2208
    133  CG2       14.9350   21.0850   27.2110 C.3   623  THR623      0.0379
    134  N         18.9720   21.3230   25.6190 N.am  624  THR624     -0.1950
    135  CA        20.2900   21.8760   25.9010 C.3   624  THR624      0.1897
    136  C         20.2280   22.9580   26.9720 C.2   624  THR624      0.2313
    137  O         19.2120   23.6350   27.1270 O.2   624  THR624     -0.2863
    138  CB        20.9200   22.4790   24.6320 C.3   624  THR624      0.1794
    139  OG1       21.0690   21.4590   23.6360 O.3   624  THR624     -0.2208
    140  CG2       22.2810   23.0840   24.9460 C.3   624  THR624      0.0378
    141  N         20.3510   26.0860   24.8860 N.3   627  LYS627     -0.1245
    142  CA        19.0830   26.3670   24.2230 C.3   627  LYS627      0.1561
    143  C         18.0950   27.0290   25.1760 C.2   627  LYS627      0.2260
    144  O         17.3270   27.9040   24.7760 O.2   627  LYS627     -0.2867
    145  CB        18.4730   25.0900   23.6440 C.3   627  LYS627      0.0271
    146  CG        17.1910   25.3300   22.8620 C.3   627  LYS627      0.0035
    147  CD        16.5890   24.0290   22.3600 C.3   627  LYS627      0.0206
    148  CE        15.3360   24.2890   21.5390 C.3   627  LYS627      0.1093
    149  NZ        15.6260   25.0960   20.3200 N.3   627  LYS627     -0.1314
    150  N         26.4610   24.0170   25.7450 N.3   687  ASP687     -0.1239
    151  CA        25.7360   23.4120   24.6360 C.3   687  ASP687      0.1674
    152  C         25.8470   21.8940   24.7310 C.2   687  ASP687      0.2266
    153  O         24.9450   21.1650   24.3160 O.2   687  ASP687     -0.2867
    154  CB        26.2970   23.9000   23.2990 C.3   687  ASP687      0.1410
    155  CG        25.4740   23.4310   22.1150 C.2   687  ASP687      0.3668
    156  OD1       24.2290   23.4520   22.2090 O.co2 687  ASP687     -0.2456
    157  OD2       26.0720   23.0370   21.0910 O.co2 687  ASP687     -0.2456
    158  N         22.8610   18.8730   28.9280 N.3   690  MET690     -0.1245
    159  CA        21.4070   18.8550   28.8300 C.3   690  MET690      0.1570
    160  C         20.7350   18.6550   30.1840 C.2   690  MET690      0.2261
    161  O         21.3770   18.2590   31.1560 O.2   690  MET690     -0.2867
    162  CB        20.9460   17.7660   27.8590 C.3   690  MET690      0.0387
    163  CG        21.5850   17.8490   26.4840 C.3   690  MET690      0.0595
    164  SD        20.7120   16.8550   25.2600 S.3   690  MET690     -0.1393
    165  CE        19.1150   17.6670   25.2440 C.3   690  MET690      0.0692
    166  N         22.7990   16.1660   32.6360 N.3   698  PHE698     -0.1241
    167  CA        23.7270   15.1840   32.0800 C.3   698  PHE698      0.1605
    168  C         24.4940   15.7260   30.8770 C.2   698  PHE698      0.2264
    169  O         23.9220   16.3840   30.0080 O.2   698  PHE698     -0.2867
    170  CB        22.9870   13.8990   31.6960 C.3   698  PHE698      0.0534
    171  CG        22.0170   14.0700   30.5610 C.ar  698  PHE698     -0.0203
    172  CD1       22.3430   13.6440   29.2840 C.ar  698  PHE698     -0.0042
    173  CD2       20.7800   14.6540   30.7710 C.ar  698  PHE698     -0.0042
    174  CE1       21.4510   13.7980   28.2370 C.ar  698  PHE698     -0.0003
    175  CE2       19.8840   14.8110   29.7280 C.ar  698  PHE698     -0.0003
    176  CZ        20.2200   14.3820   28.4600 C.ar  698  PHE698     -0.0000
    177  N         26.9450   15.4820   27.3530 N.3   700  ILE700     -0.1231
    178  CA        26.8130   14.7640   26.0900 C.3   700  ILE700      0.1692
    179  C         27.9780   15.0760   25.1560 C.2   700  ILE700      0.2592
    180  O         28.8020   15.9390   25.4500 O.2   700  ILE700     -0.2718
    181  CB        25.4800   15.1060   25.3800 C.3   700  ILE700      0.0266
    182  CG1       25.3490   16.6170   25.1650 C.3   700  ILE700      0.0019
    183  CG2       24.2960   14.5910   26.1780 C.3   700  ILE700      0.0020
    184  CD1       26.1180   17.1430   23.9730 C.3   700  ILE700      0.0001
    185  N         28.0430   14.3620   24.0350 N.am  701  ASP701     -0.1974
    186  CA        29.0500   14.6190   23.0090 C.3   701  ASP701      0.1709
    187  C         30.4650   14.6440   23.5840 C.2   701  ASP701      0.2293
    188  O         31.1870   15.6300   23.4370 O.2   701  ASP701     -0.2864
    189  CB        28.7470   15.9380   22.2900 C.3   701  ASP701      0.1436
    190  CG        29.5320   16.0980   21.0020 C.2   701  ASP701      0.3671
    191  OD1       29.7860   17.2520   20.5960 O.co2 701  ASP701     -0.2456
    192  OD2       29.8900   15.0680   20.3930 O.co2 701  ASP701     -0.2456
@<TRIPOS>BOND
     1     2     3    1
     2     2     1    1
     3     2     5    1
     4     3     4    2
     5     5     6    1
     6    21    20    2
     7    24    25    1
     8    24    30    1
     9    10    11    1
    10    13    12    2
    11    27    26    2
    12    26    25    1
    13    25    28    1
    14    55    56    2
    15    55    54    1
    16    12    11    1
    17    20    19    1
    18    30    29    1
    19     6     7    1
    20    34    33    2
    21    11    14    1
    22    31    32    1
    23    54    53    1
    24    54    57    1
    25    18    19    1
    26    33    32    1
    27     7     8    1
    28    28    29    1
    29    19    22    1
    30    32    35    1
    31    14    15    1
    32    57    58    1
    33    58    59    1
    34    15    16    1
    35    35    36    1
    36    22    23    1
    37     8     9    1
    38    37    36   ar
    39    37    39   ar
    40    36    38   ar
    41    47    48    2
    42    47    46    1
    43    16    17    1
    44    59    60    1
    45    60    61    1
    46    46    45    1
    47    46    49    1
    48    39    40   ar
    49    51    49    1
    50    68    67    1
    51    38    40   ar
    52    38    41   ar
    53    49    50    1
    54    67    66    1
    55    67    69    1
    56    62    63    1
    57    40    42   ar
    58    41    43   ar
    59    50    52    1
    60    66    63    1
    61    90    91    1
    62   114   112    1
    63    63    64    1
    64    42    44   ar
    65    43    44   ar
    66    95    97    1
    67    95    94    1
    68    93    92    2
    69    64    65    2
    70   112   111    1
    71    91    94    1
    72    91    92    1
    73   149   148    1
    74    94    96    1
    75   192   190   ar
    76   191   190   ar
    77    92    98   am
    78   190   189    1
    79   157   155   ar
    80   111   113    1
    81   111   108    1
    82   148   147    1
    83    76    75   ar
    84    98    99    1
    85   155   156   ar
    86   155   154    1
    87   107   108    1
    88   107   100   am
    89   189   186    1
    90   147   146    1
    91    99   100    1
    92    99   102    1
    93    75    74    1
    94    75    77   ar
    95   108   109    1
    96   100   101    2
    97   146   145    1
    98    74    71    1
    99   186   187    1
   100   186   185    1
   101    70    71    1
   102   154   151    1
   103   188   187    2
   104   139   138    1
   105   145   142    1
   106   102   103    1
   107   109   110    2
   108   109   115   am
   109    71    72    1
   110   184   182    1
   111   185   179   am
   112   142   141    1
   113   142   143    1
   114   153   152    2
   115   103   104    1
   116   138   140    1
   117   138   135    1
   118   151   152    1
   119   151   150    1
   120    72    73    2
   121   144   143    2
   122    86    84   ar
   123    86    88   ar
   124   115   116    1
   125   179   180    2
   126   179   178    1
   127   182   181    1
   128    84    83   ar
   129   125   124    2
   130   165   164    1
   131   164   163    1
   132    89    88    1
   133   118   117    2
   134   181   178    1
   135   181   183    1
   136   134   135    1
   137   134   129   am
   138    88    87   ar
   139   135   136    1
   140   104   106   ar
   141   104   105   ar
   142   117   116    1
   143   131   128    1
   144   131   132    1
   145   131   133    1
   146   128   129    1
   147   128   127    1
   148   178   177    1
   149   116   119    1
   150   124   127   am
   151   124   123    1
   152    83    82    1
   153    83    85   ar
   154   163   162    1
   155   129   130    2
   156    81    80    2
   157    80    79    1
   158    82    79    1
   159    87    85   ar
   160   136   137    2
   161   122   123    1
   162   119   121    1
   163   119   120    1
   164   123   126    1
   165    79    78    1
   166   162   159    1
   167   174   176   ar
   168   174   172   ar
   169   176   175   ar
   170   159   158    1
   171   159   160    1
   172   172   171   ar
   173   175   173   ar
   174   169   168    2
   175   160   161    2
   176   171   173   ar
   177   171   170    1
   178   168   167    1
   179   170   167    1
   180   167   166    1
