@<TRIPOS>MOLECULE
tmp/3nzxL00.pdb
 89 88 0 0 0
SMALL
GASTEIGER

@<TRIPOS>ATOM
      1  N         15.6850 -137.2020   38.1410 N.3     5  TYR5       -0.1241
      2  CA        14.3410 -137.5940   37.7230 C.3     5  TYR5        0.1605
      3  C         13.7120 -138.7610   38.4750 C.2     5  TYR5        0.2264
      4  O         14.3930 -139.5360   39.1380 O.2     5  TYR5       -0.2867
      5  CB        14.3560 -137.9330   36.2400 C.3     5  TYR5        0.0534
      6  CG        14.7470 -136.7970   35.3310 C.ar    5  TYR5       -0.0201
      7  CD1       15.8870 -136.8740   34.5310 C.ar    5  TYR5       -0.0009
      8  CD2       13.9230 -135.6800   35.1900 C.ar    5  TYR5       -0.0009
      9  CE1       16.1890 -135.8740   33.6010 C.ar    5  TYR5        0.0417
     10  CE2       14.2180 -134.6720   34.2600 C.ar    5  TYR5        0.0417
     11  CZ        15.3450 -134.7840   33.4700 C.ar    5  TYR5        0.1957
     12  OH        15.5880 -133.8310   32.5210 O.3     5  TYR5       -0.2866
     13  N         15.4570 -131.1640   30.4290 N.3   104  PRO104     -0.2116
     14  CA        14.0180 -131.2880   30.2230 C.3   104  PRO104      0.1372
     15  C         13.1040 -131.5280   31.4010 C.2   104  PRO104      0.2244
     16  O         13.5020 -132.0790   32.4260 O.2   104  PRO104     -0.2868
     17  CB        13.9090 -132.4410   29.2150 C.3   104  PRO104      0.0268
     18  CG        15.2290 -132.4630   28.5480 C.3   104  PRO104      0.0207
     19  CD        16.1580 -132.2260   29.6950 C.3   104  PRO104      0.0892
     20  N         10.6850 -133.7260   32.5050 N.3   106  TYR106     -0.1241
     21  CA        10.3840 -135.1060   32.1350 C.3   106  TYR106      0.1605
     22  C          8.8920 -135.3900   32.1760 C.2   106  TYR106      0.2264
     23  O          8.4300 -136.2100   32.9700 O.2   106  TYR106     -0.2867
     24  CB        11.1280 -136.0620   33.0810 C.3   106  TYR106      0.0534
     25  CG        11.4000 -137.4330   32.5000 C.ar  106  TYR106     -0.0201
     26  CD1       11.9910 -137.5650   31.2450 C.ar  106  TYR106     -0.0009
     27  CD2       11.1030 -138.5980   33.2150 C.ar  106  TYR106     -0.0009
     28  CE1       12.2940 -138.8110   30.7040 C.ar  106  TYR106      0.0417
     29  CE2       11.3990 -139.8590   32.6820 C.ar  106  TYR106      0.0417
     30  CZ        12.0000 -139.9530   31.4230 C.ar  106  TYR106      0.1957
     31  OH        12.3240 -141.1850   30.8890 O.3   106  TYR106     -0.2866
     32  N          4.9800 -135.6060   29.7470 N.3   108  HIS108     -0.1241
     33  CA         4.2060 -135.7000   28.5090 C.3   108  HIS108      0.1621
     34  C          2.9810 -134.8630   28.8550 C.2   108  HIS108      0.2264
     35  O          2.1510 -135.2830   29.6640 O.2   108  HIS108     -0.2867
     36  CB         3.7870 -137.1490   28.2440 C.3   108  HIS108      0.0745
     37  CG         2.9330 -137.3250   27.0240 C.ar  108  HIS108      0.0817
     38  ND1        2.5980 -136.2810   26.1890 N.ar  108  HIS108     -0.2268
     39  CD2        2.3650 -138.4300   26.4870 C.ar  108  HIS108      0.1154
     40  CE1        1.8630 -136.7350   25.1890 C.ar  108  HIS108      0.1986
     41  NE2        1.7080 -138.0370   25.3460 N.ar  108  HIS108     -0.2212
     42  N          2.0710 -132.3430   24.0150 N.3   125  PHE125     -0.1227
     43  CA         3.4700 -131.9810   23.8420 C.3   125  PHE125      0.1736
     44  C          4.5100 -133.0550   24.1510 C.2   125  PHE125      0.2595
     45  O          4.2910 -133.9910   24.9180 O.2   125  PHE125     -0.2718
     46  CB         3.8070 -130.7600   24.7010 C.3   125  PHE125      0.0547
     47  CG         2.8690 -129.6120   24.5210 C.ar  125  PHE125     -0.0202
     48  CD1        1.5520 -129.6930   24.9660 C.ar  125  PHE125     -0.0042
     49  CD2        3.2990 -128.4390   23.9010 C.ar  125  PHE125     -0.0042
     50  CE1        0.6760 -128.6270   24.7930 C.ar  125  PHE125     -0.0003
     51  CE2        2.4250 -127.3600   23.7230 C.ar  125  PHE125     -0.0003
     52  CZ         1.1140 -127.4570   24.1710 C.ar  125  PHE125     -0.0000
     53  N          5.6640 -132.8480   23.5350 N.am  126  ASP126     -0.1960
     54  CA         6.8760 -133.6580   23.6430 C.3   126  ASP126      0.1825
     55  C          7.5170 -133.1590   24.9440 C.2   126  ASP126      0.2464
     56  O          7.2100 -132.0540   25.4000 O.2   126  ASP126     -0.2730
     57  CB         7.7740 -133.2670   22.4690 C.3   126  ASP126      0.1450
     58  CG         8.9980 -134.0940   22.3600 C.2   126  ASP126      0.3671
     59  OD1       10.0250 -133.5580   21.9020 O.co2 126  ASP126     -0.2456
     60  OD2        8.9270 -135.2810   22.7060 O.co2 126  ASP126     -0.2456
     61  N          8.3850 -133.9620   25.5770 N.am  127  PRO127     -0.2715
     62  CA         8.9870 -133.4460   26.8070 C.3   127  PRO127      0.1536
     63  C          9.7320 -132.1400   26.5520 C.2   127  PRO127      0.2598
     64  O          9.8540 -131.2950   27.4330 O.2   127  PRO127     -0.2715
     65  CB         9.9090 -134.5670   27.2170 C.3   127  PRO127      0.0310
     66  CG         9.0780 -135.7580   26.8850 C.3   127  PRO127      0.0237
     67  CD         8.5020 -135.4280   25.5220 C.3   127  PRO127      0.0939
     68  N         10.2170 -131.9600   25.3330 N.am  128  VAL128     -0.1978
     69  CA        10.9270 -130.7340   25.0250 C.3   128  VAL128      0.1596
     70  C         10.1910 -129.7380   24.1220 C.2   128  VAL128      0.2287
     71  O         10.8210 -128.9850   23.3820 O.2   128  VAL128     -0.2864
     72  CB        12.3120 -131.0320   24.4390 C.3   128  VAL128      0.0276
     73  CG1       13.2250 -131.4970   25.5450 C.3   128  VAL128      0.0022
     74  CG2       12.2110 -132.0800   23.3500 C.3   128  VAL128      0.0022
     75  N          7.7150 -130.2370   21.5000 N.3   130  SER130     -0.1217
     76  CA         7.1630 -130.5250   20.1870 C.3   130  SER130      0.1889
     77  C          5.6420 -130.6230   20.3650 C.2   130  SER130      0.2288
     78  O          5.1780 -131.2260   21.3310 O.2   130  SER130     -0.2866
     79  CB         7.7250 -131.8440   19.6890 C.3   130  SER130      0.2089
     80  OG         7.1550 -132.1790   18.4530 O.3   130  SER130     -0.2183
     81  N          1.3260 -130.6940   18.5410 N.3   132  GLU132     -0.1245
     82  CA         0.3870 -130.8560   17.4340 C.3   132  GLU132      0.1567
     83  C         -1.0240 -130.8010   17.9990 C.2   132  GLU132      0.2260
     84  O         -1.2470 -131.1740   19.1580 O.2   132  GLU132     -0.2867
     85  CB         0.6020 -132.2200   16.7680 C.3   132  GLU132      0.0388
     86  CG         0.3250 -132.2780   15.2570 C.3   132  GLU132      0.1160
     87  CD         1.1440 -131.2350   14.4170 C.2   132  GLU132      0.3649
     88  OE1        0.7070 -130.0580   14.3110 O.co2 132  GLU132     -0.2457
     89  OE2        2.2240 -131.5850   13.8610 O.co2 132  GLU132     -0.2457
@<TRIPOS>BOND
     1    89    87   ar
     2    88    87   ar
     3    87    86    1
     4    86    85    1
     5    85    82    1
     6    82    83    1
     7    82    81    1
     8    83    84    2
     9    80    79    1
    10    79    76    1
    11    76    77    1
    12    76    75    1
    13    77    78    2
    14    59    58   ar
    15    58    57    1
    16    58    60   ar
    17    57    54    1
    18    74    72    1
    19    71    70    2
    20    53    54    1
    21    53    44   am
    22    54    55    1
    23    51    49   ar
    24    51    52   ar
    25    43    42    1
    26    43    44    1
    27    43    46    1
    28    49    47   ar
    29    70    69    1
    30    44    45    2
    31    52    50   ar
    32    72    69    1
    33    72    73    1
    34    47    46    1
    35    47    48   ar
    36    50    48   ar
    37    55    56    2
    38    55    61   am
    39    69    68    1
    40    40    41   ar
    41    40    38   ar
    42    68    63   am
    43    41    39   ar
    44    67    61    1
    45    67    66    1
    46    61    62    1
    47    38    37   ar
    48    39    37   ar
    49    63    62    1
    50    63    64    2
    51    62    65    1
    52    66    65    1
    53    37    36    1
    54    36    33    1
    55    33    34    1
    56    33    32    1
    57    18    17    1
    58    18    19    1
    59    34    35    2
    60    17    14    1
    61    19    13    1
    62    14    13    1
    63    14    15    1
    64    28    26   ar
    65    28    30   ar
    66    31    30    1
    67    26    25   ar
    68    15    16    2
    69    30    29   ar
    70    21    22    1
    71    21    20    1
    72    21    24    1
    73    22    23    2
    74    25    24    1
    75    25    27   ar
    76    12    11    1
    77    29    27   ar
    78    11     9   ar
    79    11    10   ar
    80     9     7   ar
    81    10     8   ar
    82     7     6   ar
    83     8     6   ar
    84     6     5    1
    85     5     2    1
    86     2     1    1
    87     2     3    1
    88     3     4    2
