@<TRIPOS>MOLECULE
tmp/3nzxY00.pdb
 135 129 0 0 0
SMALL
GASTEIGER

@<TRIPOS>ATOM
      1  N         56.6130 -152.6980    7.9840 N.3     1  THR1       -0.1218
      2  CA        56.9510 -153.6760    6.9110 C.3     1  THR1        0.1862
      3  C         56.2780 -153.3700    5.5910 C.2     1  THR1        0.2287
      4  O         55.1480 -152.8960    5.5480 O.2     1  THR1       -0.2866
      5  CB        56.5250 -155.1110    7.2900 C.3     1  THR1        0.1770
      6  OG1       57.1860 -155.5060    8.4950 O.3     1  THR1       -0.2211
      7  CG2       56.8850 -156.0890    6.1860 C.3     1  THR1        0.0375
      8  N         62.9170 -154.2850    7.9640 N.3    19  ARG19      -0.1231
      9  CA        62.8580 -153.6370    9.2720 C.3    19  ARG19       0.1694
     10  C         61.9030 -154.3490   10.2420 C.2    19  ARG19       0.2592
     11  O         60.9000 -154.9560    9.8380 O.2    19  ARG19      -0.2718
     12  CB        62.4560 -152.1610    9.1170 C.3    19  ARG19       0.0321
     13  CG        62.3700 -151.4170   10.4400 C.3    19  ARG19       0.0489
     14  CD        62.1890 -149.9240   10.2550 C.3    19  ARG19       0.2205
     15  NE        63.4020 -149.2770    9.7740 N.pl3  19  ARG19      -0.0865
     16  CZ        63.5820 -147.9590    9.7310 C.cat  19  ARG19       0.5346
     17  NH1       62.6260 -147.1370   10.1440 N.pl3  19  ARG19       0.1354
     18  NH2       64.7210 -147.4560    9.2710 N.pl3  19  ARG19       0.1354
     19  N         62.2410 -154.2890   11.5230 N.am   20  ALA20      -0.1966
     20  CA        61.4270 -154.8990   12.5570 C.3    20  ALA20       0.1728
     21  C         61.3410 -153.8660   13.6520 C.2    20  ALA20       0.2617
     22  O         62.3400 -153.2450   14.0030 O.2    20  ALA20      -0.2715
     23  CB        62.0850 -156.1620   13.0740 C.3    20  ALA20       0.0334
     24  N         60.1430 -153.6700   14.1850 N.am   21  THR21      -0.1937
     25  CA        59.9580 -152.6930   15.2430 C.3    21  THR21       0.2028
     26  C         59.1010 -153.1900   16.3900 C.2    21  THR21       0.2642
     27  O         58.3950 -154.1870   16.2890 O.2    21  THR21      -0.2714
     28  CB        59.3310 -151.3890   14.6970 C.3    21  THR21       0.1808
     29  OG1       58.2520 -151.7030   13.8080 O.3    21  THR21      -0.2208
     30  CG2       60.3650 -150.5740   13.9660 C.3    21  THR21       0.0379
     31  N         59.2050 -152.4780   17.4990 N.am   22  ALA22      -0.1963
     32  CA        58.4390 -152.7550   18.6920 C.3    22  ALA22       0.1728
     33  C         58.1440 -151.3390   19.1350 C.2    22  ALA22       0.2616
     34  O         58.8630 -150.7720   19.9410 O.2    22  ALA22      -0.2715
     35  CB        59.2930 -153.4740   19.7040 C.3    22  ALA22       0.0334
     36  N         57.0990 -150.7550   18.5700 N.am   23  GLY23      -0.1955
     37  CA        56.7690 -149.3860   18.8950 C.3    23  GLY23       0.1869
     38  C         57.5680 -148.4980   17.9640 C.2    23  GLY23       0.2309
     39  O         57.5380 -148.6940   16.7500 O.2    23  GLY23      -0.2863
     40  N         60.7570 -148.2050   18.4740 N.3    25  TRP25      -0.1241
     41  CA        62.0570 -148.8320   18.5320 C.3    25  TRP25       0.1605
     42  C         62.3040 -149.7160   17.3290 C.2    25  TRP25       0.2264
     43  O         61.5130 -150.6130   17.0190 O.2    25  TRP25      -0.2867
     44  CB        62.1810 -149.6570   19.8080 C.3    25  TRP25       0.0550
     45  CG        63.3940 -150.5290   19.8440 C.ar   25  TRP25       0.0003
     46  CD1       63.4380 -151.8710   19.6430 C.ar   25  TRP25       0.0946
     47  CD2       64.7420 -150.1160   20.0890 C.ar   25  TRP25       0.0152
     48  NE1       64.7280 -152.3280   19.7520 N.ar   25  TRP25      -0.2442
     49  CE2       65.5490 -151.2690   20.0310 C.ar   25  TRP25       0.0810
     50  CE3       65.3470 -148.8810   20.3650 C.ar   25  TRP25       0.0012
     51  CZ2       66.9320 -151.2260   20.2250 C.ar   25  TRP25       0.0191
     52  CZ3       66.7250 -148.8390   20.5600 C.ar   25  TRP25       0.0001
     53  CH2       67.4980 -150.0030   20.4950 C.ar   25  TRP25       0.0015
     54  N         63.9230 -152.5570   16.0940 N.3    27  ALA27      -0.1245
     55  CA        64.5220 -153.7610   16.6460 C.3    27  ALA27       0.1562
     56  C         65.5130 -154.4010   15.7020 C.2    27  ALA27       0.2260
     57  O         66.4910 -155.0120   16.1450 O.2    27  ALA27      -0.2867
     58  CB        63.4390 -154.7520   17.0150 C.3    27  ALA27       0.0290
     59  N         66.2230 -158.1790    8.9410 N.3    31  VAL31      -0.1231
     60  CA        65.3960 -159.3780    9.0610 C.3    31  VAL31       0.1692
     61  C         64.9640 -159.9270    7.7180 C.2    31  VAL31       0.2592
     62  O         64.7080 -159.1660    6.7920 O.2    31  VAL31      -0.2718
     63  CB        64.1200 -159.1110    9.8850 C.3    31  VAL31       0.0266
     64  CG1       63.4140 -160.4190   10.1600 C.3    31  VAL31       0.0020
     65  CG2       64.4610 -158.4260   11.1830 C.3    31  VAL31       0.0020
     66  N         64.8770 -161.2530    7.6220 N.am   32  LYS32      -0.1966
     67  CA        64.4500 -161.8960    6.3800 C.3    32  LYS32       0.1728
     68  C         62.9320 -162.0600    6.3840 C.2    32  LYS32       0.2616
     69  O         62.3760 -162.7530    7.2310 O.2    32  LYS32      -0.2715
     70  CB        65.1270 -163.2610    6.1990 C.3    32  LYS32       0.0311
     71  CG        66.6290 -163.2070    5.9350 C.3    32  LYS32       0.0038
     72  CD        67.3760 -162.6610    7.1560 C.3    32  LYS32       0.0206
     73  CE        68.8950 -162.5490    6.9530 C.3    32  LYS32       0.1093
     74  NZ        69.5540 -162.0050    8.1970 N.3    32  LYS32      -0.1314
     75  N         62.2770 -161.4060    5.4290 N.am   33  LYS33      -0.1977
     76  CA        60.8280 -161.4510    5.3370 C.3    33  LYS33       0.1596
     77  C         60.3740 -162.3050    4.1740 C.2    33  LYS33       0.2287
     78  O         59.2080 -162.2550    3.7370 O.2    33  LYS33      -0.2864
     79  CB        60.2530 -160.0520    5.2040 C.3    33  LYS33       0.0298
     80  CG        60.4290 -159.2290    6.4700 C.3    33  LYS33       0.0038
     81  CD        60.0260 -157.8020    6.2410 C.3    33  LYS33       0.0206
     82  CE        60.1070 -157.0360    7.5530 C.3    33  LYS33       0.1093
     83  NZ        60.0170 -155.5120    7.3230 N.3    33  LYS33      -0.1314
     84  N         56.5360 -162.2350    4.3160 N.3    45  MET45      -0.1230
     85  CA        56.0890 -162.1100    5.7000 C.3    45  MET45       0.1702
     86  C         55.8190 -160.6630    6.1510 C.2    45  MET45       0.2592
     87  O         56.6560 -159.7930    5.9350 O.2    45  MET45      -0.2718
     88  CB        57.1150 -162.7540    6.6290 C.3    45  MET45       0.0401
     89  CG        57.8240 -163.9980    6.0470 C.3    45  MET45       0.0596
     90  SD        58.3970 -165.1950    7.3220 S.3    45  MET45      -0.1393
     91  CE        60.1340 -165.2980    7.0820 C.3    45  MET45       0.0692
     92  N         54.6330 -160.4260    6.7200 N.am   46  ALA46      -0.1966
     93  CA        54.2380 -159.1190    7.2260 C.3    46  ALA46       0.1728
     94  C         53.3510 -159.3310    8.4500 C.2    46  ALA46       0.2617
     95  O         52.5110 -160.2310    8.4350 O.2    46  ALA46      -0.2715
     96  CB        53.4810 -158.3290    6.1780 C.3    46  ALA46       0.0334
     97  N         53.5330 -158.5150    9.4950 N.am   47  GLY47      -0.1940
     98  CA        52.7200 -158.6560   10.6940 C.3    47  GLY47       0.2014
     99  C         53.6210 -158.9790   11.8690 C.2    47  GLY47       0.2639
    100  O         54.7010 -158.4010   12.0020 O.2    47  GLY47      -0.2714
    101  N         53.1950 -159.9160   12.7160 N.am   48  GLY48      -0.1939
    102  CA        53.9990 -160.3120   13.8630 C.3    48  GLY48       0.2014
    103  C         55.1600 -161.1670   13.4010 C.2    48  GLY48       0.2639
    104  O         54.9710 -162.1530   12.6860 O.2    48  GLY48      -0.2714
    105  N         56.3680 -160.7960   13.8150 N.am   49  ALA49      -0.1963
    106  CA        57.5630 -161.5400   13.4360 C.3    49  ALA49       0.1728
    107  C         57.3980 -163.0290   13.7520 C.2    49  ALA49       0.2616
    108  O         57.4340 -163.8730   12.8480 O.2    49  ALA49      -0.2715
    109  CB        58.7620 -160.9840   14.1610 C.3    49  ALA49       0.0334
    110  N         57.1920 -163.3460   15.0290 N.am   50  ALA50      -0.1977
    111  CA        57.0260 -164.7320   15.4590 C.3    50  ALA50       0.1597
    112  C         55.9580 -165.4750   14.6590 C.2    50  ALA50       0.2287
    113  O         56.2260 -166.5290   14.0920 O.2    50  ALA50      -0.2864
    114  CB        56.6940 -164.7770   16.9310 C.3    50  ALA50       0.0319
    115  N         54.6640 -165.0600   11.7170 N.3    52  CYS52      -0.1221
    116  CA        55.0480 -165.3270   10.3350 C.3    52  CYS52       0.1808
    117  C         56.1150 -166.4070   10.2640 C.2    52  CYS52       0.2601
    118  O         55.9050 -167.4780    9.6860 O.2    52  CYS52      -0.2717
    119  CB        55.5790 -164.0540    9.6790 C.3    52  CYS52       0.0970
    120  SG        54.3190 -162.8090    9.4070 S.3    52  CYS52      -0.0800
    121  N         57.2660 -166.1070   10.8510 N.am   53  GLN53      -0.1979
    122  CA        58.3900 -167.0300   10.8670 C.3    53  GLN53       0.1601
    123  C         57.9840 -168.4510   11.2630 C.2    53  GLN53       0.2287
    124  O         58.3140 -169.4220   10.5740 O.2    53  GLN53      -0.2864
    125  CB        59.4360 -166.5200   11.8460 C.3    53  GLN53       0.0394
    126  CG        60.7250 -166.1210   11.2240 C.3    53  GLN53       0.0908
    127  CD        61.6800 -165.5790   12.2530 C.2    53  GLN53       0.2608
    128  OE1       61.7900 -166.1150   13.3640 O.2    53  GLN53      -0.2717
    129  NE2       62.3910 -164.5170   11.8940 N.am   53  GLN53      -0.0878
    130  N         48.6800 -162.4920   13.9500 N.3    96  SER96      -0.1217
    131  CA        48.7530 -161.3080   13.1180 C.3    96  SER96       0.1889
    132  C         49.7020 -161.5240   11.9520 C.2    96  SER96       0.2288
    133  O         50.9180 -161.4720   12.1190 O.2    96  SER96      -0.2866
    134  CB        49.2190 -160.1220   13.9720 C.3    96  SER96       0.2089
    135  OG        49.4140 -158.9490   13.1980 O.3    96  SER96      -0.2183
@<TRIPOS>BOND
     1    78    77    2
     2    77    76    1
     3    84    85    1
     4    79    76    1
     5    79    80    1
     6    76    75    1
     7    75    68   am
     8     4     3    2
     9     3     2    1
    10    85    86    1
    11    85    88    1
    12    71    70    1
    13    71    72    1
    14    87    86    2
    15    89    88    1
    16    89    90    1
    17    86    92   am
    18    96    93    1
    19     7     5    1
    20    70    67    1
    21    81    80    1
    22    81    82    1
    23    67    68    1
    24    67    66    1
    25    68    69    2
    26    92    93    1
    27    62    61    2
    28     2     5    1
    29     2     1    1
    30    73    72    1
    31    73    74    1
    32    91    90    1
    33    93    94    1
    34     5     6    1
    35    83    82    1
    36    66    61   am
    37    61    60    1
    38     8     9    1
    39    95    94    2
    40    94    97   am
    41    59    60    1
    42    60    63    1
    43    12     9    1
    44    12    13    1
    45    18    16    1
    46     9    10    1
    47   120   119    1
    48    97    98    1
    49   119   116    1
    50   118   117    2
    51    16    15    2
    52    16    17    1
    53    15    14    1
    54    11    10    2
    55    63    64    1
    56    63    65    1
    57    10    19   am
    58    14    13    1
    59   117   116    1
    60   117   121   am
    61   116   115    1
    62   124   123    2
    63    98    99    1
    64   121   122    1
    65   122   123    1
    66   122   125    1
    67   126   125    1
    68   126   127    1
    69    19    20    1
    70    99   100    2
    71    99   101   am
    72   129   127   am
    73   132   133    2
    74   132   131    1
    75   127   128    2
    76    20    23    1
    77    20    21    1
    78   104   103    2
    79   101   102    1
    80   108   107    2
    81   131   130    1
    82   131   134    1
    83   135   134    1
    84   103   105   am
    85   103   102    1
    86   106   107    1
    87   106   105    1
    88   106   109    1
    89    21    22    2
    90    21    24   am
    91   107   110   am
    92    29    28    1
    93    30    28    1
    94   113   112    2
    95    24    25    1
    96   112   111    1
    97    28    25    1
    98   110   111    1
    99    25    26    1
   100   111   114    1
   101    56    57    2
   102    56    55    1
   103    54    55    1
   104    27    26    2
   105    26    31   am
   106    55    58    1
   107    39    38    2
   108    43    42    2
   109    42    41    1
   110    31    32    1
   111    38    37    1
   112    40    41    1
   113    41    44    1
   114    36    37    1
   115    36    33   am
   116    32    33    1
   117    32    35    1
   118    33    34    2
   119    46    48   ar
   120    46    45   ar
   121    48    49   ar
   122    44    45    1
   123    45    47   ar
   124    49    47   ar
   125    49    51   ar
   126    47    50   ar
   127    51    53   ar
   128    50    52   ar
   129    53    52   ar
