@<TRIPOS>MOLECULE
tmp/3o03A01.pdb
 111 107 0 0 0
SMALL
GASTEIGER

@<TRIPOS>ATOM
      1  N         11.8850   16.8990    7.2730 N.3    99  ILE99      -0.1245
      2  CA        12.3930   17.6300    6.1240 C.3    99  ILE99       0.1561
      3  C         13.3700   16.6800    5.3860 C.2    99  ILE99       0.2260
      4  O         14.0170   15.8250    6.0110 O.2    99  ILE99      -0.2867
      5  CB        13.0220   19.0140    6.5390 C.3    99  ILE99       0.0252
      6  CG1       13.4280   19.8260    5.2840 C.3    99  ILE99       0.0019
      7  CG2       14.1670   18.8460    7.6020 C.3    99  ILE99       0.0019
      8  CD1       13.6840   21.3380    5.5420 C.3    99  ILE99       0.0001
      9  N         16.2260   17.0740    1.9760 N.3   101  ARG101     -0.1245
     10  CA        16.8780   17.9610    1.0230 C.3   101  ARG101      0.1563
     11  C         17.3810   17.1240   -0.1330 C.2   101  ARG101      0.2260
     12  O         18.3040   16.3040    0.0240 O.2   101  ARG101     -0.2867
     13  CB        17.9910   18.7420    1.7160 C.3   101  ARG101      0.0307
     14  CG        17.4250   19.5970    2.8440 C.3   101  ARG101      0.0489
     15  CD        18.4850   20.2950    3.6630 C.3   101  ARG101      0.2205
     16  NE        17.8640   21.0440    4.7580 N.pl3 101  ARG101     -0.0865
     17  CZ        17.6080   20.5520    5.9670 C.cat 101  ARG101      0.5346
     18  NH1       17.9190   19.2950    6.2770 N.pl3 101  ARG101      0.1354
     19  NH2       17.0450   21.3290    6.8720 N.pl3 101  ARG101      0.1354
     20  N          4.0700   26.1350   10.5830 N.3   146  CYS146     -0.1221
     21  CA         4.3540   26.3240    9.1760 C.3   146  CYS146      0.1808
     22  C          5.8580   26.5850    8.9880 C.2   146  CYS146      0.2602
     23  O          6.6690   25.9490    9.6470 O.2   146  CYS146     -0.2717
     24  CB         3.4740   27.4190    8.6030 C.3   146  CYS146      0.0970
     25  SG         1.6680   27.0440    8.7350 S.3   146  CYS146     -0.0800
     26  N          6.2270   27.4960    8.0910 N.am  147  SER147     -0.1938
     27  CA         7.6500   27.7230    7.7570 C.3   147  SER147      0.2055
     28  C          7.7060   28.9580    6.8950 C.2   147  SER147      0.2643
     29  O          6.6660   29.3960    6.3370 O.2   147  SER147     -0.2714
     30  CB         8.1580   26.5070    6.9270 C.3   147  SER147      0.2130
     31  OG         9.4880   26.6950    6.4430 O.3   147  SER147     -0.2179
     32  N          8.8950   29.5250    6.7210 N.am  148  MET148     -0.1962
     33  CA         9.0580   30.4490    5.6020 C.3   148  MET148      0.1736
     34  C          8.7860   29.7790    4.2430 C.2   148  MET148      0.2616
     35  O          8.3990   30.4650    3.2920 O.2   148  MET148     -0.2715
     36  CB        10.3990   31.1910    5.6750 C.3   148  MET148      0.0427
     37  CG        10.3460   32.3070    6.7270 C.3   148  MET148      0.0599
     38  SD        11.8850   33.1650    6.8890 S.3   148  MET148     -0.1393
     39  CE        13.0310   31.8290    6.6810 C.3   148  MET148      0.0692
     40  N          8.9780   28.4470    4.1680 N.am  149  MET149     -0.1977
     41  CA         8.6560   27.6480    2.9630 C.3   149  MET149      0.1605
     42  C          7.1300   27.5180    2.6950 C.2   149  MET149      0.2287
     43  O          6.7410   26.9670    1.6620 O.2   149  MET149     -0.2864
     44  CB         9.2730   26.2380    3.0380 C.3   149  MET149      0.0413
     45  CG        10.7180   26.0790    2.4630 C.3   149  MET149      0.0598
     46  SD        11.9000   27.4200    2.7630 S.3   149  MET149     -0.1393
     47  CE        12.2230   27.1300    4.4640 C.3   149  MET149      0.0692
     48  N         12.8860   27.0140   -2.4240 N.3   154  ARG154     -0.1245
     49  CA        14.3590   26.8960   -2.4370 C.3   154  ARG154      0.1563
     50  C         14.7530   25.5720   -3.0760 C.2   154  ARG154      0.2260
     51  O         14.0150   24.5910   -2.9130 O.2   154  ARG154     -0.2867
     52  CB        14.9170   26.9220   -1.0080 C.3   154  ARG154      0.0307
     53  CG        16.3280   27.4830   -0.8990 C.3   154  ARG154      0.0489
     54  CD        16.7570   27.5530    0.5570 C.3   154  ARG154      0.2205
     55  NE        17.0260   26.2230    1.1150 N.pl3 154  ARG154     -0.0865
     56  CZ        18.0670   25.4590    0.7790 C.cat 154  ARG154      0.5346
     57  NH1       18.9500   25.8590   -0.1410 N.pl3 154  ARG154      0.1354
     58  NH2       18.2160   24.2850    1.3560 N.pl3 154  ARG154      0.1354
     59  N         14.2990   21.5490   -1.4500 N.3   157  VAL157     -0.1245
     60  CA        13.1850   21.4020   -0.4970 C.3   157  VAL157      0.1561
     61  C         11.7680   21.4640   -1.1140 C.2   157  VAL157      0.2260
     62  O         10.7910   21.8620   -0.4460 O.2   157  VAL157     -0.2867
     63  CB        13.3310   22.3430    0.7590 C.3   157  VAL157      0.0252
     64  CG1       14.5610   21.9080    1.6000 C.3   157  VAL157      0.0019
     65  CG2       13.3890   23.8210    0.3470 C.3   157  VAL157      0.0019
     66  N          8.9920   19.5530    0.9490 N.3   160  TYR160     -0.1241
     67  CA         8.7720   20.3020    2.1990 C.3   160  TYR160      0.1605
     68  C          7.9540   21.5990    1.9280 C.2   160  TYR160      0.2264
     69  O          6.9770   21.8550    2.6270 O.2   160  TYR160     -0.2867
     70  CB        10.1070   20.6290    2.8440 C.3   160  TYR160      0.0534
     71  CG        10.0470   21.3420    4.1690 C.ar  160  TYR160     -0.0201
     72  CD1        9.7530   20.6380    5.3430 C.ar  160  TYR160     -0.0009
     73  CD2       10.2820   22.7160    4.2580 C.ar  160  TYR160     -0.0009
     74  CE1        9.7320   21.2760    6.5800 C.ar  160  TYR160      0.0417
     75  CE2       10.2570   23.3920    5.5210 C.ar  160  TYR160      0.0417
     76  CZ         9.9870   22.6450    6.6610 C.ar  160  TYR160      0.1957
     77  OH         9.9530   23.2060    7.9130 O.3   160  TYR160     -0.2866
     78  N          7.9190   30.1110   11.7670 N.3   190  PRO190     -0.2102
     79  CA         9.2580   30.4730   12.2540 C.3   190  PRO190      0.1504
     80  C         10.1350   30.9200   11.1000 C.2   190  PRO190      0.2576
     81  O         10.0610   30.3350   10.0030 O.2   190  PRO190     -0.2718
     82  CB         9.8110   29.1500   12.8380 C.3   190  PRO190      0.0282
     83  CG         8.6030   28.2560   13.0330 C.3   190  PRO190      0.0208
     84  CD         7.6680   28.6540   11.9110 C.3   190  PRO190      0.0893
     85  N         10.9780   31.9290   11.3530 N.am  191  GLY191     -0.1943
     86  CA        12.0160   32.3560   10.3970 C.3   191  GLY191      0.2014
     87  C         13.2090   31.4100   10.4470 C.2   191  GLY191      0.2638
     88  O         13.0360   30.1720   10.4490 O.2   191  GLY191     -0.2714
     89  N         14.4140   31.9780   10.5040 N.am  192  TYR192     -0.1973
     90  CA        15.6210   31.1600   10.6860 C.3   192  TYR192      0.1639
     91  C         15.8730   30.9210   12.1640 C.2   192  TYR192      0.2290
     92  O         16.1990   31.8540   12.8780 O.2   192  TYR192     -0.2864
     93  CB        16.8240   31.8520   10.0560 C.3   192  TYR192      0.0560
     94  CG        16.8400   31.8260    8.5480 C.ar  192  TYR192     -0.0198
     95  CD1       17.1280   30.6450    7.8560 C.ar  192  TYR192     -0.0009
     96  CD2       16.6040   32.9870    7.8070 C.ar  192  TYR192     -0.0009
     97  CE1       17.1440   30.6120    6.4390 C.ar  192  TYR192      0.0417
     98  CE2       16.6220   32.9690    6.4120 C.ar  192  TYR192      0.0417
     99  CZ        16.8920   31.7820    5.7340 C.ar  192  TYR192      0.1957
    100  OH        16.9260   31.7680    4.3400 O.3   192  TYR192     -0.2866
    101  N         27.3420   31.5510    5.6180 N.3   201  PHE201     -0.1241
    102  CA        25.9080   31.2270    5.8140 C.3   201  PHE201      0.1605
    103  C         25.3010   32.0500    6.9560 C.2   201  PHE201      0.2264
    104  O         24.1460   32.4760    6.8850 O.2   201  PHE201     -0.2867
    105  CB        25.7060   29.7300    6.0980 C.3   201  PHE201      0.0534
    106  CG        24.2610   29.3170    6.1800 C.ar  201  PHE201     -0.0203
    107  CD1       23.6430   28.7140    5.1010 C.ar  201  PHE201     -0.0042
    108  CD2       23.5110   29.5440    7.3370 C.ar  201  PHE201     -0.0042
    109  CE1       22.3040   28.3300    5.1680 C.ar  201  PHE201     -0.0003
    110  CE2       22.1700   29.1680    7.4050 C.ar  201  PHE201     -0.0003
    111  CZ        21.5680   28.5550    6.3190 C.ar  201  PHE201     -0.0000
@<TRIPOS>BOND
     1    50    51    2
     2    50    49    1
     3    49    48    1
     4    49    52    1
     5    59    60    1
     6    61    60    1
     7    61    62    2
     8    52    53    1
     9    53    54    1
    10    60    63    1
    11    57    56    1
    12    11    12    2
    13    11    10    1
    14    65    63    1
    15    54    55    1
    16    63    64    1
    17    56    55    2
    18    56    58    1
    19    66    67    1
    20    10    13    1
    21    10     9    1
    22    43    42    2
    23    13    14    1
    24    68    67    1
    25    68    69    2
    26    67    70    1
    27    45    46    1
    28    45    44    1
    29    42    41    1
    30    46    47    1
    31    14    15    1
    32    70    71    1
    33    41    44    1
    34    41    40    1
    35    35    34    2
    36    15    16    1
    37    40    34   am
    38    71    73   ar
    39    71    72   ar
    40    34    33    1
    41    73    75   ar
    42   100    99    1
    43    16    17    2
    44   107   109   ar
    45   107   106   ar
    46   109   111   ar
    47     6     8    1
    48     6     5    1
    49    72    74   ar
    50     3     4    2
    51     3     2    1
    52    75    76   ar
    53    33    36    1
    54    33    32    1
    55   101   102    1
    56    36    37    1
    57    99    98   ar
    58    99    97   ar
    59   102   105    1
    60   102   103    1
    61    17    18    1
    62    17    19    1
    63   105   106    1
    64     2     5    1
    65     2     1    1
    66   106   108   ar
    67   111   110   ar
    68    29    28    2
    69    98    96   ar
    70    97    95   ar
    71    31    30    1
    72     5     7    1
    73    74    76   ar
    74    76    77    1
    75    39    38    1
    76    32    28   am
    77    37    38    1
    78   104   103    2
    79    28    27    1
    80    30    27    1
    81   108   110   ar
    82    27    26    1
    83    96    94   ar
    84    95    94   ar
    85    26    22   am
    86    94    93    1
    87    24    25    1
    88    24    21    1
    89    22    21    1
    90    22    23    2
    91    21    20    1
    92    81    80    2
    93    93    90    1
    94    86    87    1
    95    86    85    1
    96    87    88    2
    97    87    89   am
    98    89    90    1
    99    90    91    1
   100    80    85   am
   101    80    79    1
   102    78    84    1
   103    78    79    1
   104    84    83    1
   105    91    92    2
   106    79    82    1
   107    82    83    1
