@<TRIPOS>MOLECULE
tmp/3o05B00.pdb
 123 117 0 0 0
SMALL
GASTEIGER

@<TRIPOS>ATOM
      1  N        -20.4850   20.7770   25.6880 N.3    69  ILE69      -0.1245
      2  CA       -21.9230   20.9200   25.8410 C.3    69  ILE69       0.1561
      3  C        -22.3990   20.0110   26.9730 C.2    69  ILE69       0.2260
      4  O        -22.0750   18.8140   27.0140 O.2    69  ILE69      -0.2867
      5  CB       -22.6530   20.5820   24.5310 C.3    69  ILE69       0.0252
      6  CG1      -22.4860   21.7330   23.5310 C.3    69  ILE69       0.0019
      7  CG2      -24.1340   20.2790   24.7720 C.3    69  ILE69       0.0019
      8  CD1      -22.8780   21.3430   22.1070 C.3    69  ILE69       0.0001
      9  N        -19.9760   23.4650   20.7140 N.3    90  GLU90      -0.1245
     10  CA       -20.1870   22.2550   19.9100 C.3    90  GLU90       0.1567
     11  C        -18.9040   21.8090   19.2130 C.2    90  GLU90       0.2260
     12  O        -18.8360   20.7170   18.6480 O.2    90  GLU90      -0.2867
     13  CB       -21.2930   22.4740   18.8630 C.3    90  GLU90       0.0388
     14  CG       -20.8970   23.4110   17.7230 C.3    90  GLU90       0.1160
     15  CD       -20.9060   24.9040   18.1150 C.2    90  GLU90       0.3649
     16  OE1      -21.3730   25.2560   19.2270 O.co2  90  GLU90      -0.2457
     17  OE2      -20.4460   25.7290   17.2950 O.co2  90  GLU90      -0.2457
     18  N        -19.2750   16.7450   22.7640 N.3    94  PRO94      -0.2116
     19  CA       -20.3710   16.9590   23.7160 C.3    94  PRO94       0.1372
     20  C        -20.3300   15.9820   24.8930 C.2    94  PRO94       0.2244
     21  O        -20.0020   14.8080   24.7060 O.2    94  PRO94      -0.2868
     22  CB       -21.6200   16.7380   22.8680 C.3    94  PRO94       0.0268
     23  CG       -21.1940   17.0760   21.4900 C.3    94  PRO94       0.0207
     24  CD       -19.7690   16.6070   21.3840 C.3    94  PRO94       0.0892
     25  N        -23.0400   15.9120   27.1280 N.3    96  ASP96      -0.1225
     26  CA       -24.4410   15.5680   27.3310 C.3    96  ASP96       0.1805
     27  C        -25.1490   15.8390   26.0050 C.2    96  ASP96       0.2598
     28  O        -25.1970   16.9740   25.5480 O.2    96  ASP96      -0.2718
     29  CB       -25.0560   16.3900   28.4840 C.3    96  ASP96       0.1424
     30  CG       -26.3780   15.7870   29.0110 C.2    96  ASP96       0.3668
     31  OD1      -27.1210   15.1690   28.2120 O.co2  96  ASP96      -0.2456
     32  OD2      -26.6820   15.9240   30.2250 O.co2  96  ASP96      -0.2456
     33  N        -25.6640   14.7920   25.3710 N.am   97  TRP97      -0.1962
     34  CA       -26.3390   14.9420   24.0850 C.3    97  TRP97       0.1771
     35  C        -27.8110   15.3320   24.2360 C.2    97  TRP97       0.2620
     36  O        -28.5120   15.5290   23.2430 O.2    97  TRP97      -0.2715
     37  CB       -26.2310   13.6450   23.2680 C.3    97  TRP97       0.0590
     38  CG       -24.8850   13.4340   22.6610 C.ar   97  TRP97       0.0006
     39  CD1      -23.8510   12.7280   23.1880 C.ar   97  TRP97       0.0946
     40  CD2      -24.4200   13.9530   21.4060 C.ar   97  TRP97       0.0152
     41  NE1      -22.7640   12.7740   22.3440 N.ar   97  TRP97      -0.2442
     42  CE2      -23.0880   13.5180   21.2450 C.ar   97  TRP97       0.0810
     43  CE3      -25.0020   14.7400   20.4060 C.ar   97  TRP97       0.0012
     44  CZ2      -22.3320   13.8330   20.1150 C.ar   97  TRP97       0.0191
     45  CZ3      -24.2430   15.0580   19.2840 C.ar   97  TRP97       0.0001
     46  CH2      -22.9230   14.6030   19.1510 C.ar   97  TRP97       0.0015
     47  N        -28.2770   15.4240   25.4770 N.am   98  THR98      -0.1951
     48  CA       -29.6600   15.7840   25.7520 C.3    98  THR98       0.1897
     49  C        -29.8170   17.1620   26.3970 C.2    98  THR98       0.2313
     50  O        -30.6890   17.9330   26.0110 O.2    98  THR98      -0.2863
     51  CB       -30.3090   14.7610   26.6920 C.3    98  THR98       0.1794
     52  OG1      -30.2440   13.4650   26.0900 O.3    98  THR98      -0.2208
     53  CG2      -31.7640   15.1380   26.9670 C.3    98  THR98       0.0378
     54  N        -28.1680   20.8580   27.7010 N.3   100  HIS100     -0.1241
     55  CA       -27.1330   21.8590   27.8440 C.3   100  HIS100      0.1621
     56  C        -27.0140   22.2520   29.3100 C.2   100  HIS100      0.2264
     57  O        -27.8310   21.8580   30.1450 O.2   100  HIS100     -0.2867
     58  CB       -27.4320   23.0730   26.9740 C.3   100  HIS100      0.0745
     59  CG       -27.2980   22.8030   25.5120 C.ar  100  HIS100      0.0817
     60  ND1      -26.3670   23.4420   24.7150 N.ar  100  HIS100     -0.2268
     61  CD2      -27.9620   21.9450   24.7010 C.ar  100  HIS100      0.1154
     62  CE1      -26.4810   23.0070   23.4750 C.ar  100  HIS100      0.1986
     63  NE2      -27.4350   22.0910   23.4400 N.ar  100  HIS100     -0.2212
     64  N        -28.1300   27.4020   15.2600 N.3   115  LYS115     -0.1245
     65  CA       -28.2540   27.2630   13.8090 C.3   115  LYS115      0.1561
     66  C        -29.5520   27.8830   13.3320 C.2   115  LYS115      0.2260
     67  O        -29.7020   28.1350   12.1470 O.2   115  LYS115     -0.2867
     68  CB       -28.2980   25.7830   13.3950 C.3   115  LYS115      0.0271
     69  CG       -27.1570   24.9220   13.8770 C.3   115  LYS115      0.0035
     70  CD       -27.4990   23.4470   13.6550 C.3   115  LYS115      0.0206
     71  CE       -26.7550   22.5550   14.6570 C.3   115  LYS115      0.1093
     72  NZ       -27.6250   21.4810   15.2470 N.3   115  LYS115     -0.1314
     73  N        -33.2020   26.9770   18.2710 N.3   119  GLU119     -0.1245
     74  CA       -31.9770   26.7850   19.0400 C.3   119  GLU119      0.1567
     75  C        -31.5640   28.0450   19.7930 C.2   119  GLU119      0.2260
     76  O        -31.1980   27.9840   20.9700 O.2   119  GLU119     -0.2867
     77  CB       -30.8340   26.3330   18.1390 C.3   119  GLU119      0.0388
     78  CG       -30.8650   24.8620   17.8240 C.3   119  GLU119      0.1160
     79  CD       -29.6760   24.4010   16.9910 C.2   119  GLU119      0.3649
     80  OE1      -28.6400   25.1050   16.9540 O.co2 119  GLU119     -0.2457
     81  OE2      -29.7830   23.3230   16.3760 O.co2 119  GLU119     -0.2457
     82  N        -33.9170   28.5170   22.8300 N.3   122  ARG122     -0.1231
     83  CA       -33.6360   27.5620   23.8980 C.3   122  ARG122      0.1694
     84  C        -32.3490   27.8820   24.6460 C.2   122  ARG122      0.2591
     85  O        -32.2970   27.7620   25.8770 O.2   122  ARG122     -0.2718
     86  CB       -33.5800   26.1310   23.3700 C.3   122  ARG122      0.0321
     87  CG       -34.9170   25.6160   22.8900 C.3   122  ARG122      0.0489
     88  CD       -34.8370   24.1220   22.6080 C.3   122  ARG122      0.2205
     89  NE       -34.0990   23.7990   21.3900 N.pl3 122  ARG122     -0.0865
     90  CZ       -34.5750   23.9520   20.1510 C.cat 122  ARG122      0.5346
     91  NH1      -35.7910   24.4530   19.9530 N.pl3 122  ARG122      0.1354
     92  NH2      -33.8330   23.6020   19.0980 N.pl3 122  ARG122      0.1354
     93  N        -31.2990   28.2350   23.9310 N.am  123  ARG123     -0.1980
     94  CA       -30.0770   28.6330   24.5720 C.3   123  ARG123      0.1597
     95  C        -30.2370   29.8620   25.4430 C.2   123  ARG123      0.2287
     96  O        -29.7320   29.8920   26.5130 O.2   123  ARG123     -0.2864
     97  CB       -28.9210   28.8240   23.5950 C.3   123  ARG123      0.0334
     98  CG       -28.6000   27.6920   22.6700 C.3   123  ARG123      0.0492
     99  CD       -28.0130   26.4960   23.3110 C.3   123  ARG123      0.2205
    100  NE       -29.0230   25.6190   23.8590 N.pl3 123  ARG123     -0.0865
    101  CZ       -29.6910   24.7280   23.1660 C.cat 123  ARG123      0.5346
    102  NH1      -30.6110   23.9940   23.7390 N.pl3 123  ARG123      0.1354
    103  NH2      -29.4420   24.5750   21.8980 N.pl3 123  ARG123      0.1354
    104  N        -23.1620   28.7100   14.5120 N.3   134  LYS134     -0.1245
    105  CA       -22.3120   27.5520   14.6910 C.3   134  LYS134      0.1561
    106  C        -21.2940   27.4510   13.5760 C.2   134  LYS134      0.2260
    107  O        -20.2050   26.9060   13.7630 O.2   134  LYS134     -0.2867
    108  CB       -23.1560   26.2950   14.7910 C.3   134  LYS134      0.0271
    109  CG       -23.8060   26.1970   16.1350 C.3   134  LYS134      0.0035
    110  CD       -24.5790   24.9150   16.2740 C.3   134  LYS134      0.0206
    111  CE       -24.7140   24.6900   17.6150 C.3   134  LYS134      0.1093
    112  NZ       -25.7010   23.5620   17.5660 N.3   134  LYS134     -0.1314
    113  N        -40.0700   24.6620   22.4620 N.3   176  ARG176     -0.1245
    114  CA       -39.8030   24.3810   23.8680 C.3   176  ARG176      0.1563
    115  C        -39.2870   25.6050   24.5950 C.2   176  ARG176      0.2260
    116  O        -38.3240   25.5160   25.3610 O.2   176  ARG176     -0.2867
    117  CB       -38.7960   23.2320   24.0110 C.3   176  ARG176      0.0307
    118  CG       -39.4150   21.8730   23.7280 C.3   176  ARG176      0.0489
    119  CD       -38.5970   21.0570   22.7610 C.3   176  ARG176      0.2205
    120  NE       -37.2140   20.8670   23.1950 N.pl3 176  ARG176     -0.0865
    121  CZ       -36.2150   20.6330   22.3490 C.cat 176  ARG176      0.5346
    122  NH1      -36.4580   20.5730   21.0430 N.pl3 176  ARG176      0.1354
    123  NH2      -34.9780   20.4720   22.7970 N.pl3 176  ARG176      0.1354
@<TRIPOS>BOND
     1    67    66    2
     2    66    65    1
     3    68    65    1
     4    68    69    1
     5   106   107    2
     6   106   105    1
     7    70    69    1
     8    70    71    1
     9    65    64    1
    10   104   105    1
    11    71    72    1
    12   105   108    1
    13   108   109    1
    14   109   110    1
    15   110   111    1
    16    81    79   ar
    17    80    79   ar
    18    79    78    1
    19    17    15   ar
    20   112   111    1
    21    14    15    1
    22    14    13    1
    23    78    77    1
    24    15    16   ar
    25    77    74    1
    26    73    74    1
    27    12    11    2
    28    13    10    1
    29    74    75    1
    30    92    90    1
    31    46    45   ar
    32    46    44   ar
    33    11    10    1
    34    45    43   ar
    35    75    76    2
    36    10     9    1
    37    91    90    1
    38    44    42   ar
    39    90    89    2
    40    43    40   ar
    41   122   121    1
    42    42    40   ar
    43    42    41   ar
    44    24    23    1
    45    24    18    1
    46    89    88    1
    47    40    38   ar
    48    23    22    1
    49   103   101    1
    50     8     6    1
    51    41    39   ar
    52   121   123    1
    53   121   120    2
    54   113   114    1
    55    88    87    1
    56    38    39   ar
    57    38    37    1
    58    98    99    1
    59    98    97    1
    60   119   120    1
    61   119   118    1
    62    18    19    1
    63    82    83    1
    64    22    19    1
    65    87    86    1
    66   101   102    1
    67   101   100    2
    68    36    35    2
    69    37    34    1
    70    99   100    1
    71    86    83    1
    72    63    62   ar
    73    63    61   ar
    74    62    60   ar
    75     6     5    1
    76    97    94    1
    77    19    20    1
    78   118   117    1
    79   114   117    1
    80   114   115    1
    81    83    84    1
    82    93    94    1
    83    93    84   am
    84    34    35    1
    85    34    33    1
    86    35    47   am
    87     5     7    1
    88     5     2    1
    89    94    95    1
    90   115   116    2
    91    84    85    2
    92    61    59   ar
    93    21    20    2
    94    60    59   ar
    95    33    27   am
    96    95    96    2
    97    47    48    1
    98    59    58    1
    99    28    27    2
   100     1     2    1
   101    48    49    1
   102    48    51    1
   103     2     3    1
   104    27    26    1
   105    50    49    2
   106    52    51    1
   107    51    53    1
   108     3     4    2
   109    58    55    1
   110    25    26    1
   111    26    29    1
   112    54    55    1
   113    55    56    1
   114    31    30   ar
   115    29    30    1
   116    30    32   ar
   117    56    57    2
