@<TRIPOS>MOLECULE
tmp/3o0dA00.pdb
 85 80 0 0 0
SMALL
GASTEIGER

@<TRIPOS>ATOM
      1  N        117.0360   50.3080    5.7930 N.3   113  ASN113     -0.1240
      2  CA       116.3760   50.0160    7.0750 C.3   113  ASN113      0.1653
      3  C        115.4950   48.7910    7.1520 C.2   113  ASN113      0.2266
      4  O        114.8630   48.5350    8.1970 O.2   113  ASN113     -0.2867
      5  CB       115.5900   51.2830    7.5980 C.3   113  ASN113      0.1155
      6  CG       115.8720   51.5490    9.0510 C.2   113  ASN113      0.2627
      7  OD1      116.9730   51.1970    9.5400 O.2   113  ASN113     -0.2716
      8  ND2      114.8900   52.1460    9.7830 N.am  113  ASN113     -0.0877
      9  N        114.2240   57.9220    2.4660 N.3   137  TYR137     -0.1241
     10  CA       114.9690   57.5070    3.6740 C.3   137  TYR137      0.1605
     11  C        116.3250   58.2520    3.7480 C.2   137  TYR137      0.2264
     12  O        116.7190   58.8790    4.7690 O.2   137  TYR137     -0.2867
     13  CB       115.1070   56.0050    3.6980 C.3   137  TYR137      0.0534
     14  CG       115.7330   55.5400    4.9990 C.ar  137  TYR137     -0.0201
     15  CD1      114.9460   55.1640    6.0870 C.ar  137  TYR137     -0.0009
     16  CD2      117.0960   55.5760    5.1440 C.ar  137  TYR137     -0.0009
     17  CE1      115.5340   54.7990    7.3050 C.ar  137  TYR137      0.0417
     18  CE2      117.6980   55.2330    6.3510 C.ar  137  TYR137      0.0417
     19  CZ       116.9040   54.8400    7.4200 C.ar  137  TYR137      0.1957
     20  OH       117.5410   54.4690    8.5970 O.3   137  TYR137     -0.2866
     21  N        115.3850   60.3590    6.7500 N.3   141  GLY141     -0.1225
     22  CA       115.2210   59.3440    7.7420 C.3   141  GLY141      0.1811
     23  C        115.8430   59.7310    9.0790 C.2   141  GLY141      0.2280
     24  O        115.1620   59.5850   10.1330 O.2   141  GLY141     -0.2866
     25  N        113.8310   62.5320   10.7130 N.3   144  LEU144     -0.1231
     26  CA       112.5640   61.9660   11.2480 C.3   144  LEU144      0.1693
     27  C        112.7980   61.2440   12.5850 C.2   144  LEU144      0.2592
     28  O        112.1190   61.4930   13.6060 O.2   144  LEU144     -0.2718
     29  CB       111.9680   60.9850   10.2680 C.3   144  LEU144      0.0284
     30  CG       110.7460   60.1890   10.7330 C.3   144  LEU144      0.0019
     31  CD1      109.5530   61.1690   11.0710 C.3   144  LEU144      0.0001
     32  CD2      110.3500   59.3100    9.6480 C.3   144  LEU144      0.0001
     33  N        113.8000   60.3610   12.5850 N.am  145  ASP145     -0.1974
     34  CA       114.1300   59.7180   13.9070 C.3   145  ASP145      0.1709
     35  C        114.4130   60.7160   15.0430 C.2   145  ASP145      0.2293
     36  O        113.9500   60.5050   16.1680 O.2   145  ASP145     -0.2864
     37  CB       115.3350   58.7510   13.7150 C.3   145  ASP145      0.1436
     38  CG       114.9020   57.3820   13.2580 C.2   145  ASP145      0.3671
     39  OD1      113.7850   56.9180   13.5820 O.co2 145  ASP145     -0.2456
     40  OD2      115.7000   56.7060   12.5610 O.co2 145  ASP145     -0.2456
     41  N        107.4200   53.7540    2.9250 N.3   171  PHE171     -0.1241
     42  CA       108.0380   54.3560    4.0910 C.3   171  PHE171      0.1605
     43  C        107.1790   53.9460    5.3150 C.2   171  PHE171      0.2264
     44  O        107.7480   53.6850    6.4350 O.2   171  PHE171     -0.2867
     45  CB       108.1230   55.8890    3.9720 C.3   171  PHE171      0.0534
     46  CG       109.1440   56.4660    4.8330 C.ar  171  PHE171     -0.0203
     47  CD1      110.3640   56.8940    4.2940 C.ar  171  PHE171     -0.0042
     48  CD2      108.9600   56.5040    6.2410 C.ar  171  PHE171     -0.0042
     49  CE1      111.3900   57.4210    5.1000 C.ar  171  PHE171     -0.0003
     50  CE2      109.9560   56.9770    7.0460 C.ar  171  PHE171     -0.0003
     51  CZ       111.2200   57.4530    6.4860 C.ar  171  PHE171     -0.0000
     52  N        108.2450   50.5010    6.2390 N.3   174  ASN174     -0.1225
     53  CA       109.5780   50.6570    6.9400 C.3   174  ASN174      0.1785
     54  C        109.3190   50.9680    8.4460 C.2   174  ASN174      0.2597
     55  O        109.7650   50.2490    9.3190 O.2   174  ASN174     -0.2718
     56  CB       110.4130   51.7650    6.2900 C.3   174  ASN174      0.1169
     57  CG       111.2740   52.4660    7.2300 C.2   174  ASN174      0.2627
     58  OD1      111.2010   53.7350    7.4930 O.2   174  ASN174     -0.2716
     59  ND2      112.1640   51.6650    7.8300 N.am  174  ASN174     -0.0877
     60  N        108.5230   52.0080    8.7140 N.am  175  LEU175     -0.1980
     61  CA       108.2940   52.4510   10.1090 C.3   175  LEU175      0.1596
     62  C        107.5840   51.3350   10.9090 C.2   175  LEU175      0.2287
     63  O        107.9070   51.1080   12.0880 O.2   175  LEU175     -0.2864
     64  CB       107.4210   53.7120   10.1020 C.3   175  LEU175      0.0297
     65  CG       108.2040   54.9430    9.6990 C.3   175  LEU175      0.0022
     66  CD1      107.1920   56.1890    9.4990 C.3   175  LEU175      0.0001
     67  CD2      109.3210   55.3710   10.6750 C.3   175  LEU175      0.0001
     68  N        109.7400   48.4240   11.7280 N.3   178  ASN178     -0.1240
     69  CA       110.8010   48.8910   12.6330 C.3   178  ASN178      0.1653
     70  C        110.3020   49.4240   13.9790 C.2   178  ASN178      0.2266
     71  O        110.9890   50.2130   14.6290 O.2   178  ASN178     -0.2867
     72  CB       111.7530   49.8740   11.9910 C.3   178  ASN178      0.1155
     73  CG       112.6350   49.1740   10.9330 C.2   178  ASN178      0.2627
     74  OD1      112.5790   49.4700    9.7140 O.2   178  ASN178     -0.2716
     75  ND2      113.4250   48.2100   11.4080 N.am  178  ASN178     -0.0877
     76  N        107.3930   51.1130   14.8780 N.3   180  HIS180     -0.1241
     77  CA       106.5300   52.2800   15.0580 C.3   180  HIS180      0.1621
     78  C        105.1120   51.8820   14.6040 C.2   180  HIS180      0.2264
     79  O        104.8520   50.7550   14.1180 O.2   180  HIS180     -0.2867
     80  CB       107.0660   53.4670   14.2220 C.3   180  HIS180      0.0745
     81  CG       108.4720   53.8510   14.5480 C.ar  180  HIS180      0.0817
     82  ND1      108.7820   54.7130   15.5730 N.ar  180  HIS180     -0.2268
     83  CD2      109.6690   53.4600   14.0100 C.ar  180  HIS180      0.1154
     84  CE1      110.0890   54.9130   15.6110 C.ar  180  HIS180      0.1986
     85  NE2      110.6610   54.1550   14.6830 N.ar  180  HIS180     -0.2212
@<TRIPOS>BOND
     1     9    10    1
     2    41    42    1
     3    10    13    1
     4    10    11    1
     5    13    14    1
     6    11    12    2
     7    45    42    1
     8    45    46    1
     9    42    43    1
    10    47    46   ar
    11    47    49   ar
    12    46    48   ar
    13    14    16   ar
    14    14    15   ar
    15    49    51   ar
    16    16    18   ar
    17    43    44    2
    18     1     2    1
    19    15    17   ar
    20    52    53    1
    21    48    50   ar
    22    56    53    1
    23    56    57    1
    24    18    19   ar
    25    51    50   ar
    26    21    22    1
    27    53    54    1
    28     2     3    1
    29     2     5    1
    30     3     4    2
    31    57    58    2
    32    57    59   am
    33    17    19   ar
    34    19    20    1
    35     5     6    1
    36    22    23    1
    37    54    60   am
    38    54    55    2
    39    60    61    1
    40     6     7    2
    41     6     8   am
    42    23    24    2
    43    66    65    1
    44    32    30    1
    45    65    64    1
    46    65    67    1
    47    74    73    2
    48    64    61    1
    49    61    62    1
    50    29    30    1
    51    29    26    1
    52    25    26    1
    53    30    31    1
    54    62    63    2
    55    73    75   am
    56    73    72    1
    57    26    27    1
    58    68    69    1
    59    72    69    1
    60    40    38   ar
    61    33    27   am
    62    33    34    1
    63    27    28    2
    64    69    70    1
    65    38    39   ar
    66    38    37    1
    67    37    34    1
    68    34    35    1
    69    70    71    2
    70    83    81   ar
    71    83    85   ar
    72    79    78    2
    73    80    81    1
    74    80    77    1
    75    81    82   ar
    76    78    77    1
    77    85    84   ar
    78    76    77    1
    79    35    36    2
    80    82    84   ar
