@<TRIPOS>MOLECULE
tmp/3o0dA01.pdb
 78 73 0 0 0
SMALL
GASTEIGER

@<TRIPOS>ATOM
      1  N        112.0510   43.6480   -7.3340 N.3   106  THR106     -0.1218
      2  CA       113.1900   43.5370   -6.4000 C.3   106  THR106      0.1862
      3  C        112.6780   43.2450   -5.0060 C.2   106  THR106      0.2287
      4  O        111.5930   43.7770   -4.6520 O.2   106  THR106     -0.2866
      5  CB       113.8360   44.9070   -6.2990 C.3   106  THR106      0.1770
      6  OG1      114.3370   45.3160   -7.5770 O.3   106  THR106     -0.2211
      7  CG2      114.9550   44.9900   -5.1900 C.3   106  THR106      0.0375
      8  N        115.9910   44.5850    0.2350 N.3   110  LEU110     -0.1231
      9  CA       117.1400   45.3350   -0.2400 C.3   110  LEU110      0.1693
     10  C        117.0610   46.8150    0.0670 C.2   110  LEU110      0.2592
     11  O        118.0450   47.5220   -0.0780 O.2   110  LEU110     -0.2718
     12  CB       117.3910   45.0530   -1.7360 C.3   110  LEU110      0.0284
     13  CG       117.7040   43.5540   -2.0020 C.3   110  LEU110      0.0019
     14  CD1      117.6380   43.2790   -3.5050 C.3   110  LEU110      0.0001
     15  CD2      119.0640   43.0880   -1.4030 C.3   110  LEU110      0.0001
     16  N        115.8850   47.2970    0.5210 N.am  111  ALA111     -0.1966
     17  CA       115.6940   48.7450    0.7390 C.3   111  ALA111      0.1728
     18  C        116.2710   49.1750    2.0790 C.2   111  ALA111      0.2616
     19  O        116.4200   48.3380    2.9900 O.2   111  ALA111     -0.2715
     20  CB       114.2110   49.0490    0.7190 C.3   111  ALA111      0.0334
     21  N        116.5570   50.4620    2.2220 N.am  112  ALA112     -0.1977
     22  CA       117.1650   51.0040    3.4500 C.3   112  ALA112      0.1597
     23  C        116.3190   50.6660    4.7060 C.2   112  ALA112      0.2287
     24  O        115.0610   50.7490    4.6970 O.2   112  ALA112     -0.2864
     25  CB       117.3350   52.4920    3.3670 C.3   112  ALA112      0.0319
     26  N        111.3020   48.2060   -8.9340 N.3   127  ASN127     -0.1240
     27  CA       112.5980   48.7400   -8.5650 C.3   127  ASN127      0.1653
     28  C        112.6500   50.2650   -8.5400 C.2   127  ASN127      0.2266
     29  O        113.4390   50.8970   -7.8220 O.2   127  ASN127     -0.2867
     30  CB       113.6370   48.2130   -9.5830 C.3   127  ASN127      0.1155
     31  CG       115.0580   48.6600   -9.2520 C.2   127  ASN127      0.2627
     32  OD1      115.7120   48.0370   -8.4110 O.2   127  ASN127     -0.2716
     33  ND2      115.5630   49.7070   -9.8770 N.am  127  ASN127     -0.0877
     34  N        111.1020   51.2660   -5.1250 N.3   130  ILE130     -0.1231
     35  CA       112.1260   51.1120   -4.0710 C.3   130  ILE130      0.1692
     36  C        113.0630   52.2450   -4.0790 C.2   130  ILE130      0.2591
     37  O        113.4900   52.7250   -3.0110 O.2   130  ILE130     -0.2718
     38  CB       112.9410   49.7780   -4.1930 C.3   130  ILE130      0.0266
     39  CG1      111.9570   48.6270   -4.1110 C.3   130  ILE130      0.0019
     40  CG2      114.1220   49.7490   -3.1220 C.3   130  ILE130      0.0020
     41  CD1      112.5970   47.2610   -3.8850 C.3   130  ILE130      0.0001
     42  N        113.4640   52.7340   -5.2660 N.am  131  GLN131     -0.1979
     43  CA       114.2680   53.9120   -5.2900 C.3   131  GLN131      0.1601
     44  C        113.5990   55.1770   -4.6620 C.2   131  GLN131      0.2287
     45  O        114.2620   56.0240   -4.0380 O.2   131  GLN131     -0.2864
     46  CB       114.7010   54.2470   -6.7320 C.3   131  GLN131      0.0394
     47  CG       115.4910   55.5540   -6.8920 C.3   131  GLN131      0.0908
     48  CD       116.7640   55.6260   -6.0520 C.2   131  GLN131      0.2608
     49  OE1      117.3250   54.5960   -5.6660 O.2   131  GLN131     -0.2717
     50  NE2      117.2090   56.8410   -5.7500 N.am  131  GLN131     -0.0878
     51  N        113.8350   54.6500   -1.0670 N.3   134  ASN134     -0.1240
     52  CA       115.1790   54.8830   -0.5920 C.3   134  ASN134      0.1653
     53  C        115.6020   56.2690   -0.5720 C.2   134  ASN134      0.2266
     54  O        116.3430   56.6910    0.3170 O.2   134  ASN134     -0.2867
     55  CB       116.1740   54.0120   -1.4440 C.3   134  ASN134      0.1155
     56  CG       116.8190   52.9470   -0.6610 C.2   134  ASN134      0.2627
     57  OD1      116.1890   52.1450    0.0300 O.2   134  ASN134     -0.2716
     58  ND2      118.1640   52.8830   -0.8430 N.am  134  ASN134     -0.0877
     59  N        114.2240   57.9220    2.4660 N.3   137  TYR137     -0.1227
     60  CA       114.9690   57.5070    3.6740 C.3   137  TYR137      0.1736
     61  C        116.3250   58.2520    3.7480 C.2   137  TYR137      0.2595
     62  O        116.7190   58.8790    4.7690 O.2   137  TYR137     -0.2718
     63  CB       115.1070   56.0050    3.6980 C.3   137  TYR137      0.0548
     64  CG       115.7330   55.5400    4.9990 C.ar  137  TYR137     -0.0200
     65  CD1      114.9460   55.1640    6.0870 C.ar  137  TYR137     -0.0009
     66  CD2      117.0960   55.5760    5.1440 C.ar  137  TYR137     -0.0009
     67  CE1      115.5340   54.7990    7.3050 C.ar  137  TYR137      0.0417
     68  CE2      117.6980   55.2330    6.3510 C.ar  137  TYR137      0.0417
     69  CZ       116.9040   54.8400    7.4200 C.ar  137  TYR137      0.1957
     70  OH       117.5410   54.4690    8.5970 O.3   137  TYR137     -0.2866
     71  N        117.0500   58.2380    2.6110 N.am  138  ASN138     -0.1974
     72  CA       118.3510   58.8470    2.6390 C.3   138  ASN138      0.1688
     73  C        118.3500   60.3000    2.8040 C.2   138  ASN138      0.2292
     74  O        119.3610   60.8470    3.2530 O.2   138  ASN138     -0.2864
     75  CB       119.1780   58.4460    1.3930 C.3   138  ASN138      0.1181
     76  CG       119.4910   56.9650    1.3460 C.2   138  ASN138      0.2629
     77  OD1      119.6690   56.4170    0.2540 O.2   138  ASN138     -0.2716
     78  ND2      119.5850   56.3070    2.4760 N.am  138  ASN138     -0.0877
@<TRIPOS>BOND
     1    33    31   am
     2    30    31    1
     3    30    27    1
     4    31    32    2
     5    26    27    1
     6    27    28    1
     7    28    29    2
     8     6     5    1
     9     1     2    1
    10    47    46    1
    11    47    48    1
    12    46    43    1
    13     2     5    1
    14     2     3    1
    15     5     7    1
    16    48    50   am
    17    48    49    2
    18    43    42    1
    19    43    44    1
    20    42    36   am
    21    34    35    1
    22     3     4    2
    23    44    45    2
    24    38    39    1
    25    38    35    1
    26    38    40    1
    27    39    41    1
    28    36    35    1
    29    36    37    2
    30    14    13    1
    31    13    12    1
    32    13    15    1
    33    12     9    1
    34    55    56    1
    35    55    52    1
    36    51    52    1
    37    58    56   am
    38    56    57    2
    39    52    53    1
    40    53    54    2
    41     9    10    1
    42     9     8    1
    43    11    10    2
    44    10    16   am
    45    77    76    2
    46    16    17    1
    47    20    17    1
    48    17    18    1
    49    76    75    1
    50    76    78   am
    51    75    72    1
    52    18    21   am
    53    18    19    2
    54    21    22    1
    55    59    60    1
    56    71    72    1
    57    71    61   am
    58    72    73    1
    59    73    74    2
    60    25    22    1
    61    22    23    1
    62    60    63    1
    63    60    61    1
    64    63    64    1
    65    61    62    2
    66    24    23    2
    67    64    66   ar
    68    64    65   ar
    69    66    68   ar
    70    65    67   ar
    71    68    69   ar
    72    67    69   ar
    73    69    70    1
