@<TRIPOS>MOLECULE
tmp/3o0eF00.pdb
 79 76 0 0 0
SMALL
GASTEIGER

@<TRIPOS>ATOM
      1  N        -50.7810  -15.8440   50.7950 N.3    19  GLY19      -0.1210
      2  CA       -49.6580  -15.4200   51.6440 C.3    19  GLY19       0.1956
      3  C        -48.7390  -16.6220   51.7760 C.2    19  GLY19       0.2612
      4  O        -49.1990  -17.7140   52.1340 O.2    19  GLY19      -0.2717
      5  N        -47.4560  -16.4600   51.4650 N.am   20  LEU20      -0.1965
      6  CA       -46.5710  -17.6280   51.3330 C.3    20  LEU20       0.1728
      7  C        -45.1270  -17.3460   51.7430 C.2    20  LEU20       0.2616
      8  O        -44.5710  -16.3180   51.3750 O.2    20  LEU20      -0.2715
      9  CB       -46.6200  -18.1520   49.8830 C.3    20  LEU20       0.0311
     10  CG       -45.8580  -19.4170   49.5070 C.3    20  LEU20       0.0022
     11  CD1      -46.3980  -20.6520   50.2310 C.3    20  LEU20       0.0001
     12  CD2      -45.9310  -19.6210   48.0300 C.3    20  LEU20       0.0001
     13  N        -44.5340  -18.2600   52.5110 N.am   21  HIS21      -0.1973
     14  CA       -43.1060  -18.1860   52.8780 C.3    21  HIS21       0.1656
     15  C        -42.3620  -19.5160   52.6590 C.2    21  HIS21       0.2291
     16  O        -42.8880  -20.5970   52.9500 O.2    21  HIS21      -0.2864
     17  CB       -42.9250  -17.6960   54.3270 C.3    21  HIS21       0.0771
     18  CG       -41.6140  -17.0100   54.5740 C.ar   21  HIS21       0.0820
     19  ND1      -41.5200  -15.6690   54.8810 N.ar   21  HIS21      -0.2267
     20  CD2      -40.3440  -17.4780   54.5520 C.ar   21  HIS21       0.1154
     21  CE1      -40.2520  -15.3420   55.0420 C.ar   21  HIS21       0.1986
     22  NE2      -39.5160  -16.4230   54.8520 N.ar   21  HIS21      -0.2212
     23  N        -38.7740  -21.6570   53.4300 N.3    23  PHE23      -0.1241
     24  CA       -37.7030  -21.7450   54.4030 C.3    23  PHE23       0.1605
     25  C        -36.6300  -22.7120   53.9340 C.2    23  PHE23       0.2264
     26  O        -36.9130  -23.8660   53.6230 O.2    23  PHE23      -0.2867
     27  CB       -38.2540  -22.1630   55.7560 C.3    23  PHE23       0.0534
     28  CG       -39.1910  -21.1590   56.3570 C.ar   23  PHE23      -0.0203
     29  CD1      -40.5790  -21.3070   56.2230 C.ar   23  PHE23      -0.0042
     30  CD2      -38.6940  -20.0550   57.0540 C.ar   23  PHE23      -0.0042
     31  CE1      -41.4530  -20.3860   56.7790 C.ar   23  PHE23      -0.0003
     32  CE2      -39.5580  -19.1160   57.6250 C.ar   23  PHE23      -0.0003
     33  CZ       -40.9490  -19.2780   57.4810 C.ar   23  PHE23      -0.0000
     34  N        -35.5190  -19.1650   49.4490 N.3    35  ASN35      -0.1225
     35  CA       -35.7940  -18.7530   50.8230 C.3    35  ASN35       0.1785
     36  C        -36.3130  -17.3230   50.8960 C.2    35  ASN35       0.2598
     37  O        -35.7250  -16.4240   50.2920 O.2    35  ASN35      -0.2718
     38  CB       -34.5160  -18.9330   51.6610 C.3    35  ASN35       0.1169
     39  CG       -34.7010  -18.5570   53.1090 C.2    35  ASN35       0.2627
     40  OD1      -35.5310  -19.1230   53.8270 O.2    35  ASN35      -0.2716
     41  ND2      -33.9020  -17.6000   53.5540 N.am   35  ASN35      -0.0877
     42  N        -37.4140  -17.1330   51.6170 N.am   36  GLY36      -0.1942
     43  CA       -38.0070  -15.8000   51.7970 C.3    36  GLY36       0.2014
     44  C        -39.4790  -15.7350   51.4340 C.2    36  GLY36       0.2638
     45  O        -40.1380  -16.7740   51.2980 O.2    36  GLY36      -0.2714
     46  N        -39.9860  -14.5110   51.2830 N.am   37  ASP37      -0.1971
     47  CA       -41.3870  -14.2690   50.9100 C.3    37  ASP37       0.1709
     48  C        -41.7030  -14.7200   49.4740 C.2    37  ASP37       0.2293
     49  O        -40.9590  -14.4350   48.5420 O.2    37  ASP37      -0.2864
     50  CB       -41.7140  -12.7810   51.0790 C.3    37  ASP37       0.1436
     51  CG       -43.1750  -12.4740   50.8830 C.2    37  ASP37       0.3671
     52  OD1      -44.0180  -13.3520   51.1730 O.co2  37  ASP37      -0.2456
     53  OD2      -43.4850  -11.3390   50.4450 O.co2  37  ASP37      -0.2456
     54  N        -54.9550  -23.5750   54.5870 N.3   309  THR309     -0.1218
     55  CA       -53.5180  -23.4300   54.8980 C.3   309  THR309      0.1862
     56  C        -52.7970  -24.7370   54.6260 C.2   309  THR309      0.2287
     57  O        -53.4150  -25.8070   54.6450 O.2   309  THR309     -0.2866
     58  CB       -53.2090  -23.1470   56.3800 C.3   309  THR309      0.1770
     59  OG1      -54.2170  -23.7420   57.1840 O.3   309  THR309     -0.2211
     60  CG2      -53.1190  -21.6910   56.6620 C.3   309  THR309      0.0375
     61  N        -44.7950  -22.6360   53.7310 N.3   334  VAL334     -0.1231
     62  CA       -45.9440  -22.4270   54.6070 C.3   334  VAL334      0.1692
     63  C        -46.8470  -21.3970   53.9630 C.2   334  VAL334      0.2593
     64  O        -46.4010  -20.2970   53.5950 O.2   334  VAL334     -0.2718
     65  CB       -45.5700  -21.9350   56.0170 C.3   334  VAL334      0.0266
     66  CG1      -46.6710  -22.3070   56.9730 C.3   334  VAL334      0.0020
     67  CG2      -44.2660  -22.5370   56.4770 C.3   334  VAL334      0.0020
     68  N        -48.1180  -21.7610   53.8280 N.am  335  GLY335     -0.1942
     69  CA       -49.0350  -20.9620   53.0590 C.3   335  GLY335      0.2014
     70  C        -50.3790  -20.8110   53.7200 C.2   335  GLY335      0.2638
     71  O        -50.8600  -21.7240   54.4140 O.2   335  GLY335     -0.2714
     72  N        -50.9760  -19.6410   53.4920 N.am  336  ILE336     -0.1977
     73  CA       -52.3310  -19.3410   53.9110 C.3   336  ILE336      0.1596
     74  C        -53.0840  -18.7260   52.7180 C.2   336  ILE336      0.2287
     75  O        -52.6280  -17.7360   52.1200 O.2   336  ILE336     -0.2864
     76  CB       -52.3420  -18.4550   55.1880 C.3   336  ILE336      0.0276
     77  CG1      -53.7370  -17.9350   55.4780 C.3   336  ILE336      0.0022
     78  CG2      -51.3440  -17.3160   55.1000 C.3   336  ILE336      0.0022
     79  CD1      -53.8380  -17.2640   56.8180 C.3   336  ILE336      0.0001
@<TRIPOS>BOND
     1    12    10    1
     2    49    48    2
     3    34    35    1
     4    48    47    1
     5    10     9    1
     6    10    11    1
     7     9     6    1
     8    37    36    2
     9    53    51   ar
    10     1     2    1
    11    35    36    1
    12    35    38    1
    13    51    50    1
    14    51    52   ar
    15    36    42   am
    16    47    50    1
    17    47    46    1
    18    46    44   am
    19    45    44    2
    20     6     5    1
    21     6     7    1
    22     8     7    2
    23    44    43    1
    24     5     3   am
    25    42    43    1
    26     2     3    1
    27    38    39    1
    28     7    13   am
    29     3     4    2
    30    75    74    2
    31    13    14    1
    32    15    14    1
    33    15    16    2
    34    74    73    1
    35    14    17    1
    36    69    70    1
    37    69    68    1
    38    39    41   am
    39    39    40    2
    40    23    24    1
    41    72    70   am
    42    72    73    1
    43    64    63    2
    44    26    25    2
    45    70    71    2
    46    61    62    1
    47    68    63   am
    48    73    76    1
    49    25    24    1
    50    63    62    1
    51    17    18    1
    52    24    27    1
    53    20    18   ar
    54    20    22   ar
    55    18    19   ar
    56    54    55    1
    57    62    65    1
    58    56    57    2
    59    56    55    1
    60    22    21   ar
    61    19    21   ar
    62    55    58    1
    63    78    76    1
    64    76    77    1
    65    77    79    1
    66    27    28    1
    67    65    67    1
    68    65    66    1
    69    29    28   ar
    70    29    31   ar
    71    28    30   ar
    72    58    60    1
    73    58    59    1
    74    31    33   ar
    75    30    32   ar
    76    33    32   ar
