@<TRIPOS>MOLECULE
tmp/3o0fA00.pdb
 167 160 0 0 0
SMALL
GASTEIGER

@<TRIPOS>ATOM
      1  N         27.9170   20.6760    7.3360 N.3    18  ASP18      -0.1239
      2  CA        27.8850   20.1790    5.9770 C.3    18  ASP18       0.1674
      3  C         29.2380   19.8350    5.3330 C.2    18  ASP18       0.2266
      4  O         29.3060   19.6290    4.1220 O.2    18  ASP18      -0.2867
      5  CB        27.0530   21.1000    5.0780 C.3    18  ASP18       0.1410
      6  CG        27.5610   22.5350    5.0100 C.2    18  ASP18       0.3668
      7  OD1       28.4830   22.9470    5.7810 O.co2  18  ASP18      -0.2456
      8  OD2       27.0120   23.2910    4.1360 O.co2  18  ASP18      -0.2456
      9  N         27.8070   25.6020   10.6470 N.3    43  HIS43      -0.1241
     10  CA        26.5140   26.2970   10.5950 C.3    43  HIS43       0.1621
     11  C         25.7480   26.1250   11.9090 C.2    43  HIS43       0.2264
     12  O         25.5390   25.0040   12.3450 O.2    43  HIS43      -0.2867
     13  CB        25.6620   25.7110    9.4720 C.3    43  HIS43       0.0745
     14  CG        26.2320   25.9290    8.1210 C.ar   43  HIS43       0.0817
     15  ND1       26.0760   27.1180    7.4430 N.ar   43  HIS43      -0.2268
     16  CD2       26.9630   25.1210    7.3130 C.ar   43  HIS43       0.1154
     17  CE1       26.7020   27.0400    6.2850 C.ar   43  HIS43       0.1986
     18  NE2       27.2220   25.8350    6.1740 N.ar   43  HIS43      -0.2212
     19  N         23.2220   31.4440   10.2500 N.3    70  THR70      -0.1218
     20  CA        22.2460   31.7040    9.1940 C.3    70  THR70       0.1862
     21  C         21.3540   32.8880    9.5940 C.2    70  THR70       0.2287
     22  O         20.7950   32.8980   10.6830 O.2    70  THR70      -0.2866
     23  CB        21.3400   30.4240    9.0060 C.3    70  THR70       0.1770
     24  OG1       22.1550   29.2500    8.9550 O.3    70  THR70      -0.2211
     25  CG2       20.4800   30.4780    7.7270 C.3    70  THR70       0.0375
     26  N         24.9490   35.2440    5.7310 N.3    79  HIS79      -0.1241
     27  CA        25.6620   34.3780    6.6350 C.3    79  HIS79       0.1621
     28  C         26.6640   35.2260    7.4330 C.2    79  HIS79       0.2264
     29  O         27.3910   36.0540    6.8620 O.2    79  HIS79      -0.2867
     30  CB        26.3460   33.2740    5.8200 C.3    79  HIS79       0.0745
     31  CG        25.3880   32.2380    5.2970 C.ar   79  HIS79       0.0817
     32  ND1       25.7970   31.0250    4.7910 N.ar   79  HIS79      -0.2268
     33  CD2       24.0320   32.2220    5.2480 C.ar   79  HIS79       0.1154
     34  CE1       24.7420   30.3180    4.4260 C.ar   79  HIS79       0.1986
     35  NE2       23.6570   31.0200    4.6960 N.ar   79  HIS79      -0.2212
     36  N         15.5100   24.3560   10.7560 N.3   101  ARG101     -0.1245
     37  CA        16.2390   23.5680    9.7190 C.3   101  ARG101      0.1563
     38  C         15.7980   22.0850    9.5910 C.2   101  ARG101      0.2260
     39  O         15.5540   21.5870    8.4960 O.2   101  ARG101     -0.2867
     40  CB        17.7410   23.5800    9.9850 C.3   101  ARG101      0.0307
     41  CG        18.4470   24.8590    9.5730 C.3   101  ARG101      0.0489
     42  CD        19.9600   24.7630    9.8990 C.3   101  ARG101      0.2205
     43  NE        20.7030   25.7680    9.1320 N.pl3 101  ARG101     -0.0865
     44  CZ        20.9190   25.7140    7.8140 C.cat 101  ARG101      0.5346
     45  NH1       20.4970   24.6870    7.0900 N.pl3 101  ARG101      0.1354
     46  NH2       21.5800   26.6930    7.2090 N.pl3 101  ARG101      0.1354
     47  N         12.1310   22.0170    8.2240 N.3   104  ARG104     -0.1245
     48  CA        12.1510   22.4330    6.8380 C.3   104  ARG104      0.1563
     49  C         12.7210   21.3510    5.9110 C.2   104  ARG104      0.2260
     50  O         12.2460   21.1440    4.7760 O.2   104  ARG104     -0.2867
     51  CB        13.0670   23.6570    6.7570 C.3   104  ARG104      0.0307
     52  CG        12.9170   24.5830    5.6000 C.3   104  ARG104      0.0489
     53  CD        13.8240   24.3030    4.3970 C.3   104  ARG104      0.2205
     54  NE        15.1920   23.9340    4.6840 N.pl3 104  ARG104     -0.0865
     55  CZ        16.2730   24.3920    4.0380 C.cat 104  ARG104      0.5346
     56  NH1       16.2130   25.2870    3.0550 N.pl3 104  ARG104      0.1354
     57  NH2       17.4520   23.9470    4.4130 N.pl3 104  ARG104      0.1354
     58  N         20.8180   20.4270    6.6200 N.3   135  GLY135     -0.1210
     59  CA        20.2810   21.3420    5.6340 C.3   135  GLY135      0.1956
     60  C         20.2650   20.7000    4.2680 C.2   135  GLY135      0.2612
     61  O         20.3240   19.4770    4.1460 O.2   135  GLY135     -0.2717
     62  N         20.1910   21.5340    3.2320 N.am  136  ARG136     -0.1966
     63  CA        20.1750   21.0240    1.8450 C.3   136  ARG136      0.1714
     64  C         21.3800   20.1810    1.4330 C.2   136  ARG136      0.2458
     65  O         21.2120   19.2440    0.6450 O.2   136  ARG136     -0.2730
     66  CB        19.9050   22.1580    0.8490 C.3   136  ARG136      0.0347
     67  CG        18.4360   22.6170    0.8660 C.3   136  ARG136      0.0492
     68  CD        18.3300   24.0850    0.5830 C.3   136  ARG136      0.2205
     69  NE        18.7590   24.4300   -0.7480 N.pl3 136  ARG136     -0.0865
     70  CZ        19.4270   25.5250   -1.1010 C.cat 136  ARG136      0.5346
     71  NH1       19.8310   26.4210   -0.2220 N.pl3 136  ARG136      0.1354
     72  NH2       19.7360   25.6970   -2.3770 N.pl3 136  ARG136      0.1354
     73  N         22.5970   20.4840    1.9250 N.am  137  PRO137     -0.2727
     74  CA        23.7030   19.6130    1.5180 C.3   137  PRO137      0.1402
     75  C         23.5320   18.1290    1.8100 C.2   137  PRO137      0.2269
     76  O         24.0070   17.3190    1.0340 O.2   137  PRO137     -0.2865
     77  CB        24.8890   20.1620    2.3130 C.3   137  PRO137      0.0296
     78  CG        24.6050   21.5870    2.4200 C.3   137  PRO137      0.0237
     79  CD        23.1080   21.6520    2.6780 C.3   137  PRO137      0.0939
     80  N         27.5830   16.6550   -5.3990 N.3   152  ARG152     -0.1231
     81  CA        26.6870   17.4710   -4.5790 C.3   152  ARG152      0.1694
     82  C         26.3270   18.7830   -5.2590 C.2   152  ARG152      0.2592
     83  O         25.1660   19.2050   -5.2440 O.2   152  ARG152     -0.2718
     84  CB        27.3370   17.7280   -3.2280 C.3   152  ARG152      0.0321
     85  CG        26.4740   18.4020   -2.2410 C.3   152  ARG152      0.0489
     86  CD        27.3290   19.0210   -1.1450 C.3   152  ARG152      0.2205
     87  NE        27.6890   18.1030   -0.0710 N.pl3 152  ARG152     -0.0865
     88  CZ        28.2000   18.5060    1.0960 C.cat 152  ARG152      0.5346
     89  NH1       28.4170   19.8020    1.3240 N.pl3 152  ARG152      0.1354
     90  NH2       28.4680   17.6420    2.0480 N.pl3 152  ARG152      0.1354
     91  N         27.3130   19.4220   -5.8690 N.am  153  SER153     -0.1952
     92  CA        27.0870   20.6510   -6.6790 C.3   153  SER153      0.1924
     93  C         26.0990   20.4860   -7.8750 C.2   153  SER153      0.2314
     94  O         25.3980   21.4320   -8.2390 O.2   153  SER153     -0.2863
     95  CB        28.4360   21.1890   -7.1830 C.3   153  SER153      0.2116
     96  OG        29.3480   21.3590   -6.1040 O.3   153  SER153     -0.2180
     97  N         22.5440   20.7220   -6.4450 N.3   156  PHE156     -0.1241
     98  CA        22.2340   22.1470   -6.1910 C.3   156  PHE156      0.1605
     99  C         21.9030   22.9360   -7.4710 C.2   156  PHE156      0.2264
    100  O         21.0990   23.8770   -7.4410 O.2   156  PHE156     -0.2867
    101  CB        23.3920   22.8150   -5.4320 C.3   156  PHE156      0.0534
    102  CG        23.2760   22.6890   -3.9490 C.ar  156  PHE156     -0.0203
    103  CD1       22.4350   23.5500   -3.2380 C.ar  156  PHE156     -0.0042
    104  CD2       23.9750   21.7160   -3.2550 C.ar  156  PHE156     -0.0042
    105  CE1       22.3150   23.4560   -1.8740 C.ar  156  PHE156     -0.0003
    106  CE2       23.8550   21.6060   -1.8890 C.ar  156  PHE156     -0.0003
    107  CZ        23.0230   22.4700   -1.1920 C.ar  156  PHE156     -0.0000
    108  N         12.2000   23.5360   -3.1660 N.3   167  TYR167     -0.1241
    109  CA        12.8360   24.4300   -2.1920 C.3   167  TYR167      0.1605
    110  C         11.8610   25.0310   -1.1790 C.2   167  TYR167      0.2264
    111  O         10.8030   25.5220   -1.5490 O.2   167  TYR167     -0.2867
    112  CB        13.5720   25.5510   -2.9160 C.3   167  TYR167      0.0534
    113  CG        14.2720   26.4990   -1.9840 C.ar  167  TYR167     -0.0201
    114  CD1       15.3970   26.0800   -1.2810 C.ar  167  TYR167     -0.0009
    115  CD2       13.8200   27.8150   -1.7960 C.ar  167  TYR167     -0.0009
    116  CE1       16.0620   26.9160   -0.4340 C.ar  167  TYR167      0.0417
    117  CE2       14.4920   28.6830   -0.9240 C.ar  167  TYR167      0.0417
    118  CZ        15.6100   28.2100   -0.2370 C.ar  167  TYR167      0.1957
    119  OH        16.3150   29.0020    0.6360 O.3   167  TYR167     -0.2866
    120  N         14.4430   28.4130    5.1060 N.3   170  THR170     -0.1218
    121  CA        14.4480   28.1940    6.5570 C.3   170  THR170      0.1862
    122  C         14.1070   29.4990    7.2900 C.2   170  THR170      0.2287
    123  O         14.7460   30.5160    7.0280 O.2   170  THR170     -0.2866
    124  CB        15.8150   27.7090    7.0930 C.3   170  THR170      0.1770
    125  OG1       16.2250   26.5250    6.4110 O.3   170  THR170     -0.2211
    126  CG2       15.7000   27.3970    8.5790 C.3   170  THR170      0.0375
    127  N         24.4170   33.3460   -4.1450 N.3   199  ARG199     -0.1245
    128  CA        23.6270   33.3550   -2.9060 C.3   199  ARG199      0.1563
    129  C         22.2290   34.0160   -3.0260 C.2   199  ARG199      0.2260
    130  O         21.2450   33.4760   -2.5030 O.2   199  ARG199     -0.2867
    131  CB        24.4210   34.0660   -1.7960 C.3   199  ARG199      0.0307
    132  CG        25.6940   33.3480   -1.3240 C.3   199  ARG199      0.0489
    133  CD        25.3090   32.0830   -0.6130 C.3   199  ARG199      0.2205
    134  NE        26.4920   31.3710   -0.1130 N.pl3 199  ARG199     -0.0865
    135  CZ        26.9570   30.2710   -0.7240 C.cat 199  ARG199      0.5346
    136  NH1       26.3490   29.6890   -1.7920 N.pl3 199  ARG199      0.1354
    137  NH2       28.0290   29.6900   -0.1900 N.pl3 199  ARG199      0.1354
    138  N         34.6220   22.5620    2.6940 N.3   252  HIS252     -0.1241
    139  CA        33.6790   21.5680    3.1580 C.3   252  HIS252      0.1621
    140  C         34.2310   20.1780    2.8380 C.2   252  HIS252      0.2264
    141  O         33.4700   19.2210    2.6700 O.2   252  HIS252     -0.2867
    142  CB        32.3420   21.7490    2.4280 C.3   252  HIS252      0.0745
    143  CG        31.5600   22.9640    2.8240 C.ar  252  HIS252      0.0817
    144  ND1       31.9760   24.2550    2.5910 N.ar  252  HIS252     -0.2268
    145  CD2       30.3350   23.0680    3.3860 C.ar  252  HIS252      0.1154
    146  CE1       31.0550   25.1000    3.0070 C.ar  252  HIS252      0.1986
    147  NE2       30.0480   24.4020    3.4920 N.ar  252  HIS252     -0.2212
    148  N         32.7810   17.9990   -0.0290 N.3   255  GLY255     -0.1210
    149  CA        31.4550   18.5550   -0.3450 C.3   255  GLY255      0.1956
    150  C         31.4380   19.7220   -1.3210 C.2   255  GLY255      0.2612
    151  O         30.3980   20.0900   -1.8480 O.2   255  GLY255     -0.2717
    152  N         32.5890   20.3270   -1.5520 N.am  256  LYS256     -0.1966
    153  CA        32.7090   21.4510   -2.4590 C.3   256  LYS256      0.1713
    154  C         34.0830   21.3940   -3.1110 C.2   256  LYS256      0.2458
    155  O         34.9730   20.7650   -2.5960 O.2   256  LYS256     -0.2730
    156  CB        32.5930   22.7810   -1.6900 C.3   256  LYS256      0.0311
    157  CG        31.1880   23.2560   -1.3340 C.3   256  LYS256      0.0038
    158  CD        31.2690   24.6900   -0.8230 C.3   256  LYS256      0.0206
    159  CE        29.9530   25.2820   -0.3630 C.3   256  LYS256      0.1093
    160  NZ        30.2100   26.6940    0.0410 N.3   256  LYS256     -0.1314
    161  N         34.2660   22.0920   -4.2330 N.am  257  PRO257     -0.2727
    162  CA        35.6010   22.2040   -4.8120 C.3   257  PRO257      0.1402
    163  C         36.5820   23.0830   -4.0000 C.2   257  PRO257      0.2269
    164  O         37.8020   22.9790   -4.2160 O.2   257  PRO257     -0.2865
    165  CB        35.3180   22.8410   -6.1680 C.3   257  PRO257      0.0296
    166  CG        34.0950   23.6450   -5.9440 C.3   257  PRO257      0.0237
    167  CD        33.2710   22.8890   -4.9810 C.3   257  PRO257      0.0939
@<TRIPOS>BOND
     1    94    93    2
     2    93    92    1
     3    99   100    2
     4    99    98    1
     5    95    92    1
     6    95    96    1
     7    92    91    1
     8    97    98    1
     9    98   101    1
    10   165   166    1
    11   165   162    1
    12   166   167    1
    13    91    82   am
    14   101   102    1
    15    80    81    1
    16    82    83    2
    17    82    81    1
    18   167   161    1
    19   162   161    1
    20   162   163    1
    21    81    84    1
    22   161   154   am
    23   164   163    2
    24   127   128    1
    25   102   104   ar
    26   102   103   ar
    27   104   106   ar
    28   103   105   ar
    29    84    85    1
    30   108   109    1
    31   154   155    2
    32   154   153    1
    33   129   128    1
    34   129   130    2
    35   112   109    1
    36   112   113    1
    37   128   131    1
    38   153   156    1
    39   153   152    1
    40    72    70    1
    41    85    86    1
    42   109   110    1
    43   113   115   ar
    44   113   114   ar
    45   106   107   ar
    46   105   107   ar
    47   151   150    2
    48   131   132    1
    49   115   117   ar
    50   136   135    1
    51   156   157    1
    52   152   150   am
    53   111   110    2
    54   157   158    1
    55   132   133    1
    56   150   149    1
    57   114   116   ar
    58    86    87    1
    59    70    69    2
    60    70    71    1
    61   117   118   ar
    62   158   159    1
    63    69    68    1
    64   135   137    1
    65   135   134    2
    66   133   134    1
    67   116   118   ar
    68   159   160    1
    69   149   148    1
    70   118   119    1
    71    87    88    2
    72    68    67    1
    73    65    64    2
    74    66    67    1
    75    66    63    1
    76    76    75    2
    77    88    89    1
    78    88    90    1
    79    64    63    1
    80    64    73   am
    81    74    75    1
    82    74    73    1
    83    74    77    1
    84    63    62    1
    85    73    79    1
    86    77    78    1
    87    78    79    1
    88   142   143    1
    89   142   139    1
    90   144   143   ar
    91   144   146   ar
    92   141   140    2
    93   138   139    1
    94   143   145   ar
    95   140   139    1
    96   146   147   ar
    97    56    55    1
    98    62    60   am
    99   145   147   ar
   100    55    57    1
   101    55    54    2
   102     4     3    2
   103     8     6   ar
   104    61    60    2
   105    60    59    1
   106    53    54    1
   107    53    52    1
   108    34    35   ar
   109    34    32   ar
   110    35    33   ar
   111    50    49    2
   112    32    31   ar
   113     6     5    1
   114     6     7   ar
   115     5     2    1
   116   120   121    1
   117    33    31   ar
   118    31    30    1
   119     3     2    1
   120    52    51    1
   121    59    58    1
   122    26    27    1
   123    30    27    1
   124    49    48    1
   125     2     1    1
   126    18    17   ar
   127    18    16   ar
   128    17    15   ar
   129   125   124    1
   130   121   124    1
   131   121   122    1
   132    27    28    1
   133    51    48    1
   134    48    47    1
   135    29    28    2
   136   123   122    2
   137    45    44    1
   138   124   126    1
   139    46    44    1
   140    16    14   ar
   141    15    14   ar
   142    25    23    1
   143    44    43    2
   144    14    13    1
   145    39    38    2
   146    24    23    1
   147    23    20    1
   148    43    42    1
   149    20    21    1
   150    20    19    1
   151    13    10    1
   152    41    42    1
   153    41    40    1
   154    38    37    1
   155    21    22    2
   156    37    40    1
   157    37    36    1
   158    10     9    1
   159    10    11    1
   160    11    12    2
