@<TRIPOS>MOLECULE
tmp/3o0gC00.pdb
 158 148 0 0 0
SMALL
GASTEIGER

@<TRIPOS>ATOM
      1  N          1.2260   61.4160   61.8030 N.3     5  ILE5       -0.1245
      2  CA         0.0210   62.2030   62.0620 C.3     5  ILE5        0.1561
      3  C         -0.8640   61.5650   63.1420 C.2     5  ILE5        0.2260
      4  O         -0.3620   60.9740   64.1100 O.2     5  ILE5       -0.2867
      5  CB        -0.8040   62.4140   60.7530 C.3     5  ILE5        0.0252
      6  CG1       -1.2950   61.0720   60.1810 C.3     5  ILE5        0.0019
      7  CG2       -0.0070   63.2210   59.7320 C.3     5  ILE5        0.0019
      8  CD1       -1.9510   61.1420   58.7990 C.3     5  ILE5        0.0001
      9  N         -1.2880   51.1350   67.4150 N.3     6  GLY6       -0.1225
     10  CA        -0.2060   51.5530   66.5370 C.3     6  GLY6        0.1811
     11  C         -0.2010   53.0470   66.2530 C.2     6  GLY6        0.2280
     12  O         -0.9210   53.8010   66.9010 O.2     6  GLY6       -0.2866
     13  N         -0.1270   56.3300   63.1620 N.3     8  VAL8       -0.1245
     14  CA        -0.6420   56.6300   61.8270 C.3     8  VAL8        0.1561
     15  C          0.2490   57.5960   61.0450 C.2     8  VAL8        0.2260
     16  O          0.7580   58.5700   61.6070 O.2     8  VAL8       -0.2867
     17  CB        -2.1400   57.0750   61.8380 C.3     8  VAL8        0.0252
     18  CG1       -2.9250   56.3780   62.9610 C.3     8  VAL8        0.0019
     19  CG2       -2.2810   58.5640   61.9810 C.3     8  VAL8        0.0019
     20  N         -3.4890   57.1760   54.2160 N.3    15  ALA15      -0.1245
     21  CA        -3.1250   57.1470   55.6210 C.3    15  ALA15       0.1562
     22  C         -2.8190   55.7170   56.0480 C.2    15  ALA15       0.2260
     23  O         -3.6170   54.8060   55.8240 O.2    15  ALA15      -0.2867
     24  CB        -4.2180   57.7480   56.4690 C.3    15  ALA15       0.0290
     25  N         -1.7820   52.9680   59.0990 N.3    17  LYS17      -0.1245
     26  CA        -1.7020   52.6410   60.5170 C.3    17  LYS17       0.1561
     27  C         -0.8220   51.4040   60.7200 C.2    17  LYS17       0.2260
     28  O         -1.2230   50.2830   60.3990 O.2    17  LYS17      -0.2867
     29  CB        -3.1030   52.4190   61.0970 C.3    17  LYS17       0.0271
     30  CG        -3.1350   52.2890   62.6080 C.3    17  LYS17       0.0035
     31  CD        -4.4380   51.6790   63.0630 C.3    17  LYS17       0.0206
     32  CE        -4.7330   52.0240   64.5050 C.3    17  LYS17       0.1093
     33  NZ        -6.0640   51.4750   64.8810 N.3    17  LYS17      -0.1314
     34  N        -11.1470   45.7510   64.4270 N.3    27  GLU27      -0.1245
     35  CA       -11.2850   46.9560   63.6180 C.3    27  GLU27       0.1567
     36  C        -11.3480   46.6260   62.1180 C.2    27  GLU27       0.2260
     37  O        -12.2250   47.1280   61.4170 O.2    27  GLU27      -0.2867
     38  CB       -10.1670   47.9540   63.9220 C.3    27  GLU27       0.0388
     39  CG       -10.3340   49.3000   63.2320 C.3    27  GLU27       0.1160
     40  CD        -9.1660   50.2490   63.4720 C.2    27  GLU27       0.3649
     41  OE1       -9.1400   51.3290   62.8370 O.co2  27  GLU27      -0.2457
     42  OE2       -8.2770   49.9270   64.2970 O.co2  27  GLU27      -0.2457
     43  N        -14.3390   56.7930   57.3070 N.3    40  VAL40      -0.1245
     44  CA       -13.0250   56.6040   56.6880 C.3    40  VAL40       0.1561
     45  C        -12.9500   55.2350   55.9890 C.2    40  VAL40       0.2260
     46  O        -13.2930   54.2090   56.5720 O.2    40  VAL40      -0.2867
     47  CB       -11.8750   56.7630   57.7190 C.3    40  VAL40       0.0252
     48  CG1      -11.9650   55.6870   58.8150 C.3    40  VAL40       0.0019
     49  CG2      -10.5130   56.7300   57.0220 C.3    40  VAL40       0.0019
     50  N         -5.7100   53.2390   54.9010 N.3    56  PHE56      -0.1227
     51  CA        -6.9390   54.0300   54.8180 C.3    56  PHE56       0.1736
     52  C         -6.8400   55.0880   53.7280 C.2    56  PHE56       0.2595
     53  O         -5.7410   55.4270   53.2720 O.2    56  PHE56      -0.2718
     54  CB        -7.2440   54.7540   56.1450 C.3    56  PHE56       0.0547
     55  CG        -7.3000   53.8620   57.3480 C.ar   56  PHE56      -0.0202
     56  CD1       -6.1800   53.6830   58.1470 C.ar   56  PHE56      -0.0042
     57  CD2       -8.4870   53.2380   57.7150 C.ar   56  PHE56      -0.0042
     58  CE1       -6.2300   52.8730   59.2840 C.ar   56  PHE56      -0.0003
     59  CE2       -8.5440   52.4250   58.8480 C.ar   56  PHE56      -0.0003
     60  CZ        -7.4120   52.2450   59.6360 C.ar   56  PHE56      -0.0000
     61  N         -7.9910   55.6320   53.3320 N.am   57  GLU57      -0.1965
     62  CA        -8.0170   56.8540   52.5300 C.3    57  GLU57       0.1733
     63  C         -7.4040   57.9730   53.3640 C.2    57  GLU57       0.2616
     64  O         -7.5290   57.9810   54.5940 O.2    57  GLU57      -0.2715
     65  CB        -9.4450   57.2320   52.1230 C.3    57  GLU57       0.0429
     66  CG       -10.3390   57.6300   53.2870 C.3    57  GLU57       0.1163
     67  CD       -11.7270   58.0850   52.8670 C.2    57  GLU57       0.3649
     68  OE1      -11.8370   59.0570   52.0890 O.co2  57  GLU57      -0.2457
     69  OE2      -12.7090   57.4780   53.3330 O.co2  57  GLU57      -0.2457
     70  N         -6.7350   58.9050   52.7010 N.am   58  PHE58      -0.1960
     71  CA        -6.1740   60.0530   53.4030 C.3    58  PHE58       0.1771
     72  C         -7.1620   61.2020   53.4240 C.2    58  PHE58       0.2620
     73  O         -7.7790   61.5200   52.4080 O.2    58  PHE58      -0.2715
     74  CB        -4.8590   60.5020   52.7680 C.3    58  PHE58       0.0574
     75  CG        -4.2410   61.7060   53.4360 C.ar   58  PHE58      -0.0200
     76  CD1       -4.3110   62.9630   52.8370 C.ar   58  PHE58      -0.0042
     77  CD2       -3.5890   61.5860   54.6650 C.ar   58  PHE58      -0.0042
     78  CE1       -3.7430   64.0810   53.4450 C.ar   58  PHE58      -0.0003
     79  CE2       -3.0110   62.7010   55.2800 C.ar   58  PHE58      -0.0003
     80  CZ        -3.0930   63.9490   54.6690 C.ar   58  PHE58      -0.0000
     81  N         -7.3020   61.8090   54.5990 N.am   59  CYS59      -0.1954
     82  CA        -8.0800   63.0220   54.7880 C.3    59  CYS59       0.1843
     83  C         -7.1540   64.1630   55.2000 C.2    59  CYS59       0.2625
     84  O         -6.1400   63.9420   55.8630 O.2    59  CYS59      -0.2714
     85  CB        -9.1580   62.8000   55.8460 C.3    59  CYS59       0.0997
     86  SG       -10.3340   61.4980   55.3970 S.3    59  CYS59      -0.0797
     87  N         -7.5250   65.3770   54.8040 N.am   60  ASP60      -0.1957
     88  CA        -6.6510   66.5410   54.8880 C.3    60  ASP60       0.1840
     89  C         -6.2720   66.9300   56.3120 C.2    60  ASP60       0.2622
     90  O         -5.1120   67.2510   56.5780 O.2    60  ASP60      -0.2715
     91  CB        -7.2850   67.7300   54.1650 C.3    60  ASP60       0.1450
     92  CG        -7.4200   67.4940   52.6710 C.2    60  ASP60       0.3671
     93  OD1       -6.4220   67.0960   52.0370 O.co2  60  ASP60      -0.2456
     94  OD2       -8.4830   67.6720   52.0480 O.co2  60  ASP60      -0.2456
     95  N         -7.2530   66.9080   57.2100 N.am   61  GLN61      -0.1963
     96  CA        -7.0330   67.2720   58.6130 C.3    61  GLN61       0.1733
     97  C         -8.0830   66.6740   59.5330 C.2    61  GLN61       0.2616
     98  O         -9.0390   66.0640   59.0700 O.2    61  GLN61      -0.2715
     99  CB        -7.0220   68.7940   58.7760 C.3    61  GLN61       0.0408
    100  CG        -8.3680   69.4900   58.5250 C.3    61  GLN61       0.0908
    101  CD        -8.1960   70.9900   58.3820 C.2    61  GLN61       0.2608
    102  OE1       -7.6210   71.6350   59.2480 O.2    61  GLN61      -0.2717
    103  NE2       -8.6800   71.5400   57.2880 N.am   61  GLN61      -0.0878
    104  N         -7.9010   66.8570   60.8400 N.am   62  ASP62      -0.1971
    105  CA        -8.9640   66.5410   61.7840 C.3    62  ASP62       0.1709
    106  C         -9.6630   67.8110   62.2880 C.2    62  ASP62       0.2293
    107  O         -9.2560   68.9230   61.9600 O.2    62  ASP62      -0.2864
    108  CB        -8.4650   65.6560   62.9410 C.3    62  ASP62       0.1436
    109  CG        -7.4160   66.3340   63.8110 C.2    62  ASP62       0.3671
    110  OD1       -7.3940   67.5800   63.9370 O.co2  62  ASP62      -0.2456
    111  OD2       -6.5650   65.6680   64.4270 O.co2  62  ASP62      -0.2456
    112  N         -7.4480   70.2960   64.3920 N.3    65  LYS65      -0.1245
    113  CA        -6.6640   71.1950   63.5670 C.3    65  LYS65       0.1561
    114  C         -7.5660   72.2170   62.8840 C.2    65  LYS65       0.2260
    115  O         -7.2060   73.3910   62.7520 O.2    65  LYS65      -0.2867
    116  CB        -5.8210   70.4350   62.5410 C.3    65  LYS65       0.0271
    117  CG        -4.7530   71.3060   61.9210 C.3    65  LYS65       0.0035
    118  CD        -4.0490   70.6440   60.7540 C.3    65  LYS65       0.0206
    119  CE        -3.1940   71.6760   60.0240 C.3    65  LYS65       0.1093
    120  NZ        -2.4790   71.1090   58.8580 N.3    65  LYS65      -0.1314
    121  N        -10.4270   64.5890   67.2680 N.3   106  GLN106     -0.1231
    122  CA        -9.2780   64.0210   66.5470 C.3   106  GLN106      0.1698
    123  C         -9.6660   62.8160   65.6810 C.2   106  GLN106      0.2592
    124  O         -8.9050   62.4060   64.8030 O.2   106  GLN106     -0.2718
    125  CB        -8.1540   63.6340   67.5020 C.3   106  GLN106      0.0381
    126  CG        -8.6330   63.3210   68.9100 C.3   106  GLN106      0.0905
    127  CD        -8.6840   64.5600   69.7890 C.2   106  GLN106      0.2608
    128  OE1       -9.7620   64.9830   70.2080 O.2   106  GLN106     -0.2717
    129  NE2       -7.5180   65.1610   70.0340 N.am  106  GLN106     -0.0878
    130  N        -10.8420   62.2550   65.9460 N.am  107  ASN107     -0.1974
    131  CA       -11.3370   61.1390   65.1560 C.3   107  ASN107      0.1688
    132  C        -12.3810   61.6010   64.1290 C.2   107  ASN107      0.2292
    133  O        -13.0620   60.7850   63.5040 O.2   107  ASN107     -0.2864
    134  CB       -11.8770   60.0380   66.0730 C.3   107  ASN107      0.1181
    135  CG       -10.7760   59.3250   66.8500 C.2   107  ASN107      0.2629
    136  OD1       -9.5790   59.3990   66.5020 O.2   107  ASN107     -0.2716
    137  ND2      -11.1710   58.6040   67.8890 N.am  107  ASN107     -0.0877
    138  N        -12.4770   63.5660   60.7160 N.3   109  LEU109     -0.1245
    139  CA       -11.6270   64.0600   59.6390 C.3   109  LEU109      0.1561
    140  C        -12.3780   64.9830   58.6840 C.2   109  LEU109      0.2260
    141  O        -13.5330   64.7390   58.3470 O.2   109  LEU109     -0.2867
    142  CB       -10.9850   62.8940   58.8900 C.3   109  LEU109      0.0270
    143  CG       -10.3550   61.8140   59.7750 C.3   109  LEU109      0.0019
    144  CD1       -9.7750   60.7230   58.9030 C.3   109  LEU109      0.0001
    145  CD2       -9.2990   62.3730   60.7450 C.3   109  LEU109      0.0001
    146  N        -13.5690   58.5180   61.8170 N.3   119  ALA119     -0.1231
    147  CA       -12.3960   57.6540   61.7300 C.3   119  ALA119      0.1694
    148  C        -12.0840   56.9820   63.0530 C.2   119  ALA119      0.2592
    149  O        -12.7500   57.2480   64.0530 O.2   119  ALA119     -0.2718
    150  CB       -11.1780   58.4560   61.2290 C.3   119  ALA119      0.0304
    151  N        -11.0760   56.1100   63.0390 N.am  120  ASN120     -0.1974
    152  CA       -10.5480   55.4360   64.2340 C.3   120  ASN120      0.1688
    153  C        -11.5530   54.5350   64.9320 C.2   120  ASN120      0.2292
    154  O        -12.2050   54.9370   65.9120 O.2   120  ASN120     -0.2864
    155  CB        -9.9420   56.4320   65.2380 C.3   120  ASN120      0.1181
    156  CG        -9.0940   55.7480   66.3080 C.2   120  ASN120      0.2629
    157  OD1       -8.9610   54.5100   66.3380 O.2   120  ASN120     -0.2716
    158  ND2       -8.5090   56.5500   67.1910 N.am  120  ASN120     -0.0877
@<TRIPOS>BOND
     1    93    92   ar
     2    94    92   ar
     3    68    67   ar
     4    65    62    1
     5    65    66    1
     6    73    72    2
     7    62    61    1
     8    62    63    1
     9    92    91    1
    10    70    63   am
    11    70    71    1
    12    74    71    1
    13    74    75    1
    14    76    75   ar
    15    76    78   ar
    16    67    66    1
    17    67    69   ar
    18    53    52    2
    19    61    52   am
    20    63    64    2
    21    71    72    1
    22    72    81   am
    23    75    77   ar
    24    78    80   ar
    25    52    51    1
    26    91    88    1
    27    20    21    1
    28    81    82    1
    29    77    79   ar
    30    80    79   ar
    31    82    83    1
    32    82    85    1
    33    87    88    1
    34    87    83   am
    35    51    50    1
    36    51    54    1
    37    88    89    1
    38    83    84    2
    39    86    85    1
    40    21    22    1
    41    21    24    1
    42    23    22    2
    43    45    46    2
    44    45    44    1
    45    54    55    1
    46    89    90    2
    47    89    95   am
    48    44    43    1
    49    44    47    1
    50    49    47    1
    51    95    96    1
    52   103   101   am
    53    55    57   ar
    54    55    56   ar
    55    57    59   ar
    56    47    48    1
    57    56    58   ar
    58   141   140    2
    59   101   100    1
    60   101   102    2
    61   100    99    1
    62    96    99    1
    63    96    97    1
    64   140   139    1
    65     8     6    1
    66    59    60   ar
    67   120   119    1
    68   142   139    1
    69   142   143    1
    70   144   143    1
    71    98    97    2
    72    25    26    1
    73    58    60   ar
    74    97   104   am
    75   139   138    1
    76     7     5    1
    77   143   145    1
    78   119   118    1
    79     6     5    1
    80    28    27    2
    81    26    27    1
    82    26    29    1
    83     5     2    1
    84   118   117    1
    85   104   105    1
    86    15    16    2
    87    15    14    1
    88    29    30    1
    89   150   147    1
    90    37    36    2
    91   147   146    1
    92   147   148    1
    93   105   106    1
    94   105   108    1
    95     1     2    1
    96    14    17    1
    97    14    13    1
    98    17    19    1
    99    17    18    1
   100   117   116    1
   101   107   106    2
   102     2     3    1
   103    36    35    1
   104   116   113    1
   105    30    31    1
   106   115   114    2
   107    41    40   ar
   108   114   113    1
   109   108   109    1
   110   151   148   am
   111   151   152    1
   112   148   149    2
   113    31    32    1
   114     3     4    2
   115    39    40    1
   116    39    38    1
   117    40    42   ar
   118   133   132    2
   119   113   112    1
   120    35    38    1
   121    35    34    1
   122   109   110   ar
   123   109   111   ar
   124   132   131    1
   125   152   153    1
   126   152   155    1
   127    32    33    1
   128   124   123    2
   129   153   154    2
   130   131   130    1
   131   131   134    1
   132   155   156    1
   133   123   130   am
   134   123   122    1
   135   134   135    1
   136    11    10    1
   137    11    12    2
   138   156   157    2
   139   156   158   am
   140   136   135    2
   141    10     9    1
   142   122   121    1
   143   122   125    1
   144   135   137   am
   145   125   126    1
   146   126   127    1
   147   127   129   am
   148   127   128    2
