@<TRIPOS>MOLECULE
tmp/3o0iA00.pdb
 125 116 0 0 0
SMALL
GASTEIGER

@<TRIPOS>ATOM
      1  N          0.9510  -11.6160  -33.0730 N.3    33  LEU33      -0.1245
      2  CA         1.5010  -12.1330  -31.8270 C.3    33  LEU33       0.1561
      3  C          2.7850  -11.4080  -31.4380 C.2    33  LEU33       0.2260
      4  O          3.0060  -11.1140  -30.2570 O.2    33  LEU33      -0.2867
      5  CB         1.7170  -13.6480  -31.9170 C.3    33  LEU33       0.0270
      6  CG         0.4460  -14.4830  -32.1510 C.3    33  LEU33       0.0019
      7  CD1        0.7910  -15.9600  -32.2910 C.3    33  LEU33       0.0001
      8  CD2       -0.5850  -14.2800  -31.0470 C.3    33  LEU33       0.0001
      9  N          1.7840   -8.0760  -30.0070 N.3    36  ASN36      -0.1225
     10  CA         1.3740   -8.2290  -28.6150 C.3    36  ASN36       0.1785
     11  C          2.5710   -8.3600  -27.6780 C.2    36  ASN36       0.2597
     12  O          2.5880   -7.7680  -26.5990 O.2    36  ASN36      -0.2718
     13  CB         0.4320   -9.4230  -28.4500 C.3    36  ASN36       0.1169
     14  CG        -0.9540   -9.1620  -29.0240 C.2    36  ASN36       0.2627
     15  OD1       -1.3460   -8.0190  -29.2670 O.2    36  ASN36      -0.2716
     16  ND2       -1.7070  -10.2310  -29.2300 N.am   36  ASN36      -0.0877
     17  N          3.5770   -9.1210  -28.1070 N.am   37  SER37      -0.1952
     18  CA         4.8070   -9.2760  -27.3360 C.3    37  SER37       0.1924
     19  C          5.5310   -7.9420  -27.1740 C.2    37  SER37       0.2314
     20  O          5.9610   -7.5970  -26.0750 O.2    37  SER37      -0.2863
     21  CB         5.7250  -10.3020  -27.9930 C.3    37  SER37       0.2116
     22  OG         5.2150  -11.6140  -27.8260 O.3    37  SER37      -0.2180
     23  N          4.1690   -4.9650  -27.2840 N.3    39  ASP39      -0.1225
     24  CA         3.3760   -4.1570  -26.3540 C.3    39  ASP39       0.1805
     25  C          3.6470   -4.5590  -24.9010 C.2    39  ASP39       0.2597
     26  O          3.7480   -3.7050  -24.0200 O.2    39  ASP39      -0.2718
     27  CB         1.8780   -4.2780  -26.6550 C.3    39  ASP39       0.1424
     28  CG         1.4680   -3.6060  -27.9610 C.2    39  ASP39       0.3668
     29  OD1        2.2870   -2.8980  -28.5840 O.co2  39  ASP39      -0.2456
     30  OD2        0.3010   -3.7950  -28.3630 O.co2  39  ASP39      -0.2456
     31  N          3.7720   -5.8630  -24.6580 N.am   40  ALA40      -0.1979
     32  CA         4.0250   -6.3780  -23.3120 C.3    40  ALA40       0.1597
     33  C          5.4060   -5.9780  -22.7970 C.2    40  ALA40       0.2287
     34  O          5.5840   -5.7240  -21.5980 O.2    40  ALA40      -0.2864
     35  CB         3.8760   -7.8830  -23.2930 C.3    40  ALA40       0.0319
     36  N          5.3350   -2.3140  -21.9220 N.3    43  LYS43      -0.1245
     37  CA         4.6760   -2.0900  -20.6390 C.3    43  LYS43       0.1561
     38  C          5.5910   -2.3260  -19.4360 C.2    43  LYS43       0.2260
     39  O          5.6280   -1.4980  -18.5200 O.2    43  LYS43      -0.2867
     40  CB         3.3780   -2.8930  -20.5050 C.3    43  LYS43       0.0271
     41  CG         2.5200   -2.3920  -19.3510 C.3    43  LYS43       0.0035
     42  CD         1.1260   -2.9750  -19.3510 C.3    43  LYS43       0.0206
     43  CE         0.3390   -2.4350  -18.1680 C.3    43  LYS43       0.1093
     44  NZ        -1.0720   -2.8920  -18.1900 N.3    43  LYS43      -0.1314
     45  N          8.0480  -14.1300  -25.0710 N.3    78  ASP78      -0.1239
     46  CA         8.5180  -12.7900  -24.7120 C.3    78  ASP78       0.1674
     47  C          8.8010  -12.6990  -23.2240 C.2    78  ASP78       0.2266
     48  O          8.2660  -13.4770  -22.4290 O.2    78  ASP78      -0.2867
     49  CB         7.5410  -11.6950  -25.1760 C.3    78  ASP78       0.1410
     50  CG         6.2340  -11.6890  -24.3980 C.2    78  ASP78       0.3668
     51  OD1        6.2660  -11.4020  -23.1810 O.co2  78  ASP78      -0.2456
     52  OD2        5.1660  -11.9450  -25.0070 O.co2  78  ASP78      -0.2456
     53  N          5.4780   -8.0570  -19.6830 N.3    81  ILE81      -0.1231
     54  CA         4.8070   -7.9180  -18.3920 C.3    81  ILE81       0.1692
     55  C          4.1010   -9.1910  -17.9060 C.2    81  ILE81       0.2593
     56  O          3.8600   -9.3540  -16.7100 O.2    81  ILE81      -0.2718
     57  CB         3.8330   -6.6930  -18.3980 C.3    81  ILE81       0.0266
     58  CG1        3.3720   -6.3480  -16.9730 C.3    81  ILE81       0.0019
     59  CG2        2.6530   -6.9240  -19.3560 C.3    81  ILE81       0.0020
     60  CD1        3.0630   -4.8810  -16.7510 C.3    81  ILE81       0.0001
     61  N          3.7640  -10.0840  -18.8300 N.am   82  GLY82      -0.1942
     62  CA         3.0090  -11.2840  -18.4740 C.3    82  GLY82       0.2014
     63  C          1.5430  -11.0070  -18.1990 C.2    82  GLY82       0.2638
     64  O          1.0530   -9.8860  -18.3980 O.2    82  GLY82      -0.2714
     65  N          0.8380  -12.0340  -17.7340 N.am   83  MET83      -0.1976
     66  CA        -0.5970  -11.9310  -17.4860 C.3    83  MET83       0.1605
     67  C         -1.0000  -12.5350  -16.1580 C.2    83  MET83       0.2287
     68  O         -0.4560  -13.5600  -15.7400 O.2    83  MET83      -0.2864
     69  CB        -1.3850  -12.5990  -18.6110 C.3    83  MET83       0.0413
     70  CG        -1.4190  -11.7720  -19.8800 C.3    83  MET83       0.0598
     71  SD        -2.0680  -12.6320  -21.3140 S.3    83  MET83      -0.1393
     72  CE        -0.7490  -13.7840  -21.6310 C.3    83  MET83       0.0692
     73  N         -6.5250  -11.5290  -15.9620 N.3    87  ASP87      -0.1239
     74  CA        -6.3040  -11.2390  -17.3820 C.3    87  ASP87       0.1674
     75  C         -6.8310  -12.3900  -18.2370 C.2    87  ASP87       0.2266
     76  O         -7.6030  -12.1810  -19.1770 O.2    87  ASP87      -0.2867
     77  CB        -4.8120  -11.0670  -17.6870 C.3    87  ASP87       0.1410
     78  CG        -4.2740   -9.6950  -17.3240 C.2    87  ASP87       0.3668
     79  OD1       -5.0450   -8.7170  -17.2800 O.co2  87  ASP87      -0.2456
     80  OD2       -3.0500   -9.6030  -17.1100 O.co2  87  ASP87      -0.2456
     81  N         -9.0540   -9.6560  -20.4080 N.3    92  LEU92      -0.1245
     82  CA        -8.6500   -9.4990  -21.8050 C.3    92  LEU92       0.1561
     83  C         -9.8130   -9.7650  -22.7570 C.2    92  LEU92       0.2260
     84  O         -9.9900   -9.0540  -23.7450 O.2    92  LEU92      -0.2867
     85  CB        -7.4420  -10.3800  -22.1280 C.3    92  LEU92       0.0270
     86  CG        -6.1790  -10.0390  -21.3320 C.3    92  LEU92       0.0019
     87  CD1       -5.1150  -11.0770  -21.5870 C.3    92  LEU92       0.0001
     88  CD2       -5.6570   -8.6300  -21.6460 C.3    92  LEU92       0.0001
     89  N         -4.7660  -11.3950  -31.2050 N.3   123  PHE123     -0.1227
     90  CA        -4.4450  -12.6880  -30.5970 C.3   123  PHE123      0.1736
     91  C         -5.2280  -13.8280  -31.2360 C.2   123  PHE123      0.2595
     92  O         -4.6700  -14.8890  -31.5180 O.2   123  PHE123     -0.2718
     93  CB        -4.7090  -12.6800  -29.0910 C.3   123  PHE123      0.0547
     94  CG        -4.6300  -14.0450  -28.4560 C.ar  123  PHE123     -0.0202
     95  CD1       -3.3980  -14.6570  -28.2490 C.ar  123  PHE123     -0.0042
     96  CD2       -5.7860  -14.7240  -28.0820 C.ar  123  PHE123     -0.0042
     97  CE1       -3.3230  -15.9250  -27.6690 C.ar  123  PHE123     -0.0003
     98  CE2       -5.7210  -15.9930  -27.5030 C.ar  123  PHE123     -0.0003
     99  CZ        -4.4890  -16.5930  -27.2970 C.ar  123  PHE123     -0.0000
    100  N         -6.5220  -13.6100  -31.4530 N.am  124  TYR124     -0.1976
    101  CA        -7.3940  -14.6880  -31.9080 C.3   124  TYR124      0.1639
    102  C         -7.0950  -15.1410  -33.3370 C.2   124  TYR124      0.2290
    103  O         -7.5370  -16.2140  -33.7490 O.2   124  TYR124     -0.2864
    104  CB        -8.8700  -14.3250  -31.7010 C.3   124  TYR124      0.0560
    105  CG        -9.1830  -13.9700  -30.2600 C.ar  124  TYR124     -0.0198
    106  CD1       -9.4750  -14.9640  -29.3190 C.ar  124  TYR124     -0.0009
    107  CD2       -9.1680  -12.6400  -29.8300 C.ar  124  TYR124     -0.0009
    108  CE1       -9.7440  -14.6390  -27.9880 C.ar  124  TYR124      0.0417
    109  CE2       -9.4380  -12.3070  -28.5050 C.ar  124  TYR124      0.0417
    110  CZ        -9.7280  -13.3090  -27.5920 C.ar  124  TYR124      0.1957
    111  OH        -9.9970  -12.9620  -26.2860 O.3   124  TYR124     -0.2866
    112  N          5.5390  -14.2550  -21.3290 N.3   169  THR169     -0.1218
    113  CA         4.4880  -15.0600  -21.9360 C.3   169  THR169      0.1862
    114  C          5.0510  -15.9440  -23.0390 C.2   169  THR169      0.2287
    115  O          5.9040  -15.5140  -23.8270 O.2   169  THR169     -0.2866
    116  CB         3.3800  -14.1510  -22.5040 C.3   169  THR169      0.1770
    117  OG1        2.8160  -13.3700  -21.4420 O.3   169  THR169     -0.2211
    118  CG2        2.2770  -14.9710  -23.1790 C.3   169  THR169      0.0375
    119  N          3.3730  -18.1500  -26.0910 N.3   171  VAL171     -0.1245
    120  CA         2.2060  -18.5630  -26.8630 C.3   171  VAL171      0.1561
    121  C          2.6250  -19.7500  -27.7210 C.2   171  VAL171      0.2260
    122  O          3.4360  -19.6120  -28.6440 O.2   171  VAL171     -0.2867
    123  CB         1.6450  -17.4140  -27.7550 C.3   171  VAL171      0.0252
    124  CG1        0.4750  -17.9160  -28.6020 C.3   171  VAL171      0.0019
    125  CG2        1.2060  -16.2210  -26.9000 C.3   171  VAL171      0.0019
@<TRIPOS>BOND
     1   103   102    2
     2   102   101    1
     3     1     2    1
     4     7     6    1
     5     6     5    1
     6     6     8    1
     7     5     2    1
     8   101   104    1
     9   101   100    1
    10     2     3    1
    11   104   105    1
    12    92    91    2
    13   100    91   am
    14     3     4    2
    15    91    90    1
    16    89    90    1
    17    90    93    1
    18   105   107   ar
    19   105   106   ar
    20     9    10    1
    21   107   109   ar
    22   106   108   ar
    23    15    14    2
    24    16    14   am
    25    93    94    1
    26    14    13    1
    27   122   121    2
    28    10    13    1
    29    10    11    1
    30   124   123    1
    31    29    28   ar
    32   109   110   ar
    33    94    95   ar
    34    94    96   ar
    35    30    28   ar
    36    95    97   ar
    37    17    11   am
    38    17    18    1
    39    96    98   ar
    40    21    22    1
    41    21    18    1
    42   108   110   ar
    43    28    27    1
    44   123   125    1
    45   123   120    1
    46   121   120    1
    47    11    12    2
    48    97    99   ar
    49   110   111    1
    50    98    99   ar
    51    18    19    1
    52    23    24    1
    53    19    20    2
    54   120   119    1
    55    27    24    1
    56    24    25    1
    57    49    46    1
    58    49    50    1
    59    45    46    1
    60    52    50   ar
    61    25    31   am
    62    25    26    2
    63    46    47    1
    64    31    32    1
    65    50    51   ar
    66   115   114    2
    67    84    83    2
    68    32    35    1
    69    32    33    1
    70    47    48    2
    71   118   116    1
    72   114   113    1
    73    33    34    2
    74    83    82    1
    75   116   113    1
    76   116   117    1
    77    85    82    1
    78    85    86    1
    79   113   112    1
    80    36    37    1
    81    82    81    1
    82    88    86    1
    83    72    71    1
    84    87    86    1
    85    71    70    1
    86    37    40    1
    87    37    38    1
    88    40    41    1
    89    70    69    1
    90    53    54    1
    91    38    39    2
    92    59    57    1
    93    41    42    1
    94    42    43    1
    95    76    75    2
    96    61    62    1
    97    61    55   am
    98    69    66    1
    99    62    63    1
   100    64    63    2
   101    57    54    1
   102    57    58    1
   103    54    55    1
   104    75    74    1
   105    63    65   am
   106    44    43    1
   107    55    56    2
   108    65    66    1
   109    77    74    1
   110    77    78    1
   111    66    67    1
   112    74    73    1
   113    78    79   ar
   114    78    80   ar
   115    58    60    1
   116    67    68    2
