@<TRIPOS>MOLECULE
tmp/3o0jA00.pdb
 175 166 0 0 0
SMALL
GASTEIGER

@<TRIPOS>ATOM
      1  N        -44.1000   81.9170  116.7550 N.3    72  TYR72      -0.1227
      2  CA       -43.7840   83.0760  117.6140 C.3    72  TYR72       0.1736
      3  C        -44.9870   83.5730  118.4170 C.2    72  TYR72       0.2595
      4  O        -44.9000   83.7610  119.6160 O.2    72  TYR72      -0.2718
      5  CB       -43.2500   84.2190  116.7840 C.3    72  TYR72       0.0548
      6  CG       -42.8760   85.4460  117.5850 C.ar   72  TYR72      -0.0200
      7  CD1      -41.5920   85.6160  118.0890 C.ar   72  TYR72      -0.0009
      8  CD2      -43.8020   86.4530  117.8180 C.ar   72  TYR72      -0.0009
      9  CE1      -41.2560   86.7710  118.8190 C.ar   72  TYR72       0.0417
     10  CE2      -43.4710   87.5900  118.5370 C.ar   72  TYR72       0.0417
     11  CZ       -42.1920   87.7510  119.0260 C.ar   72  TYR72       0.1957
     12  OH       -41.8850   88.9000  119.7490 O.3    72  TYR72      -0.2866
     13  N        -46.1190   83.7590  117.7660 N.am   73  HIS73      -0.1975
     14  CA       -47.2890   84.2720  118.4780 C.3    73  HIS73       0.1656
     15  C        -48.0500   83.1830  119.2150 C.2    73  HIS73       0.2291
     16  O        -49.2350   82.9120  118.9600 O.2    73  HIS73      -0.2864
     17  CB       -48.1710   85.0420  117.5260 C.3    73  HIS73       0.0771
     18  CG       -47.5480   86.3180  117.0620 C.ar   73  HIS73       0.0820
     19  ND1      -47.0020   86.4690  115.8090 N.ar   73  HIS73      -0.2267
     20  CD2      -47.3760   87.4980  117.6970 C.ar   73  HIS73       0.1154
     21  CE1      -46.5140   87.6950  115.6960 C.ar   73  HIS73       0.1986
     22  NE2      -46.7300   88.3390  116.8300 N.ar   73  HIS73      -0.2212
     23  N        -44.7130   84.0010  123.9760 N.3    77  HIS77      -0.1241
     24  CA       -44.6020   85.4380  123.6500 C.3    77  HIS77       0.1621
     25  C        -45.4720   86.2880  124.5600 C.2    77  HIS77       0.2264
     26  O        -45.0570   87.3530  125.0400 O.2    77  HIS77      -0.2867
     27  CB       -44.9350   85.6790  122.1750 C.3    77  HIS77       0.0745
     28  CG       -45.1330   87.1280  121.8100 C.ar   77  HIS77       0.0817
     29  ND1      -44.1170   88.0600  121.8530 N.ar   77  HIS77      -0.2268
     30  CD2      -46.2390   87.7960  121.3920 C.ar   77  HIS77       0.1154
     31  CE1      -44.5870   89.2390  121.4690 C.ar   77  HIS77       0.1986
     32  NE2      -45.8750   89.1080  121.1930 N.ar   77  HIS77      -0.2212
     33  N        -52.2240   88.9420  122.1050 N.3   114  ASP114     -0.1239
     34  CA       -52.1430   88.1840  120.8600 C.3   114  ASP114      0.1674
     35  C        -52.9430   86.8700  120.9210 C.2   114  ASP114      0.2266
     36  O        -52.7400   85.9980  120.1030 O.2   114  ASP114     -0.2867
     37  CB       -50.6920   87.8360  120.5120 C.3   114  ASP114      0.1410
     38  CG       -49.9310   88.9770  119.8460 C.2   114  ASP114      0.3668
     39  OD1      -50.5140   89.7860  119.0820 O.co2 114  ASP114     -0.2456
     40  OD2      -48.7050   89.0160  120.0770 O.co2 114  ASP114     -0.2456
     41  N        -53.9560   84.1310  117.8910 N.3   117  HIS117     -0.1241
     42  CA       -53.2600   84.6300  116.7270 C.3   117  HIS117      0.1621
     43  C        -53.1050   83.5000  115.7120 C.2   117  HIS117      0.2264
     44  O        -52.6240   82.4340  116.0580 O.2   117  HIS117     -0.2867
     45  CB       -51.8780   85.1620  117.1360 C.3   117  HIS117      0.0745
     46  CG       -51.2930   86.1440  116.1800 C.ar  117  HIS117      0.0817
     47  ND1      -50.8060   85.7840  114.9440 N.ar  117  HIS117     -0.2268
     48  CD2      -51.0790   87.4750  116.2950 C.ar  117  HIS117      0.1154
     49  CE1      -50.3300   86.8530  114.3340 C.ar  117  HIS117      0.1986
     50  NE2      -50.4840   87.8920  115.1320 N.ar  117  HIS117     -0.2212
     51  N        -50.0960   88.1380  109.2800 N.3   121  SER121     -0.1217
     52  CA       -50.2350   89.5480  109.6060 C.3   121  SER121      0.1889
     53  C        -51.6220   90.0670  109.2590 C.2   121  SER121      0.2288
     54  O        -52.3600   89.4220  108.5290 O.2   121  SER121     -0.2866
     55  CB       -49.2240   90.3510  108.8150 C.3   121  SER121      0.2089
     56  OG       -49.5930   90.3350  107.4540 O.3   121  SER121     -0.2183
     57  N        -56.2410   91.9620  113.7730 N.3   142  LEU142     -0.1231
     58  CA       -55.9390   90.9220  114.7440 C.3   142  LEU142      0.1693
     59  C        -56.1120   91.4540  116.1390 C.2   142  LEU142      0.2591
     60  O        -56.5900   90.7540  117.0170 O.2   142  LEU142     -0.2718
     61  CB       -54.5470   90.3190  114.5250 C.3   142  LEU142      0.0284
     62  CG       -54.5590   89.2550  113.4240 C.3   142  LEU142      0.0019
     63  CD1      -53.1680   88.7770  113.1010 C.3   142  LEU142      0.0001
     64  CD2      -55.4270   88.0720  113.8240 C.3   142  LEU142      0.0001
     65  N        -55.8100   92.7350  116.3340 N.am  143  GLU143     -0.1979
     66  CA       -55.8390   93.3120  117.6580 C.3   143  GLU143      0.1602
     67  C        -57.2660   93.4440  118.1620 C.2   143  GLU143      0.2287
     68  O        -57.5210   93.2270  119.3460 O.2   143  GLU143     -0.2864
     69  CB       -55.1220   94.6590  117.6860 C.3   143  GLU143      0.0415
     70  CG       -53.5970   94.5610  117.4170 C.3   143  GLU143      0.1163
     71  CD       -53.2580   94.3940  115.9480 C.2   143  GLU143      0.3649
     72  OE1      -54.1340   94.6360  115.0960 O.co2 143  GLU143     -0.2457
     73  OE2      -52.1300   93.9820  115.6340 O.co2 143  GLU143     -0.2457
     74  N        -50.6740   97.8170  120.1400 N.3   184  THR184     -0.1218
     75  CA       -49.7580   96.8360  119.5970 C.3   184  THR184      0.1862
     76  C        -49.9510   96.6870  118.0830 C.2   184  THR184      0.2287
     77  O        -49.2440   95.9340  117.4640 O.2   184  THR184     -0.2866
     78  CB       -49.9200   95.4600  120.3100 C.3   184  THR184      0.1770
     79  OG1      -51.2530   94.9650  120.1180 O.3   184  THR184     -0.2211
     80  CG2      -49.6660   95.6020  121.7750 C.3   184  THR184      0.0375
     81  N        -49.1250   97.8620  114.7120 N.3   186  MET186     -0.1245
     82  CA       -48.0210   98.6560  114.1390 C.3   186  MET186      0.1570
     83  C        -48.4930   99.8810  113.3490 C.2   186  MET186      0.2261
     84  O        -47.7550  100.8490  113.2030 O.2   186  MET186     -0.2867
     85  CB       -47.1590   97.8080  113.2220 C.3   186  MET186      0.0387
     86  CG       -46.0220   97.0820  113.9020 C.3   186  MET186      0.0595
     87  SD       -44.8480   98.1370  114.7850 S.3   186  MET186     -0.1393
     88  CE       -44.6600   99.4920  113.6560 C.3   186  MET186      0.0692
     89  N        -46.6310   98.6610  124.1470 N.3   228  HIS228     -0.1241
     90  CA       -46.0300   98.6100  122.8240 C.3   228  HIS228      0.1621
     91  C        -44.5160   98.3760  122.9630 C.2   228  HIS228      0.2264
     92  O        -43.9540   97.5900  122.2400 O.2   228  HIS228     -0.2867
     93  CB       -46.3230   99.9280  122.1040 C.3   228  HIS228      0.0745
     94  CG       -45.7490  100.0500  120.7240 C.ar  228  HIS228      0.0817
     95  ND1      -45.8820   99.0770  119.7510 N.ar  228  HIS228     -0.2268
     96  CD2      -45.1210  101.0910  120.1280 C.ar  228  HIS228      0.1154
     97  CE1      -45.3150   99.4970  118.6360 C.ar  228  HIS228      0.1986
     98  NE2      -44.8590  100.7260  118.8340 N.ar  228  HIS228     -0.2212
     99  N        -44.0330   94.6850  123.9370 N.3   231  ASP231     -0.1225
    100  CA       -44.2810   93.8780  122.7370 C.3   231  ASP231      0.1805
    101  C        -43.0620   93.8860  121.7970 C.2   231  ASP231      0.2597
    102  O        -42.7130   92.8560  121.2220 O.2   231  ASP231     -0.2718
    103  CB       -45.5410   94.3890  122.0160 C.3   231  ASP231      0.1424
    104  CG       -46.0840   93.4160  120.9870 C.2   231  ASP231      0.3668
    105  OD1      -45.8670   92.1760  121.1050 O.co2 231  ASP231     -0.2456
    106  OD2      -46.7470   93.9080  120.0570 O.co2 231  ASP231     -0.2456
    107  N        -42.3890   95.0350  121.7030 N.am  232  LEU232     -0.1979
    108  CA       -41.1800   95.1800  120.8820 C.3   232  LEU232      0.1596
    109  C        -39.8810   95.1530  121.6990 C.2   232  LEU232      0.2287
    110  O        -38.8850   95.7720  121.3180 O.2   232  LEU232     -0.2864
    111  CB       -41.2610   96.4800  120.0490 C.3   232  LEU232      0.0297
    112  CG       -42.4450   96.6330  119.0780 C.3   232  LEU232      0.0022
    113  CD1      -42.2910   97.9140  118.2900 C.3   232  LEU232      0.0001
    114  CD2      -42.5750   95.4530  118.1490 C.3   232  LEU232      0.0001
    115  N        -39.5590   84.2110  115.0920 N.3   249  ILE249     -0.1245
    116  CA       -40.2970   85.1570  114.2630 C.3   249  ILE249      0.1561
    117  C        -40.0460   84.8990  112.7870 C.2   249  ILE249      0.2260
    118  O        -40.9760   84.9540  111.9940 O.2   249  ILE249     -0.2867
    119  CB       -40.0160   86.6270  114.6350 C.3   249  ILE249      0.0252
    120  CG1      -41.0560   87.5500  113.9970 C.3   249  ILE249      0.0019
    121  CG2      -38.6410   87.0510  114.1870 C.3   249  ILE249      0.0019
    122  CD1      -42.4520   87.4330  114.5750 C.3   249  ILE249      0.0001
    123  N        -42.5450   84.0910  109.8870 N.3   253  PHE253     -0.1241
    124  CA       -42.5490   84.8930  108.6630 C.3   253  PHE253      0.1605
    125  C        -42.4770   84.0090  107.4330 C.2   253  PHE253      0.2264
    126  O        -43.1730   84.2410  106.4500 O.2   253  PHE253     -0.2867
    127  CB       -41.3800   85.8830  108.6530 C.3   253  PHE253      0.0534
    128  CG       -41.6490   87.1620  109.4100 C.ar  253  PHE253     -0.0203
    129  CD1      -42.5790   87.2160  110.4360 C.ar  253  PHE253     -0.0042
    130  CD2      -40.9470   88.3100  109.1070 C.ar  253  PHE253     -0.0042
    131  CE1      -42.8120   88.3960  111.1180 C.ar  253  PHE253     -0.0003
    132  CE2      -41.1740   89.4890  109.7980 C.ar  253  PHE253     -0.0003
    133  CZ       -42.1000   89.5290  110.8000 C.ar  253  PHE253     -0.0000
    134  N        -39.6360   90.2310  104.0580 N.3   270  MET270     -0.1245
    135  CA       -38.9560   89.3510  105.0170 C.3   270  MET270      0.1570
    136  C        -39.5600   87.9390  105.1400 C.2   270  MET270      0.2261
    137  O        -39.1110   87.1410  105.9680 O.2   270  MET270     -0.2867
    138  CB       -38.8780   90.0140  106.3960 C.3   270  MET270      0.0387
    139  CG       -38.3230   91.4290  106.3560 C.3   270  MET270      0.0595
    140  SD       -38.6850   92.3430  107.8460 S.3   270  MET270     -0.1393
    141  CE       -40.4380   92.6400  107.6210 C.3   270  MET270      0.0692
    142  N        -32.9760   92.2950  108.2520 N.3   281  SER281     -0.1202
    143  CA       -34.3330   92.6190  108.6900 C.3   281  SER281      0.2020
    144  C        -34.3790   93.1170  110.1170 C.2   281  SER281      0.2618
    145  O        -35.1460   94.0200  110.4350 O.2   281  SER281     -0.2717
    146  CB       -35.2280   91.3870  108.6170 C.3   281  SER281      0.2103
    147  OG       -35.2260   90.8570  107.3210 O.3   281  SER281     -0.2182
    148  N        -33.5710   92.5200  110.9810 N.am  282  GLN282     -0.1979
    149  CA       -33.5940   92.8880  112.3870 C.3   282  GLN282      0.1601
    150  C        -32.9910   94.2800  112.5530 C.2   282  GLN282      0.2287
    151  O        -33.5390   95.1180  113.2580 O.2   282  GLN282     -0.2864
    152  CB       -32.8850   91.8360  113.2380 C.3   282  GLN282      0.0394
    153  CG       -33.6840   90.5160  113.3930 C.3   282  GLN282      0.0908
    154  CD       -35.0900   90.7320  113.9340 C.2   282  GLN282      0.2608
    155  OE1      -35.2780   91.3340  114.9920 O.2   282  GLN282     -0.2717
    156  NE2      -36.0840   90.2510  113.2060 N.am  282  GLN282     -0.0878
    157  N        -35.4080   96.8880  111.2230 N.3   285  PHE285     -0.1241
    158  CA       -36.4980   97.0060  112.1880 C.3   285  PHE285      0.1605
    159  C        -36.0580   97.7900  113.4150 C.2   285  PHE285      0.2264
    160  O        -36.7820   98.6470  113.8910 O.2   285  PHE285     -0.2867
    161  CB       -36.9980   95.6150  112.6050 C.3   285  PHE285      0.0534
    162  CG       -38.2490   95.6480  113.4540 C.ar  285  PHE285     -0.0203
    163  CD1      -39.3720   96.3480  113.0350 C.ar  285  PHE285     -0.0042
    164  CD2      -38.3010   94.9790  114.6600 C.ar  285  PHE285     -0.0042
    165  CE1      -40.5120   96.3880  113.8030 C.ar  285  PHE285     -0.0003
    166  CE2      -39.4560   95.0140  115.4340 C.ar  285  PHE285     -0.0003
    167  CZ       -40.5510   95.7220  115.0010 C.ar  285  PHE285     -0.0000
    168  N        -37.8760  101.3680  113.7910 N.3   289  ILE289     -0.1245
    169  CA       -38.9750  101.2720  114.7440 C.3   289  ILE289      0.1561
    170  C        -38.5150  101.1320  116.1850 C.2   289  ILE289      0.2260
    171  O        -38.8480  101.9590  117.0130 O.2   289  ILE289     -0.2867
    172  CB       -39.9080  100.0700  114.4200 C.3   289  ILE289      0.0252
    173  CG1      -40.4790  100.1870  112.9950 C.3   289  ILE289      0.0019
    174  CG2      -41.0230   99.9780  115.4520 C.3   289  ILE289      0.0019
    175  CD1      -41.3830  101.3920  112.7620 C.3   289  ILE289      0.0001
@<TRIPOS>BOND
     1   134   135    1
     2   135   136    1
     3   135   138    1
     4   136   137    2
     5   139   138    1
     6   139   140    1
     7   126   125    2
     8   147   146    1
     9   125   124    1
    10    56    55    1
    11   141   140    1
    12   142   143    1
    13    54    53    2
    14   146   143    1
    15   127   124    1
    16   127   128    1
    17   124   123    1
    18   143   144    1
    19    55    52    1
    20   130   128   ar
    21   130   132   ar
    22    53    52    1
    23    51    52    1
    24   128   129   ar
    25   132   133   ar
    26   144   145    2
    27   144   148   am
    28   129   131   ar
    29   133   131   ar
    30   148   149    1
    31   157   158    1
    32   118   117    2
    33   158   161    1
    34   158   159    1
    35   149   150    1
    36   149   152    1
    37   150   151    2
    38   161   162    1
    39   175   173    1
    40   117   116    1
    41   173   172    1
    42   163   162   ar
    43   163   165   ar
    44    63    62    1
    45    84    83    2
    46   156   154   am
    47    85    86    1
    48    85    82    1
    49   152   153    1
    50    83    82    1
    51   153   154    1
    52   159   160    2
    53    62    64    1
    54    62    61    1
    55   162   164   ar
    56    88    87    1
    57    57    58    1
    58   168   169    1
    59   165   167   ar
    60    86    87    1
    61   154   155    2
    62   120   122    1
    63   120   119    1
    64    82    81    1
    65   121   119    1
    66   116   119    1
    67   116   115    1
    68    49    47   ar
    69    49    50   ar
    70   172   169    1
    71   172   174    1
    72    61    58    1
    73   164   166   ar
    74   169   170    1
    75    58    59    1
    76    47    46   ar
    77   167   166   ar
    78    72    71   ar
    79    50    48   ar
    80    73    71   ar
    81    21    19   ar
    82    21    22   ar
    83    43    44    2
    84    43    42    1
    85    19    18   ar
    86    71    70    1
    87    59    65   am
    88    59    60    2
    89    46    48   ar
    90    46    45    1
    91   170   171    2
    92    65    66    1
    93    42    45    1
    94    42    41    1
    95     1     2    1
    96     5     6    1
    97     5     2    1
    98    22    20   ar
    99    18    17    1
   100    18    20   ar
   101    70    69    1
   102    77    76    2
   103    17    14    1
   104     6     8   ar
   105     6     7   ar
   106     2     3    1
   107    66    69    1
   108    66    67    1
   109    13     3   am
   110    13    14    1
   111     8    10   ar
   112    76    75    1
   113     7     9   ar
   114   114   112    1
   115    67    68    2
   116   113   112    1
   117     3     4    2
   118    14    15    1
   119    10    11   ar
   120    97    98   ar
   121    97    95   ar
   122     9    11   ar
   123    98    96   ar
   124    16    15    2
   125    11    12    1
   126   112   111    1
   127    39    38   ar
   128    75    74    1
   129    75    78    1
   130    95    94   ar
   131    38    40   ar
   132    38    37    1
   133   111   108    1
   134   106   104   ar
   135    36    35    2
   136    79    78    1
   137    96    94   ar
   138    78    80    1
   139    37    34    1
   140    94    93    1
   141    34    35    1
   142    34    33    1
   143   108   109    1
   144   108   107    1
   145   104   105   ar
   146   104   103    1
   147    32    30   ar
   148    32    31   ar
   149   102   101    2
   150   110   109    2
   151    30    28   ar
   152    31    29   ar
   153   107   101   am
   154   101   100    1
   155    28    29   ar
   156    28    27    1
   157   103   100    1
   158    93    90    1
   159    27    24    1
   160    92    91    2
   161   100    99    1
   162    90    91    1
   163    90    89    1
   164    24    23    1
   165    24    25    1
   166    25    26    2
