@<TRIPOS>MOLECULE
tmp/3o0mA00.pdb
 183 178 0 0 0
SMALL
GASTEIGER

@<TRIPOS>ATOM
      1  N        -16.1550   46.4960   14.4000 N.3     6  VAL6       -0.1231
      2  CA       -15.1370   46.2480   15.4290 C.3     6  VAL6        0.1692
      3  C        -13.9620   47.2260   15.3390 C.2     6  VAL6        0.2592
      4  O        -13.3710   47.5950   16.3650 O.2     6  VAL6       -0.2718
      5  CB       -14.6160   44.7760   15.3990 C.3     6  VAL6        0.0266
      6  CG1      -13.8280   44.4720   14.1040 C.3     6  VAL6        0.0020
      7  CG2      -13.7650   44.4910   16.6370 C.3     6  VAL6        0.0020
      8  N        -13.6170   47.6570   14.1230 N.am    7  PHE7       -0.1976
      9  CA       -12.5140   48.6220   13.9700 C.3     7  PHE7        0.1639
     10  C        -12.9420   50.0230   14.3940 C.2     7  PHE7        0.2290
     11  O        -12.1550   50.7330   15.0110 O.2     7  PHE7       -0.2864
     12  CB       -11.9540   48.6290   12.5400 C.3     7  PHE7        0.0560
     13  CG       -11.0640   47.4490   12.2050 C.ar    7  PHE7       -0.0200
     14  CD1      -10.8350   46.4070   13.1040 C.ar    7  PHE7       -0.0042
     15  CD2      -10.4560   47.3860   10.9650 C.ar    7  PHE7       -0.0042
     16  CE1      -10.0260   45.3460   12.7680 C.ar    7  PHE7       -0.0003
     17  CE2       -9.6310   46.3200   10.6190 C.ar    7  PHE7       -0.0003
     18  CZ        -9.4290   45.2910   11.5070 C.ar    7  PHE7       -0.0000
     19  N        -12.7750   49.8960   18.2150 N.3    10  ILE10      -0.1245
     20  CA       -11.4060   50.0310   18.7110 C.3    10  ILE10       0.1561
     21  C        -10.9510   51.4930   18.6320 C.2    10  ILE10       0.2260
     22  O        -10.4030   52.0210   19.5970 O.2    10  ILE10      -0.2867
     23  CB       -10.4420   49.1130   17.9630 C.3    10  ILE10       0.0252
     24  CG1      -10.7130   47.6430   18.3300 C.3    10  ILE10       0.0019
     25  CG2       -8.9900   49.4460   18.3140 C.3    10  ILE10       0.0019
     26  CD1      -10.1000   46.6440   17.3520 C.3    10  ILE10       0.0001
     27  N        -11.1510   46.2620   22.8600 N.3    16  PRO16      -0.2102
     28  CA        -9.7300   46.1990   23.2020 C.3    16  PRO16       0.1504
     29  C         -8.7990   46.0910   21.9850 C.2    16  PRO16       0.2575
     30  O         -9.1730   45.5550   20.9450 O.2    16  PRO16      -0.2718
     31  CB        -9.6300   44.9510   24.0860 C.3    16  PRO16       0.0282
     32  CG       -10.7560   44.0840   23.6700 C.3    16  PRO16       0.0208
     33  CD       -11.8740   45.0550   23.3100 C.3    16  PRO16       0.0893
     34  N         -7.5960   46.6250   22.1380 N.am   17  ALA17      -0.1980
     35  CA        -6.5410   46.4670   21.1430 C.3    17  ALA17       0.1597
     36  C         -5.1990   46.7060   21.8150 C.2    17  ALA17       0.2287
     37  O         -5.1260   47.4550   22.7920 O.2    17  ALA17      -0.2864
     38  CB        -6.7260   47.4840   19.9850 C.3    17  ALA17       0.0319
     39  N         -2.6630   48.9840   15.2670 N.3    29  ILE29      -0.1231
     40  CA        -2.8500   47.9960   16.3250 C.3    29  ILE29       0.1692
     41  C         -2.2610   46.6600   15.9000 C.2    29  ILE29       0.2592
     42  O         -2.0910   46.4000   14.7000 O.2    29  ILE29      -0.2718
     43  CB        -4.3470   47.7890   16.6620 C.3    29  ILE29       0.0266
     44  CG1       -5.0980   47.1210   15.5000 C.3    29  ILE29       0.0019
     45  CG2       -5.0300   49.1190   17.0140 C.3    29  ILE29       0.0020
     46  CD1       -6.5480   46.7900   15.8300 C.3    29  ILE29       0.0001
     47  N         -2.0160   45.7830   16.8710 N.am   30  LEU30      -0.1966
     48  CA        -1.6190   44.4210   16.5420 C.3    30  LEU30       0.1728
     49  C         -2.8210   43.6060   16.0790 C.2    30  LEU30       0.2616
     50  O         -3.9100   43.6920   16.6520 O.2    30  LEU30      -0.2715
     51  CB        -0.9340   43.7370   17.7210 C.3    30  LEU30       0.0311
     52  CG         0.3840   44.3520   18.1770 C.3    30  LEU30       0.0022
     53  CD1        0.9830   43.4920   19.2920 C.3    30  LEU30       0.0001
     54  CD2        1.3770   44.4990   17.0230 C.3    30  LEU30       0.0001
     55  N         -2.6240   42.8390   15.0120 N.am   31  ASP31      -0.1957
     56  CA        -3.6270   41.8670   14.5730 C.3    31  ASP31       0.1840
     57  C         -3.8250   40.8380   15.6960 C.2    31  ASP31       0.2622
     58  O         -2.8700   40.4840   16.3970 O.2    31  ASP31      -0.2715
     59  CB        -3.1660   41.1930   13.2740 C.3    31  ASP31       0.1450
     60  CG        -4.3060   40.5770   12.4980 C.2    31  ASP31       0.3671
     61  OD1       -4.9380   39.6160   12.9830 O.co2  31  ASP31      -0.2456
     62  OD2       -4.5850   41.0580   11.3850 O.co2  31  ASP31      -0.2456
     63  N         -5.0630   40.3850   15.8880 N.am   32  ILE32      -0.1963
     64  CA        -5.3420   39.3370   16.8700 C.3    32  ILE32       0.1727
     65  C         -5.0230   37.9470   16.3480 C.2    32  ILE32       0.2616
     66  O         -4.9370   37.0150   17.1400 O.2    32  ILE32      -0.2715
     67  CB        -6.8040   39.3400   17.4030 C.3    32  ILE32       0.0290
     68  CG1       -7.8240   39.1860   16.2700 C.3    32  ILE32       0.0022
     69  CG2       -7.0580   40.5850   18.2410 C.3    32  ILE32       0.0023
     70  CD1       -9.2690   38.9930   16.7590 C.3    32  ILE32       0.0001
     71  N         -4.8740   37.8020   15.0320 N.am   33  ARG33      -0.1977
     72  CA        -4.4590   36.5230   14.4260 C.3    33  ARG33       0.1597
     73  C         -3.1940   36.7550   13.5930 C.2    33  ARG33       0.2287
     74  O         -3.2370   36.7170   12.3590 O.2    33  ARG33      -0.2864
     75  CB        -5.5860   35.9310   13.5680 C.3    33  ARG33       0.0334
     76  CG        -6.9590   35.8770   14.2370 C.3    33  ARG33       0.0492
     77  CD        -6.9530   35.1800   15.5470 C.3    33  ARG33       0.2205
     78  NE        -6.4590   33.8130   15.5060 N.pl3  33  ARG33      -0.0865
     79  CZ        -7.1380   32.7150   15.2090 C.cat  33  ARG33       0.5346
     80  NH1       -8.4520   32.7070   14.9410 N.pl3  33  ARG33       0.1354
     81  NH2       -6.5060   31.5460   15.0680 N.pl3  33  ARG33       0.1354
     82  N          0.1360   36.6970   11.4400 N.3    35  PHE35      -0.1241
     83  CA         0.9420   35.8190   10.6070 C.3    35  PHE35       0.1605
     84  C          2.3580   35.6960   11.1760 C.2    35  PHE35       0.2264
     85  O          2.9660   34.6320   11.1110 O.2    35  PHE35      -0.2867
     86  CB         0.9750   36.3330    9.1620 C.3    35  PHE35       0.0534
     87  CG        -0.2030   35.8680    8.3260 C.ar   35  PHE35      -0.0203
     88  CD1       -1.4610   36.4110    8.5130 C.ar   35  PHE35      -0.0042
     89  CD2       -0.0600   34.8450    7.4000 C.ar   35  PHE35      -0.0042
     90  CE1       -2.5580   35.9730    7.7590 C.ar   35  PHE35      -0.0003
     91  CE2       -1.1510   34.4030    6.6400 C.ar   35  PHE35      -0.0003
     92  CZ        -2.3950   34.9710    6.8220 C.ar   35  PHE35      -0.0000
     93  N          2.7650   41.6650   13.5530 N.3    39  HIS39      -0.1241
     94  CA         1.7830   41.8730   12.4820 C.3    39  HIS39       0.1621
     95  C          0.8050   42.9650   12.9040 C.2    39  HIS39       0.2264
     96  O          0.0680   42.8190   13.8800 O.2    39  HIS39      -0.2867
     97  CB         1.0530   40.5780   12.2030 C.3    39  HIS39       0.0745
     98  CG         0.0130   40.6520   11.1260 C.ar   39  HIS39       0.0817
     99  ND1       -0.6360   39.5270   10.6720 N.ar   39  HIS39      -0.2268
    100  CD2       -0.4940   41.6910   10.4150 C.ar   39  HIS39       0.1154
    101  CE1       -1.5060   39.8690    9.7360 C.ar   39  HIS39       0.1986
    102  NE2       -1.4440   41.1750    9.5650 N.ar   39  HIS39      -0.2212
    103  N         -2.0000   46.1990   11.9150 N.3    41  LEU41      -0.1245
    104  CA        -3.0310   46.7780   11.0700 C.3    41  LEU41       0.1561
    105  C         -3.0220   48.2930   11.2110 C.2    41  LEU41       0.2260
    106  O         -3.0880   48.8180   12.3340 O.2    41  LEU41      -0.2867
    107  CB        -4.4210   46.2750   11.4670 C.3    41  LEU41       0.0270
    108  CG        -4.6620   44.7640   11.4850 C.3    41  LEU41       0.0019
    109  CD1       -6.1050   44.4460   11.9390 C.3    41  LEU41       0.0001
    110  CD2       -4.3490   44.1520   10.1470 C.3    41  LEU41       0.0001
    111  N         -6.3190   44.3230    1.3770 N.3    88  ASN88      -0.1240
    112  CA        -7.1940   43.3160    0.8000 C.3    88  ASN88       0.1653
    113  C         -8.5020   44.0240    0.4310 C.2    88  ASN88       0.2266
    114  O         -9.3710   44.2610    1.2860 O.2    88  ASN88      -0.2867
    115  CB        -7.4390   42.1750    1.7950 C.3    88  ASN88       0.1155
    116  CG        -6.2040   41.2990    2.0190 C.2    88  ASN88       0.2627
    117  OD1       -5.3130   41.2200    1.1770 O.2    88  ASN88      -0.2716
    118  ND2       -6.1560   40.6420    3.1590 N.am   88  ASN88      -0.0877
    119  N        -10.0560   38.5210    0.0050 N.3    94  PHE94      -0.1227
    120  CA        -9.9120   38.0050    1.3820 C.3    94  PHE94       0.1736
    121  C        -10.3610   38.9950    2.4490 C.2    94  PHE94       0.2595
    122  O        -10.1110   38.7600    3.6330 O.2    94  PHE94      -0.2718
    123  CB        -8.4650   37.5610    1.7230 C.3    94  PHE94       0.0547
    124  CG        -7.8700   36.5410    0.7570 C.ar   94  PHE94      -0.0202
    125  CD1       -8.6200   35.4600    0.3000 C.ar   94  PHE94      -0.0042
    126  CD2       -6.5390   36.6560    0.3440 C.ar   94  PHE94      -0.0042
    127  CE1       -8.0590   34.5150   -0.5670 C.ar   94  PHE94      -0.0003
    128  CE2       -5.9700   35.7040   -0.5210 C.ar   94  PHE94      -0.0003
    129  CZ        -6.7310   34.6480   -0.9760 C.ar   94  PHE94      -0.0000
    130  N        -11.0030   40.1000    2.0620 N.am   95  GLN95      -0.1965
    131  CA       -11.4670   41.0690    3.0600 C.3    95  GLN95       0.1733
    132  C        -12.5340   40.4350    3.9610 C.2    95  GLN95       0.2617
    133  O        -13.4940   39.8460    3.4620 O.2    95  GLN95      -0.2715
    134  CB       -12.0160   42.3420    2.4200 C.3    95  GLN95       0.0408
    135  CG       -12.3710   43.4290    3.4590 C.3    95  GLN95       0.0908
    136  CD       -12.6660   44.7920    2.8540 C.2    95  GLN95       0.2608
    137  OE1      -12.8820   44.9250    1.6500 O.2    95  GLN95      -0.2717
    138  NE2      -12.6880   45.8140    3.7000 N.am   95  GLN95      -0.0878
    139  N        -12.3450   40.5480    5.2760 N.am   96  THR96      -0.1937
    140  CA       -13.2890   40.0340    6.2780 C.3    96  THR96       0.2028
    141  C        -13.7340   41.0890    7.3100 C.2    96  THR96       0.2642
    142  O        -14.7400   40.9030    8.0060 O.2    96  THR96      -0.2714
    143  CB       -12.7030   38.8080    7.0280 C.3    96  THR96       0.1808
    144  OG1      -11.5180   39.1850    7.7290 O.3    96  THR96      -0.2208
    145  CG2      -12.3700   37.6690    6.0590 C.3    96  THR96       0.0379
    146  N        -12.9800   42.1800    7.4370 N.am   97  VAL97      -0.1977
    147  CA       -13.4420   43.3180    8.2110 C.3    97  VAL97       0.1596
    148  C        -13.6520   44.4810    7.2520 C.2    97  VAL97       0.2287
    149  O        -12.7130   44.9580    6.6020 O.2    97  VAL97      -0.2864
    150  CB       -12.4580   43.7060    9.3350 C.3    97  VAL97       0.0276
    151  CG1      -12.9860   44.9220   10.0850 C.3    97  VAL97       0.0022
    152  CG2      -12.2590   42.5420   10.2860 C.3    97  VAL97       0.0022
    153  N         -8.2700   48.9820    5.7820 N.3   101  HIS101     -0.1241
    154  CA        -7.0720   48.9200    6.6100 C.3   101  HIS101      0.1621
    155  C         -5.9570   48.2910    5.7940 C.2   101  HIS101      0.2264
    156  O         -6.1960   47.7350    4.7140 O.2   101  HIS101     -0.2867
    157  CB        -7.3400   48.0950    7.8710 C.3   101  HIS101      0.0745
    158  CG        -7.8090   46.7170    7.5670 C.ar  101  HIS101      0.0817
    159  ND1       -9.1100   46.4400    7.2090 N.ar  101  HIS101     -0.2268
    160  CD2       -7.1340   45.5470    7.4830 C.ar  101  HIS101      0.1154
    161  CE1       -9.2190   45.1520    6.9380 C.ar  101  HIS101      0.1986
    162  NE2       -8.0360   44.5870    7.1050 N.ar  101  HIS101     -0.2212
    163  N         -2.2160   46.0100    6.1440 N.3   103  HIS103     -0.1241
    164  CA        -1.3760   45.1060    6.9190 C.3   103  HIS103      0.1621
    165  C          0.1020   45.4370    6.7440 C.2   103  HIS103      0.2264
    166  O          0.5580   45.6480    5.6170 O.2   103  HIS103     -0.2867
    167  CB        -1.5540   43.6740    6.4120 C.3   103  HIS103      0.0745
    168  CG        -2.9290   43.1260    6.5720 C.ar  103  HIS103      0.0817
    169  ND1       -3.2690   42.2810    7.6030 N.ar  103  HIS103     -0.2268
    170  CD2       -4.0430   43.2630    5.8110 C.ar  103  HIS103      0.1154
    171  CE1       -4.5360   41.9230    7.4790 C.ar  103  HIS103      0.1986
    172  NE2       -5.0310   42.5090    6.4010 N.ar  103  HIS103     -0.2212
    173  N         -1.9450   30.8500   13.6520 N.3   116  ARG116     -0.1245
    174  CA        -1.6260   32.2810   13.6240 C.3   116  ARG116      0.1563
    175  C         -1.7510   32.9000   15.0200 C.2   116  ARG116      0.2260
    176  O         -2.7370   33.5860   15.3170 O.2   116  ARG116     -0.2867
    177  CB        -2.5380   33.0050   12.6350 C.3   116  ARG116      0.0307
    178  CG        -2.2280   32.7050   11.1730 C.3   116  ARG116      0.0489
    179  CD        -3.2190   33.3950   10.2910 C.3   116  ARG116      0.2205
    180  NE        -4.5760   32.9090   10.5520 N.pl3 116  ARG116     -0.0865
    181  CZ        -5.6960   33.6010   10.3380 C.cat 116  ARG116      0.5346
    182  NH1       -5.6600   34.8430    9.8460 N.pl3 116  ARG116      0.1354
    183  NH2       -6.8690   33.0480   10.6270 N.pl3 116  ARG116      0.1354
@<TRIPOS>BOND
     1   129   127   ar
     2   129   128   ar
     3   127   125   ar
     4   128   126   ar
     5   119   120    1
     6   125   124   ar
     7   126   124   ar
     8   113   112    1
     9   113   114    2
    10   124   123    1
    11   112   111    1
    12   112   115    1
    13   117   116    2
    14   120   123    1
    15   120   121    1
    16   137   136    2
    17   115   116    1
    18   116   118   am
    19   130   121   am
    20   130   131    1
    21   134   131    1
    22   134   135    1
    23   121   122    2
    24   136   135    1
    25   136   138   am
    26   131   132    1
    27   133   132    2
    28   132   139   am
    29   156   155    2
    30   139   140    1
    31   166   165    2
    32   153   154    1
    33   155   154    1
    34   170   172   ar
    35   170   168   ar
    36   145   143    1
    37   163   164    1
    38   140   143    1
    39   140   141    1
    40   172   171   ar
    41   167   168    1
    42   167   164    1
    43   168   169   ar
    44   149   148    2
    45   154   157    1
    46    91    92   ar
    47    91    89   ar
    48   165   164    1
    49    92    90   ar
    50   161   162   ar
    51   161   159   ar
    52   143   144    1
    53   162   160   ar
    54   159   158   ar
    55   148   147    1
    56   141   146   am
    57   141   142    2
    58    89    87   ar
    59   146   147    1
    60   171   169   ar
    61   160   158   ar
    62   158   157    1
    63    90    88   ar
    64   147   150    1
    65    87    88   ar
    66    87    86    1
    67    86    83    1
    68   150   151    1
    69   150   152    1
    70   102   101   ar
    71   102   100   ar
    72   101    99   ar
    73   182   181    1
    74   110   108    1
    75   179   180    1
    76   179   178    1
    77   181   180    2
    78   181   183    1
    79   100    98   ar
    80    83    84    1
    81    83    82    1
    82    17    15   ar
    83    17    18   ar
    84    99    98   ar
    85    15    13   ar
    86   104   105    1
    87   104   107    1
    88   104   103    1
    89    85    84    2
    90    98    97    1
    91   178   177    1
    92   105   106    2
    93    62    60   ar
    94   107   108    1
    95   108   109    1
    96    18    16   ar
    97    97    94    1
    98    13    12    1
    99    13    14   ar
   100    74    73    2
   101    94    95    1
   102    94    93    1
   103    60    61   ar
   104    60    59    1
   105    12     9    1
   106   177   174    1
   107    16    14   ar
   108    95    96    2
   109    59    56    1
   110    75    76    1
   111    75    72    1
   112    73    72    1
   113   174   173    1
   114   174   175    1
   115     9     8    1
   116     9    10    1
   117     6     5    1
   118     8     3   am
   119    76    77    1
   120    10    11    2
   121     1     2    1
   122    72    71    1
   123    56    55    1
   124    56    57    1
   125    42    41    2
   126    80    79    1
   127    55    49   am
   128   175   176    2
   129    71    65   am
   130    81    79    1
   131    79    78    2
   132    39    40    1
   133     3     2    1
   134     3     4    2
   135     5     2    1
   136     5     7    1
   137    44    46    1
   138    44    43    1
   139    78    77    1
   140    57    63   am
   141    57    58    2
   142    63    64    1
   143    41    40    1
   144    41    47   am
   145    49    48    1
   146    49    50    2
   147    68    70    1
   148    68    67    1
   149    40    43    1
   150    65    64    1
   151    65    66    2
   152    48    47    1
   153    48    51    1
   154    43    45    1
   155    64    67    1
   156    54    52    1
   157    26    24    1
   158    67    69    1
   159    51    52    1
   160    23    25    1
   161    23    24    1
   162    23    20    1
   163    52    53    1
   164    19    20    1
   165    21    20    1
   166    21    22    2
   167    38    35    1
   168    30    29    2
   169    35    36    1
   170    35    34    1
   171    36    37    2
   172    29    34   am
   173    29    28    1
   174    27    28    1
   175    27    33    1
   176    28    31    1
   177    33    32    1
   178    32    31    1
