@<TRIPOS>MOLECULE
tmp/3o0nB02.pdb
 198 184 0 0 0
SMALL
GASTEIGER

@<TRIPOS>ATOM
      1  N        -93.4410  -33.8780  -45.8640 N.3    22  ILE22      -0.1245
      2  CA       -92.5510  -34.6770  -45.0400 C.3    22  ILE22       0.1561
      3  C        -91.4750  -33.8200  -44.3920 C.2    22  ILE22       0.2260
      4  O        -91.1680  -33.9830  -43.2070 O.2    22  ILE22      -0.2867
      5  CB       -91.8520  -35.7540  -45.8830 C.3    22  ILE22       0.0252
      6  CG1      -92.8920  -36.6640  -46.5430 C.3    22  ILE22       0.0019
      7  CG2      -90.8650  -36.5440  -45.0260 C.3    22  ILE22       0.0019
      8  CD1      -92.2860  -37.8690  -47.2650 C.3    22  ILE22       0.0001
      9  N        -91.0940  -33.3040  -40.2140 N.3    26  ARG26      -0.1245
     10  CA       -90.0390  -33.9340  -39.4200 C.3    26  ARG26       0.1563
     11  C        -88.6180  -33.3900  -39.5940 C.2    26  ARG26       0.2260
     12  O        -87.7740  -33.6030  -38.7310 O.2    26  ARG26      -0.2867
     13  CB       -90.0260  -35.4460  -39.6860 C.3    26  ARG26       0.0307
     14  CG       -91.4180  -36.0630  -39.7490 C.3    26  ARG26       0.0489
     15  CD       -91.3900  -37.5880  -39.6470 C.3    26  ARG26       0.2205
     16  NE       -90.8680  -38.2380  -40.8460 N.pl3  26  ARG26      -0.0865
     17  CZ       -91.5840  -38.4710  -41.9430 C.cat  26  ARG26       0.5346
     18  NH1      -92.8560  -38.0920  -41.9990 N.pl3  26  ARG26       0.1354
     19  NH2      -91.0260  -39.0760  -42.9880 N.pl3  26  ARG26       0.1354
     20  N        -88.3120  -50.9860  -35.0590 N.3   203  ALA203     -0.1245
     21  CA       -87.2720  -50.0700  -34.6020 C.3   203  ALA203      0.1562
     22  C        -86.0700  -50.8080  -34.0180 C.2   203  ALA203      0.2260
     23  O        -85.0040  -50.2210  -33.8480 O.2   203  ALA203     -0.2867
     24  CB       -87.8430  -49.0560  -33.5800 C.3   203  ALA203      0.0290
     25  N        -87.9580  -56.2880  -35.0840 N.3   229  ASN229     -0.1240
     26  CA       -87.9050  -57.1810  -36.2380 C.3   229  ASN229      0.1653
     27  C        -87.0730  -58.3610  -35.8100 C.2   229  ASN229      0.2266
     28  O        -86.0370  -58.1960  -35.1550 O.2   229  ASN229     -0.2867
     29  CB       -87.2000  -56.5490  -37.4220 C.3   229  ASN229      0.1155
     30  CG       -87.9270  -55.3720  -37.9690 C.2   229  ASN229      0.2627
     31  OD1      -89.1460  -55.3960  -38.1310 O.2   229  ASN229     -0.2716
     32  ND2      -87.1780  -54.3190  -38.2790 N.am  229  ASN229     -0.0877
     33  N        -96.9370  -64.2780  -41.6530 N.3   280  SER280     -0.1202
     34  CA       -96.7350  -62.9740  -41.0300 C.3   280  SER280      0.2020
     35  C        -95.5340  -62.1770  -41.5270 C.2   280  SER280      0.2619
     36  O        -95.3780  -61.0200  -41.1490 O.2   280  SER280     -0.2717
     37  CB       -96.5460  -63.1730  -39.5380 C.3   280  SER280      0.2103
     38  OG       -95.2290  -63.6320  -39.2990 O.3   280  SER280     -0.2182
     39  N        -94.6610  -62.7960  -42.3200 N.am  281  GLY281     -0.1942
     40  CA       -93.4980  -62.0930  -42.8500 C.3   281  GLY281      0.2014
     41  C        -92.2810  -62.0790  -41.9380 C.2   281  GLY281      0.2638
     42  O        -91.2890  -61.4140  -42.2260 O.2   281  GLY281     -0.2714
     43  N        -92.3660  -62.8070  -40.8310 N.am  282  ASP282     -0.1971
     44  CA       -91.2710  -62.9300  -39.8700 C.3   282  ASP282      0.1709
     45  C        -91.1760  -64.3850  -39.3940 C.2   282  ASP282      0.2293
     46  O        -92.1590  -65.1270  -39.4510 O.2   282  ASP282     -0.2864
     47  CB       -91.4860  -62.0000  -38.6670 C.3   282  ASP282      0.1436
     48  CG       -91.1580  -60.5330  -38.9810 C.2   282  ASP282      0.3671
     49  OD1      -89.9680  -60.1410  -38.8880 O.co2 282  ASP282     -0.2456
     50  OD2      -92.0910  -59.7670  -39.3160 O.co2 282  ASP282     -0.2456
     51  N        -81.6950  -52.6900  -37.3860 N.3   308  PRO308     -0.2102
     52  CA       -83.0880  -53.1520  -37.5250 C.3   308  PRO308      0.1504
     53  C        -83.5280  -53.5390  -38.9330 C.2   308  PRO308      0.2576
     54  O        -84.3000  -54.4900  -39.0510 O.2   308  PRO308     -0.2718
     55  CB       -83.9110  -51.9610  -37.0040 C.3   308  PRO308      0.0282
     56  CG       -82.9850  -51.3070  -35.9780 C.3   308  PRO308      0.0208
     57  CD       -81.6140  -51.4040  -36.6560 C.3   308  PRO308      0.0893
     58  N        -83.0750  -52.8270  -39.9700 N.am  309  CYS309     -0.1971
     59  CA       -83.4950  -53.1420  -41.3370 C.3   309  CYS309      0.1712
     60  C        -82.5270  -54.0710  -42.0890 C.2   309  CYS309      0.2296
     61  O        -82.6850  -54.3060  -43.3000 O.2   309  CYS309     -0.2864
     62  CB       -83.7430  -51.8590  -42.1390 C.3   309  CYS309      0.0983
     63  SG       -85.0050  -50.7460  -41.4510 S.3   309  CYS309     -0.0798
     64  N        -83.1880  -49.2420  -47.0250 N.3   477  PRO477     -0.2116
     65  CA       -84.5800  -49.0750  -47.4760 C.3   477  PRO477      0.1372
     66  C        -84.8020  -47.7020  -48.1340 C.2   477  PRO477      0.2244
     67  O        -85.5590  -47.5790  -49.0980 O.2   477  PRO477     -0.2868
     68  CB       -85.3920  -49.1420  -46.1620 C.3   477  PRO477      0.0268
     69  CG       -84.4870  -49.8210  -45.1750 C.3   477  PRO477      0.0207
     70  CD       -83.0790  -49.4410  -45.5650 C.3   477  PRO477      0.0892
     71  N        -86.6090  -45.3870  -47.1120 N.3   479  GLY479     -0.1210
     72  CA       -88.0220  -45.0610  -47.0270 C.3   479  GLY479      0.1956
     73  C        -88.3490  -43.5770  -47.0040 C.2   479  GLY479      0.2612
     74  O        -89.1890  -43.1160  -47.7720 O.2   479  GLY479     -0.2717
     75  N        -87.6950  -42.8150  -46.1360 N.am  480  SER480     -0.1952
     76  CA       -87.9850  -41.3810  -46.0940 C.3   480  SER480      0.1924
     77  C        -87.1480  -40.5230  -47.0620 C.2   480  SER480      0.2314
     78  O        -87.6720  -39.5900  -47.6880 O.2   480  SER480     -0.2863
     79  CB       -87.8690  -40.8400  -44.6630 C.3   480  SER480      0.2116
     80  OG       -89.0700  -41.0710  -43.9430 O.3   480  SER480     -0.2180
     81  N        -88.3350  -40.4400  -50.6730 N.3   483  ASN483     -0.1240
     82  CA       -89.4840  -39.5400  -50.8020 C.3   483  ASN483      0.1653
     83  C        -89.0890  -38.0580  -50.8920 C.2   483  ASN483      0.2266
     84  O        -89.6290  -37.3080  -51.7030 O.2   483  ASN483     -0.2867
     85  CB       -90.4840  -39.7410  -49.6620 C.3   483  ASN483      0.1155
     86  CG       -91.3720  -40.9510  -49.8790 C.2   483  ASN483      0.2627
     87  OD1      -91.5780  -41.7600  -48.9720 O.2   483  ASN483     -0.2716
     88  ND2      -91.8940  -41.0880  -51.0910 N.am  483  ASN483     -0.0877
     89  N        -87.3510  -46.2860  -54.0790 N.3   489  SER489     -0.1217
     90  CA       -86.5990  -46.6010  -52.8630 C.3   489  SER489      0.1889
     91  C        -85.5200  -47.6320  -53.1010 C.2   489  SER489      0.2288
     92  O        -85.7890  -48.6950  -53.6550 O.2   489  SER489     -0.2866
     93  CB       -87.5330  -47.0820  -51.7340 C.3   489  SER489      0.2089
     94  OG       -88.5680  -46.1410  -51.5140 O.3   489  SER489     -0.2183
     95  N        -85.2740  -51.4190  -54.6330 N.3   492  GLU492     -0.1245
     96  CA       -86.5970  -52.0320  -54.7550 C.3   492  GLU492      0.1567
     97  C        -87.3160  -51.5850  -56.0070 C.2   492  GLU492      0.2260
     98  O        -87.2160  -50.4240  -56.4030 O.2   492  GLU492     -0.2867
     99  CB       -87.4850  -51.6800  -53.5510 C.3   492  GLU492      0.0388
    100  CG       -87.0250  -52.2580  -52.2270 C.3   492  GLU492      0.1160
    101  CD       -87.1930  -53.7780  -52.1190 C.2   492  GLU492      0.3649
    102  OE1      -87.7560  -54.4050  -53.0420 O.co2 492  GLU492     -0.2457
    103  OE2      -86.7650  -54.3410  -51.0850 O.co2 492  GLU492     -0.2457
    104  N        -93.4280  -50.1850  -55.6230 N.3   495  PHE495     -0.1241
    105  CA       -94.4630  -51.0970  -55.1470 C.3   495  PHE495      0.1605
    106  C        -95.7600  -50.8670  -55.9120 C.2   495  PHE495      0.2264
    107  O        -96.5020  -51.8080  -56.1940 O.2   495  PHE495     -0.2867
    108  CB       -94.6950  -51.0130  -53.6380 C.3   495  PHE495      0.0534
    109  CG       -95.5380  -52.1380  -53.1220 C.ar  495  PHE495     -0.0203
    110  CD1      -96.9020  -51.9800  -52.9530 C.ar  495  PHE495     -0.0042
    111  CD2      -94.9760  -53.3820  -52.8840 C.ar  495  PHE495     -0.0042
    112  CE1      -97.6820  -53.0300  -52.5170 C.ar  495  PHE495     -0.0003
    113  CE2      -95.7510  -54.4320  -52.4440 C.ar  495  PHE495     -0.0003
    114  CZ       -97.1020  -54.2590  -52.2630 C.ar  495  PHE495     -0.0000
    115  N       -100.8240  -42.2530  -49.7060 N.3   501  ARG501     -0.1231
    116  CA      -100.4110  -42.5390  -48.3290 C.3   501  ARG501      0.1694
    117  C       -100.9560  -41.4900  -47.3580 C.2   501  ARG501      0.2592
    118  O       -101.5150  -40.4750  -47.7750 O.2   501  ARG501     -0.2718
    119  CB       -98.8840  -42.6110  -48.2090 C.3   501  ARG501      0.0321
    120  CG       -98.2150  -43.6520  -49.0950 C.3   501  ARG501      0.0489
    121  CD       -96.7070  -43.6950  -48.8470 C.3   501  ARG501      0.2205
    122  NE       -95.9790  -44.3090  -49.9580 N.pl3 501  ARG501     -0.0865
    123  CZ       -94.6610  -44.4900  -49.9890 C.cat 501  ARG501      0.5346
    124  NH1      -94.0920  -45.0550  -51.0460 N.pl3 501  ARG501      0.1354
    125  NH2      -93.9110  -44.1100  -48.9640 N.pl3 501  ARG501      0.1354
    126  N       -100.7830  -41.7400  -46.0620 N.am  502  PHE502     -0.1976
    127  CA      -101.2880  -40.8390  -45.0260 C.3   502  PHE502      0.1639
    128  C       -100.1750  -40.3970  -44.0730 C.2   502  PHE502      0.2290
    129  O       -100.2470  -39.3260  -43.4600 O.2   502  PHE502     -0.2864
    130  CB      -102.4260  -41.5050  -44.2380 C.3   502  PHE502      0.0560
    131  CG      -103.6060  -41.9130  -45.0890 C.ar  502  PHE502     -0.0200
    132  CD1     -103.7260  -43.2150  -45.5600 C.ar  502  PHE502     -0.0042
    133  CD2     -104.5960  -40.9940  -45.4160 C.ar  502  PHE502     -0.0042
    134  CE1     -104.8090  -43.5920  -46.3420 C.ar  502  PHE502     -0.0003
    135  CE2     -105.6790  -41.3640  -46.2000 C.ar  502  PHE502     -0.0003
    136  CZ      -105.7850  -42.6640  -46.6630 C.ar  502  PHE502     -0.0000
    137  N        -93.6390  -54.2740  -57.9040 N.3   550  ALA550     -0.1245
    138  CA       -93.1210  -55.3810  -57.0990 C.3   550  ALA550      0.1562
    139  C        -93.8350  -56.7210  -57.3340 C.2   550  ALA550      0.2260
    140  O        -93.1850  -57.7400  -57.5290 O.2   550  ALA550     -0.2867
    141  CB       -93.1350  -55.0190  -55.6150 C.3   550  ALA550      0.0290
    142  N        -86.9570  -56.7760  -49.8200 N.3   576  THR576     -0.1218
    143  CA       -88.0760  -57.6410  -49.4990 C.3   576  THR576      0.1862
    144  C        -88.3120  -58.5970  -50.6490 C.2   576  THR576      0.2287
    145  O        -88.4420  -58.1660  -51.7900 O.2   576  THR576     -0.2866
    146  CB       -89.3770  -56.8450  -49.2600 C.3   576  THR576      0.1770
    147  OG1      -89.2440  -56.0610  -48.0700 O.3   576  THR576     -0.2211
    148  CG2      -90.5680  -57.8070  -49.1040 C.3   576  THR576      0.0375
    149  N        -90.9330  -60.0630  -52.2260 N.3   578  ASN578     -0.1240
    150  CA       -92.3780  -60.0840  -52.4180 C.3   578  ASN578      0.1653
    151  C        -92.8690  -61.3600  -53.0990 C.2   578  ASN578      0.2266
    152  O        -92.3160  -61.7760  -54.1160 O.2   578  ASN578     -0.2867
    153  CB       -92.8000  -58.8760  -53.2560 C.3   578  ASN578      0.1155
    154  CG       -92.4060  -57.5650  -52.6150 C.2   578  ASN578      0.2627
    155  OD1      -91.3990  -56.9690  -52.9760 O.2   578  ASN578     -0.2716
    156  ND2      -93.1860  -57.1270  -51.6380 N.am  578  ASN578     -0.0877
    157  N        -85.5840  -61.6250  -46.5080 N.3   604  THR604     -0.1203
    158  CA       -86.8350  -61.2040  -45.9340 C.3   604  THR604      0.1994
    159  C        -87.8570  -61.5420  -46.9970 C.2   604  THR604      0.2618
    160  O        -87.6870  -61.1600  -48.1580 O.2   604  THR604     -0.2717
    161  CB       -86.8590  -59.6580  -45.7250 C.3   604  THR604      0.1784
    162  OG1      -85.9060  -59.2730  -44.7240 O.3   604  THR604     -0.2211
    163  CG2      -88.2230  -59.2050  -45.2950 C.3   604  THR604      0.0376
    164  N        -88.9100  -62.2580  -46.6280 N.am  605  VAL605     -0.1965
    165  CA       -90.0110  -62.4520  -47.5620 C.3   605  VAL605      0.1727
    166  C        -91.2920  -61.8280  -47.0200 C.2   605  VAL605      0.2616
    167  O        -91.4840  -61.7360  -45.8160 O.2   605  VAL605     -0.2715
    168  CB       -90.2730  -63.9500  -47.8660 C.3   605  VAL605      0.0290
    169  CG1      -88.9940  -64.6190  -48.3700 C.3   605  VAL605      0.0023
    170  CG2      -90.7930  -64.6520  -46.6390 C.3   605  VAL605      0.0023
    171  N        -92.1650  -61.4050  -47.9230 N.am  606  TYR606     -0.1974
    172  CA       -93.5220  -61.0630  -47.5480 C.3   606  TYR606      0.1639
    173  C        -94.5240  -61.5400  -48.5850 C.2   606  TYR606      0.2290
    174  O        -94.4540  -61.1720  -49.7590 O.2   606  TYR606     -0.2864
    175  CB       -93.6990  -59.5630  -47.3190 C.3   606  TYR606      0.0560
    176  CG       -95.0990  -59.2620  -46.8570 C.ar  606  TYR606     -0.0198
    177  CD1      -95.5110  -59.6190  -45.5800 C.ar  606  TYR606     -0.0009
    178  CD2      -96.0270  -58.6680  -47.7100 C.ar  606  TYR606     -0.0009
    179  CE1      -96.7980  -59.3720  -45.1490 C.ar  606  TYR606      0.0417
    180  CE2      -97.3180  -58.4100  -47.2860 C.ar  606  TYR606      0.0417
    181  CZ       -97.6980  -58.7700  -46.0030 C.ar  606  TYR606      0.1957
    182  OH       -98.9780  -58.5280  -45.5680 O.3   606  TYR606     -0.2866
    183  N        -98.0510  -61.4220  -50.2170 N.3   608  ASP608     -0.1239
    184  CA       -99.1630  -60.4890  -50.3970 C.3   608  ASP608      0.1674
    185  C       -100.4520  -61.0460  -49.7880 C.2   608  ASP608      0.2266
    186  O       -100.9500  -62.0850  -50.2230 O.2   608  ASP608     -0.2867
    187  CB       -99.3810  -60.2280  -51.8850 C.3   608  ASP608      0.1410
    188  CG      -100.4760  -59.2100  -52.1520 C.2   608  ASP608      0.3668
    189  OD1     -101.3780  -59.5290  -52.9560 O.co2 608  ASP608     -0.2456
    190  OD2     -100.4210  -58.0930  -51.5870 O.co2 608  ASP608     -0.2456
    191  N       -100.6150  -60.2910  -43.7360 N.3   611  LEU611     -0.1245
    192  CA      -101.1260  -59.4700  -42.6490 C.3   611  LEU611      0.1561
    193  C       -102.4010  -58.7370  -43.0640 C.2   611  LEU611      0.2260
    194  O       -103.5110  -59.1960  -42.7850 O.2   611  LEU611     -0.2867
    195  CB      -100.0570  -58.4700  -42.1980 C.3   611  LEU611      0.0270
    196  CG       -98.7180  -59.0720  -41.7620 C.3   611  LEU611      0.0019
    197  CD1      -97.8170  -58.0000  -41.1730 C.3   611  LEU611      0.0001
    198  CD2      -98.9270  -60.1880  -40.7600 C.3   611  LEU611      0.0001
@<TRIPOS>BOND
     1   137   138    1
     2   140   139    2
     3   139   138    1
     4   138   141    1
     5    98    97    2
     6   107   106    2
     7    97    96    1
     8   106   105    1
     9   104   105    1
    10   105   108    1
    11    96    95    1
    12    96    99    1
    13   152   151    2
    14    89    90    1
    15    92    91    2
    16   108   109    1
    17    99   100    1
    18   153   154    1
    19   153   150    1
    20   109   110   ar
    21   109   111   ar
    22    91    90    1
    23   151   150    1
    24   102   101   ar
    25   155   154    2
    26   189   188   ar
    27   110   112   ar
    28   111   113   ar
    29    90    93    1
    30   154   156   am
    31   112   114   ar
    32   113   114   ar
    33   150   149    1
    34   100   101    1
    35   188   187    1
    36   188   190   ar
    37   101   103   ar
    38   187   184    1
    39   145   144    2
    40    93    94    1
    41    84    83    2
    42    88    86   am
    43   124   123    1
    44    83    82    1
    45    82    81    1
    46    82    85    1
    47   144   143    1
    48   184   183    1
    49   184   185    1
    50   186   185    2
    51   123   122    2
    52   123   125    1
    53   122   121    1
    54    86    85    1
    55    86    87    2
    56   142   143    1
    57   174   173    2
    58   115   116    1
    59   143   146    1
    60   146   148    1
    61   146   147    1
    62    67    66    2
    63   120   121    1
    64   120   119    1
    65   173   172    1
    66   169   168    1
    67   116   119    1
    68   116   117    1
    69   160   159    2
    70    66    65    1
    71   171   172    1
    72   171   166   am
    73   168   165    1
    74   168   170    1
    75   118   117    2
    76    74    73    2
    77   178   180   ar
    78   178   176   ar
    79    78    77    2
    80   165   166    1
    81   165   164    1
    82   172   175    1
    83    65    64    1
    84    65    68    1
    85   117   126   am
    86   175   176    1
    87   180   181   ar
    88     8     6    1
    89    71    72    1
    90    77    76    1
    91    72    73    1
    92    64    70    1
    93   166   167    2
    94    73    75   am
    95   159   164   am
    96   159   158    1
    97   176   177   ar
    98   136   134   ar
    99   136   135   ar
   100     6     5    1
   101   157   158    1
   102   134   132   ar
   103   135   133   ar
   104    68    69    1
   105    75    76    1
   106    76    79    1
   107   126   127    1
   108   181   182    1
   109   181   179   ar
   110   158   161    1
   111     5     2    1
   112     5     7    1
   113     1     2    1
   114   161   163    1
   115   161   162    1
   116   177   179   ar
   117    70    69    1
   118   132   131   ar
   119   133   131   ar
   120   131   130    1
   121     2     3    1
   122   127   130    1
   123   127   128    1
   124    79    80    1
   125     3     4    2
   126   128   129    2
   127   191   192    1
   128    61    60    2
   129   193   194    2
   130   193   192    1
   131    19    17    1
   132    40    39    1
   133    40    41    1
   134   192   195    1
   135    39    35   am
   136    42    41    2
   137   195   196    1
   138    62    63    1
   139    62    59    1
   140    60    59    1
   141    18    17    1
   142    17    16    2
   143    41    43   am
   144   196   197    1
   145   196   198    1
   146    33    34    1
   147    35    36    2
   148    35    34    1
   149    59    58    1
   150    34    37    1
   151    16    15    1
   152    43    44    1
   153     9    10    1
   154    58    53   am
   155    44    45    1
   156    44    47    1
   157    14    13    1
   158    14    15    1
   159    13    10    1
   160    11    10    1
   161    11    12    2
   162    37    38    1
   163    46    45    2
   164    50    48   ar
   165    54    53    2
   166    48    49   ar
   167    48    47    1
   168    53    52    1
   169    32    30   am
   170    31    30    2
   171    30    29    1
   172    52    51    1
   173    52    55    1
   174    29    26    1
   175    51    57    1
   176    55    56    1
   177    57    56    1
   178    26    27    1
   179    26    25    1
   180    27    28    2
   181    20    21    1
   182    21    22    1
   183    21    24    1
   184    22    23    2
