@<TRIPOS>MOLECULE
tmp/3o0oB03.pdb
 215 195 0 0 0
SMALL
GASTEIGER

@<TRIPOS>ATOM
      1  N        -94.6990  -34.2890  -46.0590 N.3    22  ILE22      -0.1245
      2  CA       -93.7700  -35.0620  -45.2430 C.3    22  ILE22       0.1561
      3  C        -92.6830  -34.1830  -44.6140 C.2    22  ILE22       0.2260
      4  O        -92.3690  -34.3330  -43.4270 O.2    22  ILE22      -0.2867
      5  CB       -93.1140  -36.2020  -46.0390 C.3    22  ILE22       0.0252
      6  CG1      -94.1920  -37.1950  -46.5030 C.3    22  ILE22       0.0019
      7  CG2      -92.0470  -36.8880  -45.1850 C.3    22  ILE22       0.0019
      8  CD1      -93.7040  -38.2650  -47.4790 C.3    22  ILE22       0.0001
      9  N        -92.1570  -33.6480  -40.3450 N.3    26  ARG26      -0.1245
     10  CA       -91.0660  -34.2460  -39.5620 C.3    26  ARG26       0.1563
     11  C        -89.6600  -33.6670  -39.7640 C.2    26  ARG26       0.2260
     12  O        -88.8060  -33.8100  -38.8920 O.2    26  ARG26      -0.2867
     13  CB       -91.0150  -35.7590  -39.8210 C.3    26  ARG26       0.0307
     14  CG       -92.3850  -36.4160  -39.7890 C.3    26  ARG26       0.0489
     15  CD       -92.3040  -37.9250  -39.6070 C.3    26  ARG26       0.2205
     16  NE       -92.0310  -38.6480  -40.8460 N.pl3  26  ARG26      -0.0865
     17  CZ       -92.8980  -38.7780  -41.8480 C.cat  26  ARG26       0.5346
     18  NH1      -94.0980  -38.2100  -41.7730 N.pl3  26  ARG26       0.1354
     19  NH2      -92.5590  -39.4660  -42.9340 N.pl3  26  ARG26       0.1354
     20  N        -94.0060  -42.7930  -34.2680 N.3   206  ARG206     -0.1245
     21  CA       -94.2170  -44.0830  -34.9500 C.3   206  ARG206      0.1563
     22  C        -92.9420  -44.9430  -34.9290 C.2   206  ARG206      0.2260
     23  O        -91.9400  -44.5960  -35.5630 O.2   206  ARG206     -0.2867
     24  CB       -94.7220  -43.8900  -36.3880 C.3   206  ARG206      0.0307
     25  CG       -96.2080  -43.5430  -36.5020 C.3   206  ARG206      0.0489
     26  CD       -96.5970  -43.1400  -37.9260 C.3   206  ARG206      0.2205
     27  NE       -97.1460  -44.2490  -38.7070 N.pl3 206  ARG206     -0.0865
     28  CZ       -97.3540  -44.2130  -40.0220 C.cat 206  ARG206      0.5346
     29  NH1      -97.0450  -43.1240  -40.7170 N.pl3 206  ARG206      0.1354
     30  NH2      -97.8640  -45.2700  -40.6450 N.pl3 206  ARG206      0.1354
     31  N        -92.8180  -48.5280  -35.4260 N.3   208  ARG208     -0.1231
     32  CA       -92.9490  -49.8280  -36.0860 C.3   208  ARG208      0.1694
     33  C        -91.6070  -50.2700  -36.6900 C.2   208  ARG208      0.2592
     34  O        -90.9660  -49.5070  -37.4300 O.2   208  ARG208     -0.2718
     35  CB       -94.0250  -49.7620  -37.1770 C.3   208  ARG208      0.0321
     36  CG       -94.4220  -51.1050  -37.7790 C.3   208  ARG208      0.0489
     37  CD       -95.2430  -50.9190  -39.0560 C.3   208  ARG208      0.2205
     38  NE       -96.4260  -50.0850  -38.8490 N.pl3 208  ARG208     -0.0865
     39  CZ       -97.6490  -50.5570  -38.6180 C.cat 208  ARG208      0.5346
     40  NH1      -97.8610  -51.8660  -38.5680 N.pl3 208  ARG208      0.1354
     41  NH2      -98.6630  -49.7180  -38.4420 N.pl3 208  ARG208      0.1354
     42  N        -91.1900  -51.4950  -36.3650 N.am  209  GLY209     -0.1957
     43  CA       -89.9370  -52.0530  -36.8430 C.3   209  GLY209      0.1869
     44  C        -88.6930  -51.3370  -36.3350 C.2   209  GLY209      0.2309
     45  O        -87.6810  -51.2520  -37.0370 O.2   209  GLY209     -0.2863
     46  N        -94.5640  -64.2890  -32.3930 N.3   229  LYS229     -0.1245
     47  CA       -95.6290  -63.3350  -32.6850 C.3   229  LYS229      0.1561
     48  C        -96.7550  -64.0320  -33.4280 C.2   229  LYS229      0.2260
     49  O        -96.8160  -64.0000  -34.6580 O.2   229  LYS229     -0.2867
     50  CB       -95.0920  -62.1550  -33.4970 C.3   229  LYS229      0.0271
     51  CG       -93.8490  -61.5370  -32.8850 C.3   229  LYS229      0.0035
     52  CD       -93.7550  -60.0530  -33.1640 C.3   229  LYS229      0.0206
     53  CE       -93.4440  -59.7690  -34.6140 C.3   229  LYS229      0.1093
     54  NZ       -93.4490  -58.3030  -34.8440 N.3   229  LYS229     -0.1314
     55  N        -94.4010  -56.1070  -30.5750 N.3   233  ASN233     -0.1240
     56  CA       -94.8540  -55.3020  -31.7050 C.3   233  ASN233      0.1653
     57  C        -93.7820  -54.3840  -32.2890 C.2   233  ASN233      0.2266
     58  O        -93.9060  -53.9340  -33.4320 O.2   233  ASN233     -0.2867
     59  CB       -96.1160  -54.5060  -31.3460 C.3   233  ASN233      0.1155
     60  CG       -95.8770  -53.5220  -30.2170 C.2   233  ASN233      0.2627
     61  OD1      -95.4610  -53.9070  -29.1290 O.2   233  ASN233     -0.2716
     62  ND2      -96.1060  -52.2420  -30.4840 N.am  233  ASN233     -0.0877
     63  N        -88.8200  -56.5020  -35.4700 N.3   236  ASN236     -0.1240
     64  CA       -88.7270  -57.4400  -36.5780 C.3   236  ASN236      0.1653
     65  C        -87.9280  -58.6320  -36.0630 C.2   236  ASN236      0.2266
     66  O        -86.9890  -58.4580  -35.2840 O.2   236  ASN236     -0.2867
     67  CB       -87.9800  -56.8240  -37.7690 C.3   236  ASN236      0.1155
     68  CG       -88.7470  -55.6990  -38.4230 C.2   236  ASN236      0.2627
     69  OD1      -89.9790  -55.6580  -38.3670 O.2   236  ASN236     -0.2716
     70  ND2      -88.0220  -54.7840  -39.0680 N.am  236  ASN236     -0.0877
     71  N        -97.7010  -64.5780  -41.8520 N.3   287  SER287     -0.1202
     72  CA       -97.5370  -63.2720  -41.2280 C.3   287  SER287      0.2020
     73  C        -96.3450  -62.4760  -41.7340 C.2   287  SER287      0.2619
     74  O        -96.2230  -61.2940  -41.4290 O.2   287  SER287     -0.2717
     75  CB       -97.4020  -63.4440  -39.7170 C.3   287  SER287      0.2103
     76  OG       -96.1510  -64.0340  -39.4010 O.3   287  SER287     -0.2182
     77  N        -95.4530  -63.1220  -42.4850 N.am  288  GLY288     -0.1942
     78  CA       -94.2990  -62.4350  -43.0360 C.3   288  GLY288      0.2014
     79  C        -93.0750  -62.4730  -42.1460 C.2   288  GLY288      0.2638
     80  O        -92.0290  -61.9370  -42.4950 O.2   288  GLY288     -0.2714
     81  N        -93.2080  -63.0890  -40.9830 N.am  289  ASP289     -0.1971
     82  CA       -92.0950  -63.2410  -40.0500 C.3   289  ASP289      0.1709
     83  C        -91.9820  -64.7180  -39.6740 C.2   289  ASP289      0.2293
     84  O        -92.9740  -65.4490  -39.6830 O.2   289  ASP289     -0.2864
     85  CB       -92.3450  -62.4410  -38.7650 C.3   289  ASP289      0.1436
     86  CG       -92.2930  -60.9360  -38.9770 C.2   289  ASP289      0.3671
     87  OD1      -91.5040  -60.4720  -39.8250 O.co2 289  ASP289     -0.2456
     88  OD2      -93.0390  -60.2120  -38.2800 O.co2 289  ASP289     -0.2456
     89  N        -83.9130  -53.3660  -40.4770 N.3   316  CYS316     -0.1235
     90  CA       -84.3610  -53.7030  -41.8340 C.3   316  CYS316      0.1677
     91  C        -83.3750  -54.6110  -42.5910 C.2   316  CYS316      0.2270
     92  O        -83.4980  -54.8300  -43.8030 O.2   316  CYS316     -0.2867
     93  CB       -84.7050  -52.4340  -42.6280 C.3   316  CYS316      0.0956
     94  SG       -86.1650  -51.5350  -41.9730 S.3   316  CYS316     -0.0801
     95  N        -84.1310  -49.6430  -47.4000 N.3   484  PRO484     -0.2116
     96  CA       -85.5260  -49.4710  -47.8240 C.3   484  PRO484      0.1372
     97  C        -85.7770  -48.0780  -48.4290 C.2   484  PRO484      0.2244
     98  O        -86.5690  -47.9470  -49.3680 O.2   484  PRO484     -0.2868
     99  CB       -86.3160  -49.6090  -46.5020 C.3   484  PRO484      0.0268
    100  CG       -85.4090  -50.3660  -45.5930 C.3   484  PRO484      0.0207
    101  CD       -84.0150  -49.9560  -45.9580 C.3   484  PRO484      0.0892
    102  N        -87.5680  -45.7560  -47.2580 N.3   486  GLY486     -0.1210
    103  CA       -88.9910  -45.4840  -47.1600 C.3   486  GLY486      0.1956
    104  C        -89.3370  -43.9960  -47.1540 C.2   486  GLY486      0.2612
    105  O        -90.1770  -43.5310  -47.9250 O.2   486  GLY486     -0.2717
    106  N        -88.6900  -43.2280  -46.2910 N.am  487  SER487     -0.1952
    107  CA       -89.0070  -41.8000  -46.2360 C.3   487  SER487      0.1924
    108  C        -88.2360  -40.9650  -47.2570 C.2   487  SER487      0.2314
    109  O        -88.8020  -40.0480  -47.8780 O.2   487  SER487     -0.2863
    110  CB       -88.7230  -41.2500  -44.8320 C.3   487  SER487      0.2116
    111  OG       -89.6520  -41.7610  -43.8860 O.3   487  SER487     -0.2180
    112  N        -89.4430  -40.8850  -50.7830 N.3   490  ASN490     -0.1240
    113  CA       -90.6010  -39.9860  -50.8890 C.3   490  ASN490      0.1653
    114  C        -90.2020  -38.5000  -51.0140 C.2   490  ASN490      0.2266
    115  O        -90.7760  -37.7620  -51.8090 O.2   490  ASN490     -0.2867
    116  CB       -91.5710  -40.1720  -49.7210 C.3   490  ASN490      0.1155
    117  CG       -92.5810  -41.2650  -49.9840 C.2   490  ASN490      0.2627
    118  OD1      -92.3080  -42.4470  -49.7690 O.2   490  ASN490     -0.2716
    119  ND2      -93.7540  -40.8770  -50.4640 N.am  490  ASN490     -0.0877
    120  N        -88.5370  -46.6170  -54.4090 N.3   496  SER496     -0.1217
    121  CA       -87.7230  -46.8370  -53.2140 C.3   496  SER496      0.1889
    122  C        -86.6700  -47.9370  -53.3780 C.2   496  SER496      0.2288
    123  O        -86.9460  -49.0150  -53.9090 O.2   496  SER496     -0.2866
    124  CB       -88.6120  -47.0630  -51.9830 C.3   496  SER496      0.2089
    125  OG       -89.1460  -48.3710  -52.0010 O.3   496  SER496     -0.2183
    126  N        -86.3300  -51.7270  -55.0850 N.3   499  GLU499     -0.1245
    127  CA       -87.6270  -52.4000  -55.2120 C.3   499  GLU499      0.1567
    128  C        -88.3660  -51.9540  -56.4630 C.2   499  GLU499      0.2260
    129  O        -88.2430  -50.8040  -56.8790 O.2   499  GLU499     -0.2867
    130  CB       -88.5150  -52.1120  -53.9920 C.3   499  GLU499      0.0388
    131  CG       -87.9720  -52.6330  -52.6700 C.3   499  GLU499      0.1160
    132  CD       -88.1850  -54.1420  -52.4740 C.2   499  GLU499      0.3649
    133  OE1      -88.6400  -54.8290  -53.4160 O.co2 499  GLU499     -0.2457
    134  OE2      -87.9020  -54.6370  -51.3570 O.co2 499  GLU499     -0.2457
    135  N        -94.5380  -50.6220  -56.0230 N.3   502  PHE502     -0.1241
    136  CA       -95.5790  -51.5110  -55.5300 C.3   502  PHE502      0.1605
    137  C        -96.8860  -51.2900  -56.2860 C.2   502  PHE502      0.2264
    138  O        -97.5800  -52.2550  -56.6520 O.2   502  PHE502     -0.2867
    139  CB       -95.7970  -51.4010  -54.0140 C.3   502  PHE502      0.0534
    140  CG       -96.6530  -52.5140  -53.4730 C.ar  502  PHE502     -0.0203
    141  CD1      -98.0010  -52.3210  -53.2280 C.ar  502  PHE502     -0.0042
    142  CD2      -96.1210  -53.7800  -53.2960 C.ar  502  PHE502     -0.0042
    143  CE1      -98.7930  -53.3600  -52.7780 C.ar  502  PHE502     -0.0003
    144  CE2      -96.9060  -54.8240  -52.8500 C.ar  502  PHE502     -0.0003
    145  CZ       -98.2430  -54.6150  -52.5930 C.ar  502  PHE502     -0.0000
    146  N       -103.1070  -42.0440  -50.8440 N.3   508  ARG508     -0.1245
    147  CA      -102.5650  -42.1750  -49.4890 C.3   508  ARG508      0.1563
    148  C       -103.0500  -41.0650  -48.5510 C.2   508  ARG508      0.2260
    149  O       -103.3960  -39.9700  -48.9980 O.2   508  ARG508     -0.2867
    150  CB      -101.0350  -42.2310  -49.5100 C.3   508  ARG508      0.0307
    151  CG      -100.4430  -42.8130  -48.2390 C.3   508  ARG508      0.0489
    152  CD      -101.0440  -44.1800  -47.9640 C.3   508  ARG508      0.2205
    153  NE      -101.3210  -44.3880  -46.5460 N.pl3 508  ARG508     -0.0865
    154  CZ      -102.0880  -45.3650  -46.0710 C.cat 508  ARG508      0.5346
    155  NH1     -102.2870  -45.4790  -44.7640 N.pl3 508  ARG508      0.1354
    156  NH2     -102.6610  -46.2270  -46.9020 N.pl3 508  ARG508      0.1354
    157  N        -94.8570  -54.7580  -58.2480 N.3   557  ALA557     -0.1245
    158  CA       -94.2990  -55.8480  -57.4540 C.3   557  ALA557      0.1562
    159  C        -94.9770  -57.1940  -57.7120 C.2   557  ALA557      0.2260
    160  O        -94.3020  -58.1860  -57.9680 O.2   557  ALA557     -0.2867
    161  CB       -94.3420  -55.5140  -55.9790 C.3   557  ALA557      0.0290
    162  N        -87.9760  -57.1350  -50.2440 N.3   583  THR583     -0.1218
    163  CA       -89.1150  -57.9720  -49.9030 C.3   583  THR583      0.1862
    164  C        -89.3900  -58.9270  -51.0520 C.2   583  THR583      0.2287
    165  O        -89.6050  -58.4820  -52.1760 O.2   583  THR583     -0.2866
    166  CB       -90.4020  -57.1410  -49.6810 C.3   583  THR583      0.1770
    167  OG1      -90.2870  -56.3660  -48.4810 O.3   583  THR583     -0.2211
    168  CG2      -91.6080  -58.0870  -49.5630 C.3   583  THR583      0.0375
    169  N        -91.9720  -60.4860  -52.6720 N.3   585  ASN585     -0.1240
    170  CA       -93.4290  -60.5470  -52.8400 C.3   585  ASN585      0.1653
    171  C        -93.9230  -61.8490  -53.4550 C.2   585  ASN585      0.2266
    172  O        -93.4060  -62.2880  -54.4870 O.2   585  ASN585     -0.2867
    173  CB       -93.9250  -59.3710  -53.6850 C.3   585  ASN585      0.1155
    174  CG       -93.6790  -58.0450  -53.0100 C.2   585  ASN585      0.2627
    175  OD1      -92.6520  -57.4140  -53.2320 O.2   585  ASN585     -0.2716
    176  ND2      -94.5990  -57.6390  -52.1420 N.am  585  ASN585     -0.0877
    177  N        -86.4310  -61.8190  -46.7610 N.3   611  THR611     -0.1218
    178  CA       -87.7160  -61.4820  -46.1950 C.3   611  THR611      0.1862
    179  C        -88.7260  -61.8300  -47.2690 C.2   611  THR611      0.2287
    180  O        -88.5450  -61.4410  -48.4130 O.2   611  THR611     -0.2866
    181  CB       -87.8330  -59.9440  -45.9420 C.3   611  THR611      0.1770
    182  OG1      -87.0330  -59.5680  -44.8150 O.3   611  THR611     -0.2211
    183  CG2      -89.2780  -59.5610  -45.6760 C.3   611  THR611      0.0375
    184  N        -93.0840  -61.8410  -48.2300 N.3   613  TYR613     -0.1241
    185  CA       -94.4040  -61.4420  -47.7890 C.3   613  TYR613      0.1605
    186  C        -95.4420  -61.9380  -48.7680 C.2   613  TYR613      0.2264
    187  O        -95.3880  -61.6270  -49.9590 O.2   613  TYR613     -0.2867
    188  CB       -94.5360  -59.9140  -47.6070 C.3   613  TYR613      0.0534
    189  CG       -95.9220  -59.5980  -47.1300 C.ar  613  TYR613     -0.0201
    190  CD1      -96.3040  -59.9140  -45.8320 C.ar  613  TYR613     -0.0009
    191  CD2      -96.8810  -59.0790  -47.9940 C.ar  613  TYR613     -0.0009
    192  CE1      -97.5910  -59.6750  -45.3860 C.ar  613  TYR613      0.0417
    193  CE2      -98.1820  -58.8400  -47.5540 C.ar  613  TYR613      0.0417
    194  CZ       -98.5250  -59.1390  -46.2510 C.ar  613  TYR613      0.1957
    195  OH       -99.8070  -58.9090  -45.8020 O.3   613  TYR613     -0.2866
    196  N        -98.9710  -61.8270  -50.3280 N.3   615  ASP615     -0.1225
    197  CA      -100.0930  -60.9120  -50.5250 C.3   615  ASP615      0.1805
    198  C       -101.3370  -61.4390  -49.7980 C.2   615  ASP615      0.2598
    199  O       -101.7870  -62.5550  -50.0610 O.2   615  ASP615     -0.2718
    200  CB      -100.3850  -60.7630  -52.0230 C.3   615  ASP615      0.1424
    201  CG      -101.4370  -59.6940  -52.3270 C.2   615  ASP615      0.3668
    202  OD1     -102.2840  -59.9360  -53.2160 O.co2 615  ASP615     -0.2456
    203  OD2     -101.4050  -58.6090  -51.7020 O.co2 615  ASP615     -0.2456
    204  N       -101.8710  -60.6390  -48.8760 N.am  616  GLY616     -0.1957
    205  CA      -103.1050  -60.9690  -48.1850 C.3   616  GLY616      0.1869
    206  C       -102.9110  -61.7700  -46.9090 C.2   616  GLY616      0.2309
    207  O       -103.8710  -62.0840  -46.2020 O.2   616  GLY616     -0.2863
    208  N       -101.3500  -61.0490  -43.9880 N.3   618  LEU618     -0.1245
    209  CA      -101.7760  -60.2660  -42.8360 C.3   618  LEU618      0.1561
    210  C       -103.1850  -59.7240  -43.0700 C.2   618  LEU618      0.2260
    211  O       -103.7170  -58.9680  -42.2570 O.2   618  LEU618     -0.2867
    212  CB      -100.8000  -59.1200  -42.5610 C.3   618  LEU618      0.0270
    213  CG       -99.4180  -59.5140  -42.0330 C.3   618  LEU618      0.0019
    214  CD1      -98.4880  -58.3000  -41.9610 C.3   618  LEU618      0.0001
    215  CD2      -99.5340  -60.1840  -40.6730 C.3   618  LEU618      0.0001
@<TRIPOS>BOND
     1   157   158    1
     2   160   159    2
     3   159   158    1
     4   158   161    1
     5   129   128    2
     6   138   137    2
     7   128   127    1
     8   137   136    1
     9   135   136    1
    10   136   139    1
    11   127   126    1
    12   127   130    1
    13   172   171    2
    14   120   121    1
    15   139   140    1
    16   130   131    1
    17   123   122    2
    18   173   174    1
    19   173   170    1
    20   140   142   ar
    21   140   141   ar
    22   171   170    1
    23   133   132   ar
    24   122   121    1
    25   142   144   ar
    26   175   174    2
    27   141   143   ar
    28   202   201   ar
    29   121   124    1
    30   174   176   am
    31   144   145   ar
    32   170   169    1
    33   143   145   ar
    34   131   132    1
    35   132   134   ar
    36   201   200    1
    37   201   203   ar
    38   165   164    2
    39   200   197    1
    40   125   124    1
    41   115   114    2
    42   164   163    1
    43   114   113    1
    44   113   112    1
    45   113   116    1
    46   146   147    1
    47   197   196    1
    48   197   198    1
    49   119   117   am
    50   162   163    1
    51   199   198    2
    52   117   118    2
    53   117   116    1
    54   187   186    2
    55   163   166    1
    56   198   204   am
    57   166   168    1
    58   166   167    1
    59   150   147    1
    60   150   151    1
    61   147   148    1
    62    98    97    2
    63   149   148    2
    64   204   205    1
    65   186   185    1
    66    97    96    1
    67   180   179    2
    68   151   152    1
    69   184   185    1
    70   205   206    1
    71   191   193   ar
    72   191   189   ar
    73   152   153    1
    74   105   104    2
    75   109   108    2
    76    96    95    1
    77    96    99    1
    78   185   188    1
    79   188   189    1
    80   193   194   ar
    81     8     6    1
    82    95   101    1
    83   179   178    1
    84   102   103    1
    85   108   107    1
    86   103   104    1
    87   104   106   am
    88   189   190   ar
    89   206   207    2
    90   156   154    1
    91   177   178    1
    92   153   154    2
    93     6     5    1
    94    99   100    1
    95   106   107    1
    96   194   195    1
    97   194   192   ar
    98   107   110    1
    99   178   181    1
   100   154   155    1
   101     1     2    1
   102     5     2    1
   103     5     7    1
   104   101   100    1
   105   181   183    1
   106   181   182    1
   107   190   192   ar
   108     2     3    1
   109   110   111    1
   110     3     4    2
   111   208   209    1
   112    92    91    2
   113   210   209    1
   114   210   211    2
   115    78    77    1
   116    78    79    1
   117    19    17    1
   118   209   212    1
   119    93    94    1
   120    93    90    1
   121    91    90    1
   122   212   213    1
   123    80    79    2
   124    77    73   am
   125    79    81   am
   126   213   214    1
   127   213   215    1
   128    71    72    1
   129    17    18    1
   130    17    16    2
   131    90    89    1
   132    73    74    2
   133    73    72    1
   134    72    75    1
   135    81    82    1
   136    16    15    1
   137    29    28    1
   138    30    28    1
   139     9    10    1
   140    82    83    1
   141    82    85    1
   142    28    27    2
   143    87    86   ar
   144    13    14    1
   145    13    10    1
   146    14    15    1
   147    11    10    1
   148    11    12    2
   149    75    76    1
   150    84    83    2
   151    70    68   am
   152    37    38    1
   153    37    36    1
   154    86    85    1
   155    86    88   ar
   156    38    39    2
   157    27    26    1
   158    39    40    1
   159    39    41    1
   160    68    69    2
   161    68    67    1
   162    26    25    1
   163    36    35    1
   164    67    64    1
   165    34    33    2
   166    35    32    1
   167    45    44    2
   168    43    42    1
   169    43    44    1
   170    33    42   am
   171    33    32    1
   172    64    65    1
   173    64    63    1
   174    25    24    1
   175    24    21    1
   176    32    31    1
   177    65    66    2
   178    23    22    2
   179    21    22    1
   180    21    20    1
   181    54    53    1
   182    49    48    2
   183    53    52    1
   184    50    51    1
   185    50    47    1
   186    58    57    2
   187    48    47    1
   188    52    51    1
   189    47    46    1
   190    57    56    1
   191    56    59    1
   192    56    55    1
   193    59    60    1
   194    62    60   am
   195    60    61    2
