@<TRIPOS>MOLECULE
tmp/3o0qA02.pdb
 116 109 0 0 0
SMALL
GASTEIGER

@<TRIPOS>ATOM
      1  N        -91.7810  -51.9080   -3.9760 N.3   212  MET212     -0.1245
      2  CA       -92.6460  -50.8310   -3.5050 C.3   212  MET212      0.1570
      3  C        -92.5370  -49.6640   -4.4780 C.2   212  MET212      0.2261
      4  O        -91.4400  -49.2410   -4.8340 O.2   212  MET212     -0.2867
      5  CB       -92.2470  -50.3930   -2.0810 C.3   212  MET212      0.0387
      6  CG       -92.8580  -49.0710   -1.5800 C.3   212  MET212      0.0595
      7  SD       -94.6700  -49.0820   -1.4630 S.3   212  MET212     -0.1393
      8  CE       -94.9080  -49.9780    0.0810 C.3   212  MET212      0.0692
      9  N        -96.1620  -53.3780   -4.6070 N.3   235  ASN235     -0.1225
     10  CA       -97.1290  -52.7660   -3.7010 C.3   235  ASN235      0.1785
     11  C        -97.0700  -51.2720   -4.0450 C.2   235  ASN235      0.2597
     12  O        -96.0100  -50.7830   -4.4190 O.2   235  ASN235     -0.2718
     13  CB       -96.7160  -52.9490   -2.2370 C.3   235  ASN235      0.1169
     14  CG       -96.9360  -54.3650   -1.7220 C.2   235  ASN235      0.2627
     15  OD1      -97.8020  -55.1000   -2.2070 O.2   235  ASN235     -0.2716
     16  ND2      -96.1550  -54.7460   -0.7150 N.am  235  ASN235     -0.0877
     17  N        -98.1870  -50.5560   -3.9440 N.am  236  LEU236     -0.1966
     18  CA       -98.1950  -49.1070   -4.1820 C.3   236  LEU236      0.1728
     19  C        -98.6250  -48.3610   -2.9380 C.2   236  LEU236      0.2616
     20  O        -99.5540  -48.7810   -2.2740 O.2   236  LEU236     -0.2715
     21  CB       -99.1970  -48.7400   -5.2730 C.3   236  LEU236      0.0311
     22  CG       -98.8250  -48.7700   -6.7570 C.3   236  LEU236      0.0022
     23  CD1      -97.5730  -49.5560   -7.0160 C.3   236  LEU236      0.0001
     24  CD2      -99.9880  -49.2850   -7.5760 C.3   236  LEU236      0.0001
     25  N        -97.9950  -47.2170   -2.6770 N.am  237  SER237     -0.1950
     26  CA       -98.4290  -46.3420   -1.5900 C.3   237  SER237      0.1924
     27  C        -98.3690  -44.8920   -2.0660 C.2   237  SER237      0.2314
     28  O        -97.4730  -44.5050   -2.8320 O.2   237  SER237     -0.2863
     29  CB       -97.5650  -46.5410   -0.3360 C.3   237  SER237      0.2116
     30  OG       -97.8340  -47.7910    0.2880 O.3   237  SER237     -0.2180
     31  N       -107.1740  -53.4120   -2.1100 N.3   287  GLY287     -0.1210
     32  CA      -106.1100  -53.3740   -1.1220 C.3   287  GLY287      0.1956
     33  C       -104.9660  -52.4340   -1.4430 C.2   287  GLY287      0.2611
     34  O       -104.0320  -52.3090   -0.6570 O.2   287  GLY287     -0.2717
     35  N       -105.0290  -51.7680   -2.5940 N.am  288  ASP288     -0.1973
     36  CA      -104.0190  -50.7720   -2.9400 C.3   288  ASP288      0.1709
     37  C       -104.6840  -49.4710   -3.3670 C.2   288  ASP288      0.2293
     38  O       -105.8210  -49.4760   -3.8400 O.2   288  ASP288     -0.2864
     39  CB      -103.1090  -51.2780   -4.0680 C.3   288  ASP288      0.1436
     40  CG      -102.0870  -52.2960   -3.5910 C.2   288  ASP288      0.3671
     41  OD1     -102.2890  -53.5000   -3.8550 O.co2 288  ASP288     -0.2456
     42  OD2     -101.0780  -51.8960   -2.9630 O.co2 288  ASP288     -0.2456
     43  N       -101.6100  -48.0620   -0.4580 N.3   290  GLY290     -0.1225
     44  CA      -101.5200  -47.6930    0.9440 C.3   290  GLY290      0.1811
     45  C       -101.1730  -46.2210    1.0910 C.2   290  GLY290      0.2280
     46  O       -101.1200  -45.4750    0.1000 O.2   290  GLY290     -0.2866
     47  N        -90.6580  -52.8200    0.3660 N.3   314  PRO314     -0.2102
     48  CA       -91.9370  -53.4030   -0.0500 C.3   314  PRO314      0.1504
     49  C        -93.0340  -53.5220    1.0090 C.2   314  PRO314      0.2576
     50  O        -94.1940  -53.2980    0.6670 O.2   314  PRO314     -0.2718
     51  CB       -91.5340  -54.7910   -0.5590 C.3   314  PRO314      0.0282
     52  CG       -90.1930  -54.5460   -1.1550 C.3   314  PRO314      0.0208
     53  CD       -89.5250  -53.5360   -0.2500 C.3   314  PRO314      0.0893
     54  N        -92.7170  -53.8920    2.2400 N.am  315  CYS315     -0.1957
     55  CA       -93.8070  -54.0440    3.1990 C.3   315  CYS315      0.1843
     56  C        -93.9480  -52.8240    4.1140 C.2   315  CYS315      0.2626
     57  O        -94.7260  -52.8370    5.0680 O.2   315  CYS315     -0.2714
     58  CB       -93.6870  -55.3690    3.9590 C.3   315  CYS315      0.0997
     59  SG       -93.7610  -56.8110    2.8330 S.3   315  CYS315     -0.0797
     60  N        -93.1930  -51.7740    3.8000 N.am  316  GLY316     -0.1954
     61  CA       -93.3450  -50.4810    4.4470 C.3   316  GLY316      0.1869
     62  C        -92.6440  -50.3200    5.7830 C.2   316  GLY316      0.2309
     63  O        -92.6570  -49.2260    6.3710 O.2   316  GLY316     -0.2863
     64  N        -93.1690  -58.2230    8.6560 N.3   483  PRO483     -0.2116
     65  CA       -94.2420  -59.2170    8.5480 C.3   483  PRO483      0.1372
     66  C        -93.8150  -60.5950    9.1090 C.2   483  PRO483      0.2244
     67  O        -94.6470  -61.3390    9.6330 O.2   483  PRO483     -0.2868
     68  CB       -94.5060  -59.2860    7.0310 C.3   483  PRO483      0.0268
     69  CG       -94.0360  -57.9490    6.5050 C.3   483  PRO483      0.0207
     70  CD       -92.8140  -57.6320    7.3430 C.3   483  PRO483      0.0892
     71  N        -98.9480  -59.1800   14.3260 N.3   498  GLU498     -0.1245
     72  CA      -100.2900  -59.4570   13.8160 C.3   498  GLU498      0.1567
     73  C       -101.0090  -60.4540   14.7000 C.2   498  GLU498      0.2260
     74  O       -100.3910  -61.3440   15.2740 O.2   498  GLU498     -0.2867
     75  CB      -100.2250  -60.0110   12.3930 C.3   498  GLU498      0.0388
     76  CG       -99.6090  -59.0560   11.3710 C.3   498  GLU498      0.1160
     77  CD      -100.5280  -57.9040   11.0070 C.2   498  GLU498      0.3649
     78  OE1     -101.6810  -57.8660   11.4920 O.co2 498  GLU498     -0.2457
     79  OE2     -100.1000  -57.0340   10.2280 O.co2 498  GLU498     -0.2457
     80  N        -94.8870  -52.9980    9.8930 N.3   580  SER580     -0.1202
     81  CA       -95.7790  -53.6670    8.9540 C.3   580  SER580      0.2020
     82  C        -97.0200  -54.1040    9.6940 C.2   580  SER580      0.2619
     83  O        -96.9350  -54.9020   10.6200 O.2   580  SER580     -0.2717
     84  CB       -95.1150  -54.9110    8.3500 C.3   580  SER580      0.2103
     85  OG       -93.9220  -54.5650    7.6650 O.3   580  SER580     -0.2182
     86  N        -98.1680  -53.5900    9.2720 N.am  581  LYS581     -0.1965
     87  CA       -99.4330  -53.9110    9.9100 C.3   581  LYS581      0.1728
     88  C       -100.5200  -53.8320    8.8600 C.2   581  LYS581      0.2616
     89  O       -100.6750  -52.8090    8.2060 O.2   581  LYS581     -0.2715
     90  CB       -99.7370  -52.9050   11.0280 C.3   581  LYS581      0.0311
     91  CG      -101.0710  -53.1490   11.7400 C.3   581  LYS581      0.0038
     92  CD      -101.0180  -54.4130   12.5920 C.3   581  LYS581      0.0206
     93  CE      -102.3720  -54.7320   13.2300 C.3   581  LYS581      0.1093
     94  NZ      -103.1850  -55.5890   12.3210 N.3   581  LYS581     -0.1314
     95  N       -101.2750  -54.9100    8.7040 N.am  582  THR582     -0.1951
     96  CA      -102.4430  -54.8830    7.8340 C.3   582  THR582      0.1897
     97  C       -103.6560  -54.5130    8.6680 C.2   582  THR582      0.2313
     98  O       -103.9290  -55.1600    9.6800 O.2   582  THR582     -0.2863
     99  CB      -102.6480  -56.2440    7.1340 C.3   582  THR582      0.1794
    100  OG1     -101.5850  -56.4510    6.1930 O.3   582  THR582     -0.2208
    101  CG2     -103.9890  -56.2970    6.3940 C.3   582  THR582      0.0378
    102  N       -100.0460  -46.6260    6.4120 N.3   609  ILE609     -0.1231
    103  CA      -101.2620  -47.4280    6.5050 C.3   609  ILE609      0.1692
    104  C       -101.3810  -48.4040    5.3410 C.2   609  ILE609      0.2592
    105  O       -101.1160  -48.0470    4.1920 O.2   609  ILE609     -0.2718
    106  CB      -102.5170  -46.5270    6.5270 C.3   609  ILE609      0.0266
    107  CG1     -102.6080  -45.7790    7.8550 C.3   609  ILE609      0.0019
    108  CG2     -103.7880  -47.3600    6.2790 C.3   609  ILE609      0.0020
    109  CD1     -102.9580  -46.6790    9.0440 C.3   609  ILE609      0.0001
    110  N       -101.7540  -49.6430    5.6440 N.am  610  THR610     -0.1953
    111  CA      -102.1490  -50.6080    4.6210 C.3   610  THR610      0.1897
    112  C       -103.4700  -51.1860    5.0820 C.2   610  THR610      0.2313
    113  O       -103.5630  -51.6060    6.2280 O.2   610  THR610     -0.2863
    114  CB      -101.1470  -51.7730    4.5290 C.3   610  THR610      0.1794
    115  OG1      -99.8810  -51.2800    4.0820 O.3   610  THR610     -0.2208
    116  CG2     -101.6370  -52.8250    3.5450 C.3   610  THR610      0.0378
@<TRIPOS>BOND
     1    24    22    1
     2    23    22    1
     3    22    21    1
     4    21    18    1
     5     4     3    2
     6     9    10    1
     7     3     2    1
     8    12    11    2
     9    18    17    1
    10    18    19    1
    11    39    40    1
    12    39    36    1
    13    11    17   am
    14    11    10    1
    15     1     2    1
    16    41    40   ar
    17    38    37    2
    18    10    13    1
    19    40    42   ar
    20     2     5    1
    21    37    36    1
    22    36    35    1
    23    19    25   am
    24    19    20    2
    25    28    27    2
    26    25    26    1
    27    35    33   am
    28    13    14    1
    29    15    14    2
    30    31    32    1
    31     5     6    1
    32    27    26    1
    33    14    16   am
    34    26    29    1
    35     6     7    1
    36     7     8    1
    37    33    32    1
    38    33    34    2
    39    52    51    1
    40    52    53    1
    41    51    48    1
    42    43    44    1
    43    29    30    1
    44    53    47    1
    45    48    47    1
    46    48    49    1
    47    46    45    2
    48    50    49    2
    49    44    45    1
    50    49    54   am
    51    54    55    1
    52    59    58    1
    53    55    58    1
    54    55    56    1
    55   116   114    1
    56    60    56   am
    57    60    61    1
    58   115   114    1
    59    56    57    2
    60   105   104    2
    61    61    62    1
    62   114   111    1
    63   111   112    1
    64   111   110    1
    65   112   113    2
    66   104   110   am
    67   104   103    1
    68    62    63    2
    69   100    99    1
    70   108   106    1
    71   101    99    1
    72   102   103    1
    73    69    68    1
    74    69    70    1
    75   103   106    1
    76   106   107    1
    77    68    65    1
    78    99    96    1
    79    70    64    1
    80    85    84    1
    81    96    97    1
    82    96    95    1
    83   107   109    1
    84    89    88    2
    85    84    81    1
    86    65    64    1
    87    65    66    1
    88    97    98    2
    89    95    88   am
    90    88    87    1
    91    81    82    1
    92    81    80    1
    93    66    67    2
    94    86    82   am
    95    86    87    1
    96    82    83    2
    97    87    90    1
    98    79    77   ar
    99    77    76    1
   100    77    78   ar
   101    90    91    1
   102    76    75    1
   103    91    92    1
   104    94    93    1
   105    75    72    1
   106    92    93    1
   107    72    71    1
   108    72    73    1
   109    73    74    2
