@<TRIPOS>MOLECULE
tmp/3o0uA00.pdb
 117 111 0 0 0
SMALL
GASTEIGER

@<TRIPOS>ATOM
      1  N        -12.5150   12.9630  -11.0960 N.3    19  GLN19      -0.1245
      2  CA       -13.9220   12.5480  -11.1630 C.3    19  GLN19       0.1566
      3  C        -14.8690   13.6010  -10.5880 C.2    19  GLN19       0.2260
      4  O        -16.0940   13.5210  -10.7650 O.2    19  GLN19      -0.2867
      5  CB       -14.1280   11.2390  -10.4080 C.3    19  GLN19       0.0367
      6  CG       -13.8340   11.3610   -8.9030 C.3    19  GLN19       0.0905
      7  CD       -13.9800   10.0560   -8.1740 C.2    19  GLN19       0.2608
      8  OE1      -14.9870    9.8140   -7.5130 O.2    19  GLN19      -0.2717
      9  NE2      -12.9740    9.2270   -8.2530 N.am   19  GLN19      -0.0878
     10  N        -19.6080    9.9040   -7.7380 N.3    23  GLY23      -0.1225
     11  CA       -19.0000    8.6430   -7.3310 C.3    23  GLY23       0.1811
     12  C        -18.7150    7.7170   -8.5090 C.2    23  GLY23       0.2280
     13  O        -19.1800    6.5920   -8.5400 O.2    23  GLY23      -0.2866
     14  N        -15.5980    6.7160   -9.5430 N.3    25  CYS25      -0.1235
     15  CA       -14.2650    6.0890   -9.4470 C.3    25  CYS25       0.1677
     16  C        -14.2080    4.8160  -10.3150 C.2    25  CYS25       0.2270
     17  O        -13.2280    4.5550  -11.0270 O.2    25  CYS25      -0.2867
     18  CB       -13.9510    5.7190   -7.9960 C.3    25  CYS25       0.0956
     19  SG       -15.2250    4.6930   -7.0770 S.3    25  CYS25      -0.0801
     20  N        -24.9370   -0.6460  -12.9090 N.3    60  ASN60      -0.1225
     21  CA       -24.2150    0.1590  -11.9360 C.3    60  ASN60       0.1785
     22  C        -25.0890    1.3310  -11.4910 C.2    60  ASN60       0.2597
     23  O        -26.2130    1.4960  -12.0150 O.2    60  ASN60      -0.2718
     24  CB       -22.8890    0.6230  -12.5510 C.3    60  ASN60       0.1169
     25  CG       -21.7600   -0.3850  -12.3500 C.2    60  ASN60       0.2627
     26  OD1      -20.7090   -0.2790  -12.9820 O.2    60  ASN60      -0.2716
     27  ND2      -21.9850   -1.3710  -11.5010 N.am   60  ASN60      -0.0877
     28  N        -24.5970    2.1500  -10.5450 N.am   61  ASP61      -0.1974
     29  CA       -25.4180    3.2470   -9.9760 C.3    61  ASP61       0.1709
     30  C        -24.9560    4.6840  -10.3200 C.2    61  ASP61       0.2293
     31  O        -25.2190    5.6340   -9.5790 O.2    61  ASP61      -0.2864
     32  CB       -25.5190    3.0440   -8.4620 C.3    61  ASP61       0.1436
     33  CG       -26.1010    1.6970   -8.1020 C.2    61  ASP61       0.3671
     34  OD1      -27.1530    1.3290   -8.6910 O.co2  61  ASP61      -0.2456
     35  OD2      -25.4810    0.9950   -7.2620 O.co2  61  ASP61      -0.2456
     36  N        -23.2830    8.0550  -10.6010 N.3    63  CYS63      -0.1221
     37  CA       -22.5070    8.8210   -9.6200 C.3    63  CYS63       0.1808
     38  C        -22.6380    8.2990   -8.1460 C.2    63  CYS63       0.2602
     39  O        -22.0000    8.8280   -7.2250 O.2    63  CYS63      -0.2717
     40  CB       -22.8690   10.3170   -9.7300 C.3    63  CYS63       0.0970
     41  SG       -22.2560   11.0930  -11.1870 S.3    63  CYS63      -0.0800
     42  N        -23.4440    7.2500   -7.9440 N.am   64  GLY64      -0.1942
     43  CA       -23.6040    6.6030   -6.6400 C.3    64  GLY64       0.2014
     44  C        -22.8030    5.3250   -6.5310 C.2    64  GLY64       0.2639
     45  O        -22.9100    4.6020   -5.5520 O.2    64  GLY64      -0.2714
     46  N        -21.9540    5.0580   -7.5170 N.am   65  GLY65      -0.1939
     47  CA       -20.9750    3.9920   -7.3830 C.3    65  GLY65       0.2014
     48  C        -21.2720    2.9000   -8.3510 C.2    65  GLY65       0.2639
     49  O        -22.1800    3.0240   -9.1570 O.2    65  GLY65      -0.2714
     50  N        -20.4720    1.8440   -8.2980 N.am   66  GLY66      -0.1939
     51  CA       -20.6000    0.7260   -9.2550 C.3    66  GLY66       0.2014
     52  C        -19.3900   -0.1850   -9.2250 C.2    66  GLY66       0.2639
     53  O        -18.3980    0.1080   -8.5530 O.2    66  GLY66      -0.2714
     54  N        -19.4850   -1.2880   -9.9680 N.am   67  TYR67      -0.1959
     55  CA       -18.4220   -2.2890  -10.1190 C.3    67  TYR67       0.1771
     56  C        -17.7690   -2.2450  -11.4910 C.2    67  TYR67       0.2619
     57  O        -18.4380   -1.9840  -12.4700 O.2    67  TYR67      -0.2715
     58  CB       -19.0060   -3.6760   -9.9070 C.3    67  TYR67       0.0574
     59  CG       -19.5100   -3.8930   -8.5180 C.ar   67  TYR67      -0.0198
     60  CD1      -20.8600   -3.9700   -8.2500 C.ar   67  TYR67      -0.0009
     61  CD2      -18.6250   -3.9710   -7.4600 C.ar   67  TYR67      -0.0009
     62  CE1      -21.3160   -4.1700   -6.9650 C.ar   67  TYR67       0.0417
     63  CE2      -19.0620   -4.1610   -6.1750 C.ar   67  TYR67       0.0417
     64  CZ       -20.4030   -4.2560   -5.9330 C.ar   67  TYR67       0.1957
     65  OH       -20.8050   -4.4570   -4.6570 O.3    67  TYR67      -0.2866
     66  N        -16.4700   -2.5560  -11.5550 N.am   68  MET68      -0.1977
     67  CA       -15.7080   -2.5080  -12.8110 C.3    68  MET68       0.1605
     68  C        -16.0640   -3.6900  -13.7180 C.2    68  MET68       0.2287
     69  O        -16.0990   -3.5390  -14.9340 O.2    68  MET68      -0.2864
     70  CB       -14.2000   -2.4620  -12.5190 C.3    68  MET68       0.0413
     71  CG       -13.7760   -1.2420  -11.6690 C.3    68  MET68       0.0598
     72  SD       -14.0080   -1.3650   -9.8710 S.3    68  MET68      -0.1393
     73  CE       -12.5550   -2.2830   -9.3440 C.3    68  MET68       0.0692
     74  N        -10.3630   -2.5500   -6.0700 N.3   134  ALA134     -0.1245
     75  CA       -11.2410   -1.8710   -5.1560 C.3   134  ALA134      0.1562
     76  C        -10.5970   -1.8340   -3.7780 C.2   134  ALA134      0.2260
     77  O         -9.9350   -2.8260   -3.3660 O.2   134  ALA134     -0.2867
     78  CB       -12.6040   -2.5370   -5.1150 C.3   134  ALA134      0.0290
     79  N        -15.1390   -2.0200    0.9590 N.3   160  LEU160     -0.1231
     80  CA       -14.6710   -1.5430   -0.3400 C.3   160  LEU160      0.1693
     81  C        -15.5920   -0.4510   -0.7770 C.2   160  LEU160      0.2592
     82  O        -16.7660   -0.7000   -1.0270 O.2   160  LEU160     -0.2718
     83  CB       -14.6350   -2.6730   -1.3930 C.3   160  LEU160      0.0284
     84  CG       -13.8100   -3.9100   -0.9960 C.3   160  LEU160      0.0019
     85  CD1      -13.8680   -4.9650   -2.0910 C.3   160  LEU160      0.0001
     86  CD2      -12.3580   -3.5580   -0.6520 C.3   160  LEU160      0.0001
     87  N        -15.0680    0.7640   -0.8740 N.am  161  ASN161     -0.1960
     88  CA       -15.8740    1.9460   -1.1360 C.3   161  ASN161      0.1819
     89  C        -15.2700    2.8800   -2.2260 C.2   161  ASN161      0.2621
     90  O        -15.7950    3.9800   -2.5450 O.2   161  ASN161     -0.2715
     91  CB       -16.0760    2.6570    0.2060 C.3   161  ASN161      0.1195
     92  CG       -14.7680    2.9280    0.9060 C.2   161  ASN161      0.2630
     93  OD1      -13.8720    3.5480    0.3290 O.2   161  ASN161     -0.2716
     94  ND2      -14.6230    2.4200    2.1050 N.am  161  ASN161     -0.0877
     95  N        -14.1670    2.4220   -2.8100 N.am  162  HIS162     -0.1959
     96  CA       -13.4580    3.2010   -3.7820 C.3   162  HIS162      0.1787
     97  C        -12.7080    2.2840   -4.7450 C.2   162  HIS162      0.2620
     98  O        -12.3080    1.1890   -4.3590 O.2   162  HIS162     -0.2715
     99  CB       -12.5330    4.1980   -3.0770 C.3   162  HIS162      0.0785
    100  CG       -11.8610    5.1600   -4.0040 C.ar  162  HIS162      0.0821
    101  ND1      -12.5490    5.9210   -4.9200 N.ar  162  HIS162     -0.2267
    102  CD2      -10.5630    5.5270   -4.1120 C.ar  162  HIS162      0.1154
    103  CE1      -11.7000    6.6740   -5.5910 C.ar  162  HIS162      0.1986
    104  NE2      -10.4860    6.4560   -5.1190 N.ar  162  HIS162     -0.2212
    105  N        -12.5720    2.7450   -5.9910 N.am  163  ALA163     -0.1977
    106  CA       -12.0050    1.9970   -7.0910 C.3   163  ALA163      0.1597
    107  C        -10.9330    2.8090   -7.7580 C.2   163  ALA163      0.2287
    108  O        -11.1400    3.9780   -8.0820 O.2   163  ALA163     -0.2864
    109  CB       -13.0790    1.6350   -8.1310 C.3   163  ALA163      0.0319
    110  N        -11.2010   -7.4170   -4.8430 N.3   209  LEU209     -0.1245
    111  CA       -12.0630   -7.1210   -6.0030 C.3   209  LEU209      0.1561
    112  C        -11.2610   -6.5170   -7.1610 C.2   209  LEU209      0.2260
    113  O        -11.5360   -5.4010   -7.6370 O.2   209  LEU209     -0.2867
    114  CB       -13.2270   -6.2050   -5.6030 C.3   209  LEU209      0.0270
    115  CG       -14.5050   -6.3680   -6.4290 C.3   209  LEU209      0.0019
    116  CD1      -15.0730   -7.8030   -6.3490 C.3   209  LEU209      0.0001
    117  CD2      -15.5610   -5.3250   -6.0030 C.3   209  LEU209      0.0001
@<TRIPOS>BOND
     1    69    68    2
     2    68    67    1
     3    26    25    2
     4    20    21    1
     5    67    70    1
     6    67    66    1
     7    24    25    1
     8    24    21    1
     9    70    71    1
    10    57    56    2
    11    25    27   am
    12    23    22    2
    13    21    22    1
    14    71    72    1
    15    66    56   am
    16    56    55    1
    17    22    28   am
    18    41    40    1
    19     2     1    1
    20     2     3    1
    21     2     5    1
    22    17    16    2
    23     4     3    2
    24    36    37    1
    25    28    29    1
    26     5     6    1
    27    30    29    1
    28    30    31    2
    29    16    15    1
    30    55    54    1
    31    55    58    1
    32    29    32    1
    33    54    52   am
    34    58    59    1
    35    72    73    1
    36    40    37    1
    37    37    38    1
    38    14    15    1
    39    15    18    1
    40    51    52    1
    41    51    50    1
    42    52    53    2
    43    49    48    2
    44     6     7    1
    45    34    33   ar
    46    13    12    2
    47    59    60   ar
    48    59    61   ar
    49    12    11    1
    50    32    33    1
    51    48    50   am
    52    48    47    1
    53     9     7   am
    54    60    62   ar
    55     7     8    2
    56    38    42   am
    57    38    39    2
    58   109   106    1
    59    33    35   ar
    60   108   107    2
    61    18    19    1
    62    42    43    1
    63   107   106    1
    64    10    11    1
    65   113   112    2
    66    46    47    1
    67    46    44   am
    68    61    63   ar
    69   112   111    1
    70   106   105    1
    71    62    64   ar
    72    43    44    1
    73    44    45    2
    74   115   116    1
    75   115   117    1
    76   115   114    1
    77    63    64   ar
    78    74    75    1
    79   111   114    1
    80   111   110    1
    81   105    97   am
    82    64    65    1
    83   103   104   ar
    84   103   101   ar
    85    75    78    1
    86    75    76    1
    87   104   102   ar
    88   101   100   ar
    89    97    98    2
    90    97    96    1
    91   102   100   ar
    92   100    99    1
    93    96    99    1
    94    96    95    1
    95    76    77    2
    96    95    89   am
    97    90    89    2
    98    89    88    1
    99    85    84    1
   100    83    84    1
   101    83    80    1
   102    88    87    1
   103    88    91    1
   104    82    81    2
   105    84    86    1
   106    87    81   am
   107    81    80    1
   108    80    79    1
   109    91    92    1
   110    93    92    2
   111    92    94   am
