@<TRIPOS>MOLECULE
tmp/3o0xA00.pdb
 170 162 0 0 0
SMALL
GASTEIGER

@<TRIPOS>ATOM
      1  N         -1.6050   10.9320   31.0440 N.3    57  PHE57      -0.1241
      2  CA        -0.2590   10.4940   30.6860 C.3    57  PHE57       0.1605
      3  C          0.7990   11.3680   31.3680 C.2    57  PHE57       0.2264
      4  O          0.5920   12.5590   31.5740 O.2    57  PHE57      -0.2867
      5  CB        -0.0640   10.5010   29.1670 C.3    57  PHE57       0.0534
      6  CG        -0.8520    9.4330   28.4480 C.ar   57  PHE57      -0.0203
      7  CD1       -0.3510    8.1350   28.3450 C.ar   57  PHE57      -0.0042
      8  CD2       -2.0820    9.7280   27.8660 C.ar   57  PHE57      -0.0042
      9  CE1       -1.0670    7.1390   27.6760 C.ar   57  PHE57      -0.0003
     10  CE2       -2.8120    8.7400   27.1860 C.ar   57  PHE57      -0.0003
     11  CZ        -2.3000    7.4400   27.0970 C.ar   57  PHE57      -0.0000
     12  N         -5.2730    1.1860   38.0130 N.3    88  CYS88      -0.1221
     13  CA        -4.5820    1.0360   36.7400 C.3    88  CYS88       0.1808
     14  C         -3.5370    2.1410   36.5970 C.2    88  CYS88       0.2602
     15  O         -3.8650    3.3360   36.6970 O.2    88  CYS88      -0.2717
     16  CB        -5.5810    1.0840   35.5780 C.3    88  CYS88       0.0970
     17  SG        -4.8240    1.3170   33.9490 S.3    88  CYS88      -0.0800
     18  N         -2.2860    1.7540   36.3590 N.am   89  GLY89      -0.1942
     19  CA        -1.2250    2.7410   36.2510 C.3    89  GLY89       0.2014
     20  C          0.1660    2.1550   36.2380 C.2    89  GLY89       0.2639
     21  O          0.4410    1.1610   36.9220 O.2    89  GLY89      -0.2714
     22  N          1.0400    2.7670   35.4460 N.am   90  GLY90      -0.1954
     23  CA         2.4050    2.2910   35.3150 C.3    90  GLY90       0.1869
     24  C          3.2720    2.7090   36.4720 C.2    90  GLY90       0.2309
     25  O          2.9620    3.6680   37.1610 O.2    90  GLY90      -0.2863
     26  N          6.9470    1.9590   35.8950 N.3    92  TYR92      -0.1241
     27  CA         8.2160    1.5380   35.2990 C.3    92  TYR92       0.1605
     28  C          9.0080    2.7180   34.7400 C.2    92  TYR92       0.2264
     29  O          8.4670    3.8030   34.5460 O.2    92  TYR92      -0.2867
     30  CB         7.9700    0.5010   34.1840 C.3    92  TYR92       0.0534
     31  CG         6.8620    0.8810   33.2470 C.ar   92  TYR92      -0.0201
     32  CD1        5.5650    0.4020   33.4510 C.ar   92  TYR92      -0.0009
     33  CD2        7.0920    1.7470   32.1670 C.ar   92  TYR92      -0.0009
     34  CE1        4.5310    0.7610   32.6000 C.ar   92  TYR92       0.0417
     35  CE2        6.0590    2.1140   31.3060 C.ar   92  TYR92       0.0417
     36  CZ         4.7780    1.6040   31.5310 C.ar   92  TYR92       0.1957
     37  OH         3.7310    1.9340   30.7150 O.3    92  TYR92      -0.2866
     38  N         12.0840    3.9520   31.6820 N.3    94  LYS94      -0.1245
     39  CA        12.6990    3.6370   30.4060 C.3    94  LYS94       0.1561
     40  C         14.0920    4.2520   30.3610 C.2    94  LYS94       0.2260
     41  O         14.3050    5.3700   30.8380 O.2    94  LYS94      -0.2867
     42  CB        11.8590    4.1850   29.2480 C.3    94  LYS94       0.0271
     43  CG        10.6170    3.3680   28.9020 C.3    94  LYS94       0.0035
     44  CD         9.7440    4.1290   27.9090 C.3    94  LYS94       0.0206
     45  CE         8.6170    3.2480   27.3450 C.3    94  LYS94       0.1093
     46  NZ         7.7420    4.0060   26.3780 N.3    94  LYS94      -0.1314
     47  N          5.3100    8.1230   24.5740 N.3   106  GLY106     -0.1210
     48  CA         5.1860    6.6680   24.5940 C.3   106  GLY106      0.1956
     49  C          5.8920    5.9130   23.4780 C.2   106  GLY106      0.2611
     50  O          6.3480    4.7870   23.6830 O.2   106  GLY106     -0.2717
     51  N          5.9740    6.5110   22.2930 N.am  107  ASP107     -0.1973
     52  CA         6.5870    5.8190   21.1510 C.3   107  ASP107      0.1709
     53  C          8.0100    6.2720   20.8430 C.2   107  ASP107      0.2293
     54  O          8.5830    5.8580   19.8360 O.2   107  ASP107     -0.2864
     55  CB         5.7060    5.9140   19.8980 C.3   107  ASP107      0.1436
     56  CG         4.3220    5.3370   20.1140 C.2   107  ASP107      0.3671
     57  OD1        4.1750    4.3740   20.9060 O.co2 107  ASP107     -0.2456
     58  OD2        3.3770    5.8600   19.4940 O.co2 107  ASP107     -0.2456
     59  N         13.4230    3.5920   22.8670 N.3   110  TYR110     -0.1241
     60  CA        14.1890    3.3790   24.0980 C.3   110  TYR110      0.1605
     61  C         15.0830    2.1380   23.9750 C.2   110  TYR110      0.2264
     62  O         14.9000    1.3150   23.0600 O.2   110  TYR110     -0.2867
     63  CB        13.2460    3.2580   25.3160 C.3   110  TYR110      0.0534
     64  CG        12.2060    2.1470   25.1940 C.ar  110  TYR110     -0.0201
     65  CD1       10.9420    2.4000   24.6610 C.ar  110  TYR110     -0.0009
     66  CD2       12.4960    0.8460   25.5980 C.ar  110  TYR110     -0.0009
     67  CE1        9.9960    1.3950   24.5360 C.ar  110  TYR110      0.0417
     68  CE2       11.5590   -0.1680   25.4670 C.ar  110  TYR110      0.0417
     69  CZ        10.3140    0.1160   24.9380 C.ar  110  TYR110      0.1957
     70  OH         9.3900   -0.8840   24.8120 O.3   110  TYR110     -0.2866
     71  N          3.8430   -2.8030   36.2840 N.3   116  ASP116     -0.1225
     72  CA         2.6870   -2.2650   35.5550 C.3   116  ASP116      0.1805
     73  C          1.4510   -2.9280   36.1630 C.2   116  ASP116      0.2598
     74  O          1.4440   -4.1410   36.4010 O.2   116  ASP116     -0.2718
     75  CB         2.7850   -2.5750   34.0470 C.3   116  ASP116      0.1424
     76  CG         1.7910   -1.7690   33.1970 C.2   116  ASP116      0.3668
     77  OD1        1.2140   -0.7610   33.6770 O.co2 116  ASP116     -0.2456
     78  OD2        1.5800   -2.1570   32.0250 O.co2 116  ASP116     -0.2456
     79  N          0.4410   -2.1220   36.4660 N.am  117  ILE117     -0.1966
     80  CA        -0.8220   -2.6010   37.0300 C.3   117  ILE117      0.1727
     81  C         -1.9360   -2.0390   36.1540 C.2   117  ILE117      0.2616
     82  O         -1.9230   -0.8540   35.8240 O.2   117  ILE117     -0.2715
     83  CB        -0.9890   -2.1450   38.5260 C.3   117  ILE117      0.0290
     84  CG1        0.0980   -2.7880   39.4100 C.3   117  ILE117      0.0022
     85  CG2       -2.4250   -2.3890   39.0640 C.3   117  ILE117      0.0023
     86  CD1        0.1010   -2.3350   40.8850 C.3   117  ILE117      0.0001
     87  N         -2.8620   -2.8950   35.7340 N.am  118  CYS118     -0.1968
     88  CA        -4.0380   -2.4380   34.9930 C.3   118  CYS118      0.1712
     89  C         -5.2060   -3.3830   35.2320 C.2   118  CYS118      0.2296
     90  O         -5.3910   -4.3530   34.5080 O.2   118  CYS118     -0.2864
     91  CB        -3.7360   -2.3180   33.5070 C.3   118  CYS118      0.0983
     92  SG        -4.9830   -1.3770   32.6220 S.3   118  CYS118     -0.0798
     93  N         -3.7370   -7.3520   34.7860 N.3   122  THR122     -0.1218
     94  CA        -2.3540   -6.9320   34.5470 C.3   122  THR122      0.1862
     95  C         -1.7340   -6.5570   35.8920 C.2   122  THR122      0.2287
     96  O         -2.1520   -5.5860   36.5250 O.2   122  THR122     -0.2866
     97  CB        -2.2550   -5.7360   33.5500 C.3   122  THR122      0.1770
     98  OG1       -2.7850   -6.1150   32.2740 O.3   122  THR122     -0.2211
     99  CG2       -0.7990   -5.2810   33.3590 C.3   122  THR122      0.0375
    100  N          7.5460   -5.5340   33.9670 N.3   126  HIS126     -0.1241
    101  CA         8.0880   -5.5270   32.6160 C.3   126  HIS126      0.1621
    102  C          9.5970   -5.5300   32.6210 C.2   126  HIS126      0.2264
    103  O         10.2290   -4.8690   33.4520 O.2   126  HIS126     -0.2867
    104  CB         7.5800   -4.3230   31.8290 C.3   126  HIS126      0.0745
    105  CG         6.2270   -4.5350   31.2310 C.ar  126  HIS126      0.0817
    106  ND1        6.0070   -5.4150   30.1940 N.ar  126  HIS126     -0.2268
    107  CD2        5.0220   -3.9960   31.5310 C.ar  126  HIS126      0.1154
    108  CE1        4.7230   -5.4090   29.8800 C.ar  126  HIS126      0.1986
    109  NE2        4.1060   -4.5540   30.6730 N.ar  126  HIS126     -0.2212
    110  N         11.8930   -5.2100   29.2210 N.3   128  ILE128     -0.1245
    111  CA        11.8600   -5.1270   27.7600 C.3   128  ILE128      0.1561
    112  C         13.2190   -4.6730   27.2220 C.2   128  ILE128      0.2260
    113  O         13.7440   -3.6340   27.6440 O.2   128  ILE128     -0.2867
    114  CB        10.7660   -4.1350   27.2650 C.3   128  ILE128      0.0252
    115  CG1        9.3940   -4.4930   27.8600 C.3   128  ILE128      0.0019
    116  CG2       10.7190   -4.0990   25.7300 C.3   128  ILE128      0.0019
    117  CD1        8.2400   -3.6370   27.3590 C.3   128  ILE128      0.0001
    118  N         11.1250   -4.0760   20.1940 N.3   135  ASN135     -0.1240
    119  CA        11.0220   -4.1390   21.6630 C.3   135  ASN135      0.1653
    120  C         10.5560   -5.5270   22.1130 C.2   135  ASN135      0.2266
    121  O          9.4130   -5.9250   21.8540 O.2   135  ASN135     -0.2867
    122  CB        10.0840   -3.0500   22.2090 C.3   135  ASN135      0.1155
    123  CG        10.4480   -1.6620   21.7260 C.2   135  ASN135      0.2627
    124  OD1       11.6240   -1.2770   21.7020 O.2   135  ASN135     -0.2716
    125  ND2        9.4370   -0.8940   21.3410 N.am  135  ASN135     -0.0877
    126  N          9.6010   -8.2860   24.9080 N.3   137  LEU137     -0.1245
    127  CA         9.1110   -8.4600   26.2720 C.3   137  LEU137      0.1561
    128  C          9.5930   -9.7840   26.8400 C.2   137  LEU137      0.2260
    129  O          9.6150  -10.7870   26.1310 O.2   137  LEU137     -0.2867
    130  CB         7.5780   -8.4360   26.2890 C.3   137  LEU137      0.0270
    131  CG         6.8650   -7.0800   26.3030 C.3   137  LEU137      0.0019
    132  CD1        7.1480   -6.2860   25.0300 C.3   137  LEU137      0.0001
    133  CD2        5.3670   -7.2850   26.4730 C.3   137  LEU137      0.0001
    134  N          7.4970    7.4060   31.5530 N.3   200  ASP200     -0.1225
    135  CA         6.4220    7.4970   30.5660 C.3   200  ASP200      0.1805
    136  C          5.2940    6.6060   31.0520 C.2   200  ASP200      0.2598
    137  O          5.3920    5.3810   30.9550 O.2   200  ASP200     -0.2718
    138  CB         6.9190    7.0270   29.1850 C.3   200  ASP200      0.1424
    139  CG         5.7980    6.4280   28.3130 C.2   200  ASP200      0.3668
    140  OD1        4.7660    7.1140   28.0760 O.co2 200  ASP200     -0.2456
    141  OD2        5.9640    5.2730   27.8520 O.co2 200  ASP200     -0.2456
    142  N          4.2270    7.2160   31.5660 N.am  201  LEU201     -0.1966
    143  CA         3.1960    6.4810   32.2950 C.3   201  LEU201      0.1728
    144  C          1.7960    6.9300   31.9300 C.2   201  LEU201      0.2616
    145  O          1.5890    8.0780   31.5520 O.2   201  LEU201     -0.2715
    146  CB         3.3780    6.6700   33.8150 C.3   201  LEU201      0.0311
    147  CG         4.7630    6.5650   34.4580 C.3   201  LEU201      0.0022
    148  CD1        4.7000    7.0370   35.9180 C.3   201  LEU201      0.0001
    149  CD2        5.2800    5.1400   34.3590 C.3   201  LEU201      0.0001
    150  N          0.8510    6.0010   32.0250 N.am  202  TRP202     -0.1974
    151  CA        -0.5700    6.3110   32.0950 C.3   202  TRP202      0.1640
    152  C         -1.0330    5.9080   33.4990 C.2   202  TRP202      0.2290
    153  O         -0.6160    4.8680   33.9980 O.2   202  TRP202     -0.2864
    154  CB        -1.3600    5.5230   31.0360 C.3   202  TRP202      0.0576
    155  CG        -2.8410    5.5470   31.2760 C.ar  202  TRP202      0.0006
    156  CD1       -3.6030    4.5500   31.8230 C.ar  202  TRP202      0.0946
    157  CD2       -3.7350    6.6470   31.0290 C.ar  202  TRP202      0.0152
    158  NE1       -4.9110    4.9570   31.9190 N.ar  202  TRP202     -0.2442
    159  CE2       -5.0230    6.2380   31.4450 C.ar  202  TRP202      0.0810
    160  CE3       -3.5710    7.9300   30.5000 C.ar  202  TRP202      0.0012
    161  CZ2       -6.1520    7.0650   31.3260 C.ar  202  TRP202      0.0191
    162  CZ3       -4.6990    8.7650   30.3820 C.ar  202  TRP202      0.0001
    163  CH2       -5.9670    8.3230   30.7920 C.ar  202  TRP202      0.0015
    164  N         -4.7690    5.9300   36.0520 N.3   204  VAL204     -0.1245
    165  CA        -6.1650    6.2860   36.3470 C.3   204  VAL204      0.1561
    166  C         -6.2240    6.9900   37.7120 C.2   204  VAL204      0.2260
    167  O         -6.2150    8.2110   37.7510 O.2   204  VAL204     -0.2867
    168  CB        -7.1420    5.0900   36.1950 C.3   204  VAL204      0.0252
    169  CG1       -8.5970    5.5480   36.3060 C.3   204  VAL204      0.0019
    170  CG2       -6.9290    4.4240   34.8360 C.3   204  VAL204      0.0019
@<TRIPOS>BOND
     1    58    56   ar
     2    54    53    2
     3    55    56    1
     4    55    52    1
     5    56    57   ar
     6   118   119    1
     7    53    52    1
     8    52    51    1
     9   125   123   am
    10   119   120    1
    11   119   122    1
    12   124   123    2
    13   123   122    1
    14   121   120    2
    15    51    49   am
    16    59    60    1
    17    62    61    2
    18    49    50    2
    19    49    48    1
    20    61    60    1
    21    60    63    1
    22    67    65   ar
    23    67    69   ar
    24    47    48    1
    25    65    64   ar
    26    70    69    1
    27   126   127    1
    28    69    68   ar
    29   132   131    1
    30    64    63    1
    31    64    66   ar
    32    68    66   ar
    33   116   114    1
    34   129   128    2
    35   127   130    1
    36   127   128    1
    37   130   131    1
    38   131   133    1
    39    46    45    1
    40    11    10   ar
    41    11     9   ar
    42    10     8   ar
    43   112   113    2
    44   112   111    1
    45   114   111    1
    46   114   115    1
    47    45    44    1
    48   117   115    1
    49     9     7   ar
    50   111   110    1
    51   141   139   ar
    52     8     6   ar
    53    44    43    1
    54   140   139   ar
    55   139   138    1
    56     7     6   ar
    57     6     5    1
    58    43    42    1
    59     5     2    1
    60   138   135    1
    61    42    39    1
    62   108   106   ar
    63   108   109   ar
    64   106   105   ar
    65    40    39    1
    66    40    41    2
    67   162   160   ar
    68   162   163   ar
    69    39    38    1
    70   160   157   ar
    71   135   136    1
    72   135   134    1
    73   109   107   ar
    74     2     1    1
    75     2     3    1
    76    37    36    1
    77   163   161   ar
    78   137   136    2
    79   157   155   ar
    80   157   159   ar
    81   154   155    1
    82   154   151    1
    83   136   142   am
    84   105   107   ar
    85   105   104    1
    86   155   156   ar
    87    35    36   ar
    88    35    33   ar
    89   161   159   ar
    90     3     4    2
    91   159   158   ar
    92    36    34   ar
    93   145   144    2
    94   142   143    1
    95   156   158   ar
    96   104   101    1
    97   144   150   am
    98   144   143    1
    99   150   151    1
   100    78    76   ar
   101   151   152    1
   102    33    31   ar
   103    98    97    1
   104   143   146    1
   105    34    32   ar
   106   101   102    1
   107   101   100    1
   108   102   103    2
   109    92    91    1
   110    76    77   ar
   111    76    75    1
   112    31    32   ar
   113    31    30    1
   114    99    97    1
   115   152   153    2
   116    91    88    1
   117    97    94    1
   118   146   147    1
   119    17    16    1
   120    75    72    1
   121    30    27    1
   122   149   147    1
   123   147   148    1
   124    90    89    2
   125    29    28    2
   126    94    93    1
   127    94    95    1
   128    28    27    1
   129   170   168    1
   130    88    89    1
   131    88    87    1
   132    27    26    1
   133    23    22    1
   134    23    24    1
   135    22    20   am
   136    72    73    1
   137    72    71    1
   138    16    13    1
   139    87    81   am
   140    82    81    2
   141    95    96    2
   142   164   165    1
   143    81    80    1
   144    73    74    2
   145    73    79   am
   146   168   169    1
   147   168   165    1
   148    20    19    1
   149    20    21    2
   150    19    18    1
   151   165   166    1
   152    18    14   am
   153    79    80    1
   154    24    25    2
   155    14    15    2
   156    14    13    1
   157    13    12    1
   158    80    83    1
   159   166   167    2
   160    83    85    1
   161    83    84    1
   162    84    86    1
