@<TRIPOS>MOLECULE
tmp/3o0yC00.pdb
 92 85 0 0 0
SMALL
GASTEIGER

@<TRIPOS>ATOM
      1  N         17.3340   17.9190   -7.7590 N.3   291  ARG291     -0.1245
      2  CA        16.6990   17.5860   -6.4950 C.3   291  ARG291      0.1563
      3  C         16.5280   16.0860   -6.3470 C.2   291  ARG291      0.2260
      4  O         16.9210   15.4950   -5.3210 O.2   291  ARG291     -0.2867
      5  CB        15.3500   18.2570   -6.3610 C.3   291  ARG291      0.0307
      6  CG        14.6120   17.9420   -5.0550 C.3   291  ARG291      0.0489
      7  CD        13.2490   18.6480   -5.0050 C.3   291  ARG291      0.2205
      8  NE        12.2910   18.0560   -5.9180 N.pl3 291  ARG291     -0.0865
      9  CZ        11.7280   16.8470   -5.8030 C.cat 291  ARG291      0.5346
     10  NH1       11.9150   16.1020   -4.7240 N.pl3 291  ARG291      0.1354
     11  NH2       10.9100   16.4100   -6.7630 N.pl3 291  ARG291      0.1354
     12  N         18.3760   13.2130   -3.8160 N.3   295  VAL295     -0.1245
     13  CA        17.6450   12.3160   -2.8890 C.3   295  VAL295      0.1561
     14  C         18.0530   10.8610   -3.1100 C.2   295  VAL295      0.2260
     15  O         18.3360   10.1030   -2.1790 O.2   295  VAL295     -0.2867
     16  CB        16.1420   12.5340   -3.0260 C.3   295  VAL295      0.0252
     17  CG1       15.3280   11.4770   -2.2130 C.3   295  VAL295      0.0019
     18  CG2       15.7440   13.9520   -2.4820 C.3   295  VAL295      0.0019
     19  N         19.9050    7.8010   -0.5400 N.3   299  ILE299     -0.1245
     20  CA        19.3350    6.4940   -0.3500 C.3   299  ILE299      0.1561
     21  C         20.3200    5.4340   -0.7940 C.2   299  ILE299      0.2260
     22  O         20.5140    4.4240   -0.1020 O.2   299  ILE299     -0.2867
     23  CB        17.9530    6.3650   -1.0080 C.3   299  ILE299      0.0252
     24  CG1       16.9420    7.3290   -0.3690 C.3   299  ILE299      0.0019
     25  CG2       17.4390    4.8880   -0.9160 C.3   299  ILE299      0.0019
     26  CD1       15.6990    7.5290   -1.2260 C.3   299  ILE299      0.0001
     27  N          3.6300    9.2210   -5.7260 N.3   455  GLN455     -0.1245
     28  CA         4.2330    9.8310   -4.5190 C.3   455  GLN455      0.1566
     29  C          3.2770    9.5730   -3.3320 C.2   455  GLN455      0.2260
     30  O          3.7050    9.2130   -2.2150 O.2   455  GLN455     -0.2867
     31  CB         4.5030   11.3160   -4.6740 C.3   455  GLN455      0.0367
     32  CG         4.9840   11.9490   -3.4190 C.3   455  GLN455      0.0905
     33  CD         5.3380   13.4100   -3.5900 C.2   455  GLN455      0.2608
     34  OE1        6.0350   13.7660   -4.5560 O.2   455  GLN455     -0.2717
     35  NE2        4.8750   14.2720   -2.6500 N.am  455  GLN455     -0.0878
     36  N          3.9370    6.2900   -1.6940 N.3   458  TYR458     -0.1227
     37  CA         5.0320    6.3680   -0.7410 C.3   458  TYR458      0.1736
     38  C          4.5160    6.9310    0.6000 C.2   458  TYR458      0.2595
     39  O          4.8060    6.4000    1.7020 O.2   458  TYR458     -0.2718
     40  CB         6.2100    7.2300   -1.3060 C.3   458  TYR458      0.0548
     41  CG         7.2800    7.4100   -0.2490 C.ar  458  TYR458     -0.0200
     42  CD1        8.2800    6.4720   -0.0730 C.ar  458  TYR458     -0.0009
     43  CD2        7.2730    8.4940    0.5920 C.ar  458  TYR458     -0.0009
     44  CE1        9.2490    6.5910    0.9690 C.ar  458  TYR458      0.0417
     45  CE2        8.1890    8.6010    1.6420 C.ar  458  TYR458      0.0417
     46  CZ         9.1850    7.6460    1.8500 C.ar  458  TYR458      0.1957
     47  OH        10.0880    7.7740    2.9210 O.3   458  TYR458     -0.2866
     48  N          3.7990    8.0550    0.5200 N.am  459  GLU459     -0.1979
     49  CA         3.2780    8.6950    1.7320 C.3   459  GLU459      0.1602
     50  C          2.2680    7.8340    2.5100 C.2   459  GLU459      0.2287
     51  O          2.1070    8.0260    3.7070 O.2   459  GLU459     -0.2864
     52  CB         2.6040   10.0370    1.3720 C.3   459  GLU459      0.0415
     53  CG         3.5170   11.0340    0.7510 C.3   459  GLU459      0.1163
     54  CD         2.7940   12.2980    0.1450 C.2   459  GLU459      0.3649
     55  OE1        1.5320   12.3010    0.0150 O.co2 459  GLU459     -0.2457
     56  OE2        3.5530   13.2510   -0.2050 O.co2 459  GLU459     -0.2457
     57  N         11.6510    2.0430   -3.4540 N.3   470  ASP470     -0.1239
     58  CA        11.5930    3.5220   -3.3110 C.3   470  ASP470      0.1674
     59  C         12.4870    4.1270   -4.3870 C.2   470  ASP470      0.2266
     60  O         12.1520    5.1750   -5.0200 O.2   470  ASP470     -0.2867
     61  CB        11.9960    3.9600   -1.9180 C.3   470  ASP470      0.1410
     62  CG        11.7510    5.4040   -1.6370 C.2   470  ASP470      0.3668
     63  OD1       10.8280    5.9450   -2.2440 O.co2 470  ASP470     -0.2456
     64  OD2       12.4370    6.0180   -0.7660 O.co2 470  ASP470     -0.2456
     65  N         10.6330    4.1330   -7.6080 N.3   473  ARG473     -0.1231
     66  CA         9.7470    5.3340   -7.6120 C.3   473  ARG473      0.1694
     67  C         10.4490    6.6010   -8.0240 C.2   473  ARG473      0.2591
     68  O          9.9840    7.3600   -8.9220 O.2   473  ARG473     -0.2718
     69  CB         9.0130    5.4480   -6.2840 C.3   473  ARG473      0.0321
     70  CG         8.1940    6.7140   -6.1720 C.3   473  ARG473      0.0489
     71  CD         7.7150    6.9950   -4.7660 C.3   473  ARG473      0.2205
     72  NE         8.7590    7.2930   -3.7860 N.pl3 473  ARG473     -0.0865
     73  CZ         8.9960    8.5080   -3.2910 C.cat 473  ARG473      0.5346
     74  NH1        8.4250    9.6000   -3.7900 N.pl3 473  ARG473      0.1354
     75  NH2        9.8650    8.6490   -2.2800 N.pl3 473  ARG473      0.1354
     76  N         11.5670    6.8670   -7.3330 N.am  474  LEU474     -0.1980
     77  CA        12.2970    8.0820   -7.5580 C.3   474  LEU474      0.1596
     78  C         12.8940    8.0810   -8.9620 C.2   474  LEU474      0.2287
     79  O         12.9490    9.1260   -9.6330 O.2   474  LEU474     -0.2864
     80  CB        13.3680    8.2510   -6.4980 C.3   474  LEU474      0.0297
     81  CG        12.7550    8.5960   -5.1030 C.3   474  LEU474      0.0022
     82  CD1       13.7800    8.3300   -3.9680 C.3   474  LEU474      0.0001
     83  CD2       12.1720    9.9920   -5.0210 C.3   474  LEU474      0.0001
     84  N         10.1950    9.1540  -11.2620 N.3   477  GLU477     -0.1245
     85  CA         9.9650   10.5900  -11.1140 C.3   477  GLU477      0.1567
     86  C         11.0870   11.3970  -11.8270 C.2   477  GLU477      0.2260
     87  O         10.8180   12.3890  -12.5440 O.2   477  GLU477     -0.2867
     88  CB         9.9080   10.9750   -9.6570 C.3   477  GLU477      0.0388
     89  CG         9.3630   12.3830   -9.4550 C.3   477  GLU477      0.1160
     90  CD         9.4770   12.9570   -8.0420 C.2   477  GLU477      0.3649
     91  OE1        9.8220   12.2060   -7.0820 O.co2 477  GLU477     -0.2457
     92  OE2        9.2070   14.1710   -7.8360 O.co2 477  GLU477     -0.2457
@<TRIPOS>BOND
     1    87    86    2
     2    86    85    1
     3    84    85    1
     4    85    88    1
     5    88    89    1
     6    79    78    2
     7    89    90    1
     8    78    77    1
     9    68    67    2
    10    90    92   ar
    11    90    91   ar
    12    67    66    1
    13    67    76   am
    14     1     2    1
    15    66    65    1
    16    66    69    1
    17    77    76    1
    18    77    80    1
    19    11     9    1
    20    80    81    1
    21     2     5    1
    22     2     3    1
    23     5     6    1
    24     3     4    2
    25    69    70    1
    26    70    71    1
    27     8     9    2
    28     8     7    1
    29     9    10    1
    30    27    28    1
    31    81    83    1
    32    81    82    1
    33     6     7    1
    34    60    59    2
    35    71    72    1
    36    31    28    1
    37    31    32    1
    38    34    33    2
    39    28    29    1
    40    59    58    1
    41    12    13    1
    42    74    73    1
    43    72    73    2
    44    33    32    1
    45    33    35   am
    46    57    58    1
    47    29    30    2
    48    58    61    1
    49    73    75    1
    50    14    13    1
    51    14    15    2
    52    16    13    1
    53    16    18    1
    54    16    17    1
    55    63    62   ar
    56    61    62    1
    57    36    37    1
    58    62    64   ar
    59    40    37    1
    60    40    41    1
    61    26    24    1
    62    23    25    1
    63    23    24    1
    64    23    20    1
    65    21    20    1
    66    21    22    2
    67    37    38    1
    68    19    20    1
    69    41    42   ar
    70    41    43   ar
    71    56    54   ar
    72    42    44   ar
    73    55    54   ar
    74    54    53    1
    75    48    38   am
    76    48    49    1
    77    43    45   ar
    78    38    39    2
    79    53    52    1
    80    44    46   ar
    81    52    49    1
    82    45    46   ar
    83    49    50    1
    84    46    47    1
    85    50    51    2
