@<TRIPOS>MOLECULE
tmp/3o10A00.pdb
 90 86 0 0 0
SMALL
GASTEIGER

@<TRIPOS>ATOM
      1  N        -13.9700  -15.9470   33.1290 N.3    37  PHE37      -0.1241
      2  CA       -14.6530  -16.3190   31.8760 C.3    37  PHE37       0.1605
      3  C        -15.5750  -15.2190   31.3350 C.2    37  PHE37       0.2264
      4  O        -15.6190  -14.9710   30.1140 O.2    37  PHE37      -0.2867
      5  CB       -15.4390  -17.6320   31.9940 C.3    37  PHE37       0.0534
      6  CG       -16.0570  -18.0840   30.6670 C.ar   37  PHE37      -0.0203
      7  CD1      -15.2750  -18.6140   29.6590 C.ar   37  PHE37      -0.0042
      8  CD2      -17.4210  -17.9570   30.4550 C.ar   37  PHE37      -0.0042
      9  CE1      -15.8330  -19.0520   28.4200 C.ar   37  PHE37      -0.0003
     10  CE2      -18.0240  -18.3620   29.2320 C.ar   37  PHE37      -0.0003
     11  CZ       -17.2340  -18.9140   28.2030 C.ar   37  PHE37      -0.0000
     12  N        -13.2480  -12.6550   29.7860 N.3    40  TYR40      -0.1227
     13  CA       -12.7770  -13.1920   28.5120 C.3    40  TYR40       0.1736
     14  C        -13.8500  -13.0280   27.4340 C.2    40  TYR40       0.2595
     15  O        -13.5680  -12.5340   26.3370 O.2    40  TYR40      -0.2718
     16  CB       -12.3860  -14.6890   28.6550 C.3    40  TYR40       0.0548
     17  CG       -12.1470  -15.3330   27.2920 C.ar   40  TYR40      -0.0200
     18  CD1      -10.8690  -15.2960   26.7110 C.ar   40  TYR40      -0.0009
     19  CD2      -13.1980  -15.9140   26.5650 C.ar   40  TYR40      -0.0009
     20  CE1      -10.6220  -15.8470   25.4510 C.ar   40  TYR40       0.0417
     21  CE2      -12.9670  -16.4540   25.2740 C.ar   40  TYR40       0.0417
     22  CZ       -11.6720  -16.4120   24.7460 C.ar   40  TYR40       0.1957
     23  OH       -11.3660  -16.9260   23.5130 O.3    40  TYR40      -0.2866
     24  N        -15.0880  -13.4280   27.7360 N.am   41  LEU41      -0.1980
     25  CA       -16.1340  -13.3690   26.7150 C.3    41  LEU41       0.1596
     26  C        -16.5570  -11.9340   26.4100 C.2    41  LEU41       0.2287
     27  O        -16.8580  -11.6090   25.2530 O.2    41  LEU41      -0.2864
     28  CB       -17.3590  -14.1940   27.1330 C.3    41  LEU41       0.0297
     29  CG       -18.2950  -14.6310   26.0040 C.3    41  LEU41       0.0022
     30  CD1      -17.5870  -15.5760   25.0580 C.3    41  LEU41       0.0001
     31  CD2      -19.5180  -15.3040   26.6280 C.3    41  LEU41       0.0001
     32  N        -13.8460  -10.8270   24.0110 N.3    44  LYS44      -0.1245
     33  CA       -14.0150  -11.4150   22.6770 C.3    44  LYS44       0.1561
     34  C        -15.1420  -10.7180   21.9190 C.2    44  LYS44       0.2260
     35  O        -15.0060  -10.4130   20.7240 O.2    44  LYS44      -0.2867
     36  CB       -14.3570  -12.9350   22.7850 C.3    44  LYS44       0.0271
     37  CG       -14.3220  -13.6440   21.4250 C.3    44  LYS44       0.0035
     38  CD       -14.5650  -15.1480   21.5640 C.3    44  LYS44       0.0206
     39  CE       -14.5840  -15.8510   20.2000 C.3    44  LYS44       0.1093
     40  NZ       -14.7050  -17.3070   20.4800 N.3    44  LYS44      -0.1314
     41  N        -15.4750  -15.8660   14.8210 N.3    60  LYS60      -0.1245
     42  CA       -15.4450  -16.2790   16.2550 C.3    60  LYS60       0.1561
     43  C        -14.4410  -17.4050   16.5230 C.2    60  LYS60       0.2260
     44  O        -14.2220  -17.7830   17.6720 O.2    60  LYS60      -0.2867
     45  CB       -16.8200  -16.7400   16.7460 C.3    60  LYS60       0.0271
     46  CG       -17.9170  -15.7030   16.7730 C.3    60  LYS60       0.0035
     47  CD       -19.2240  -16.3650   17.2090 C.3    60  LYS60       0.0206
     48  CE       -19.7680  -17.2970   16.1530 C.3    60  LYS60       0.1093
     49  NZ       -20.5520  -18.3860   16.7540 N.3    60  LYS60      -0.1314
     50  N         -8.6320  -16.3830   17.8530 N.3    63  LYS63      -0.1231
     51  CA        -8.2700  -16.1150   19.2570 C.3    63  LYS63       0.1678
     52  C         -8.3450  -14.6050   19.5150 C.2    63  LYS63       0.2434
     53  O         -7.8930  -13.8500   18.6720 O.2    63  LYS63      -0.2733
     54  CB        -6.8150  -16.6070   19.4420 C.3    63  LYS63       0.0284
     55  CG        -6.1130  -16.2600   20.7430 C.3    63  LYS63       0.0035
     56  CD        -6.5210  -17.2090   21.8890 C.3    63  LYS63       0.0206
     57  CE        -6.3510  -16.5120   23.2490 C.3    63  LYS63       0.1093
     58  NZ        -7.3130  -16.9960   24.2810 N.3    63  LYS63      -0.1314
     59  N         -8.8760  -14.1480   20.6760 N.am   64  PRO64      -0.2729
     60  CA        -8.8680  -12.6780   20.8580 C.3    64  PRO64       0.1401
     61  C         -7.5410  -11.9450   20.6010 C.2    64  PRO64       0.2269
     62  O         -7.5700  -10.8880   19.9850 O.2    64  PRO64      -0.2865
     63  CB        -9.3460  -12.5040   22.3110 C.3    64  PRO64       0.0296
     64  CG       -10.3340  -13.6380   22.4400 C.3    64  PRO64       0.0237
     65  CD        -9.5720  -14.7970   21.8050 C.3    64  PRO64       0.0939
     66  N        -10.6460  -19.2320   27.0710 N.3    95  SER95      -0.1202
     67  CA       -11.9910  -19.8530   27.0970 C.3    95  SER95       0.2020
     68  C        -11.9630  -21.2200   27.7940 C.2    95  SER95       0.2618
     69  O        -12.8290  -21.5360   28.6230 O.2    95  SER95      -0.2717
     70  CB       -12.5430  -19.9790   25.6710 C.3    95  SER95       0.2103
     71  OG       -13.8090  -20.6150   25.6420 O.3    95  SER95      -0.2182
     72  N        -10.9750  -22.0370   27.4690 N.am   96  LEU96      -0.1979
     73  CA       -11.0270  -23.4390   27.9140 C.3    96  LEU96       0.1596
     74  C        -10.5080  -23.6430   29.3160 C.2    96  LEU96       0.2287
     75  O        -11.0310  -24.4760   30.0560 O.2    96  LEU96      -0.2864
     76  CB       -10.2690  -24.3390   26.9480 C.3    96  LEU96       0.0297
     77  CG       -10.8190  -24.3680   25.5120 C.3    96  LEU96       0.0022
     78  CD1       -9.8640  -25.1870   24.6750 C.3    96  LEU96       0.0001
     79  CD2      -12.2180  -24.9670   25.4350 C.3    96  LEU96       0.0001
     80  N        -12.7930  -23.2390   32.3080 N.3    99  ARG99      -0.1245
     81  CA       -13.9490  -24.1670   32.2960 C.3    99  ARG99       0.1563
     82  C        -13.6790  -25.6750   32.4700 C.2    99  ARG99       0.2260
     83  O        -14.4990  -26.3690   33.0690 O.2    99  ARG99      -0.2867
     84  CB       -14.7760  -23.9720   31.0200 C.3    99  ARG99       0.0307
     85  CG       -15.3660  -22.5540   30.9150 C.3    99  ARG99       0.0489
     86  CD       -16.2770  -22.4540   29.7240 C.3    99  ARG99       0.2205
     87  NE       -15.5770  -22.4590   28.4390 N.pl3  99  ARG99      -0.0865
     88  CZ       -16.0300  -23.0400   27.3370 C.cat  99  ARG99       0.5346
     89  NH1      -17.1620  -23.7700   27.3610 N.pl3  99  ARG99       0.1354
     90  NH2      -15.3420  -22.9390   26.2080 N.pl3  99  ARG99       0.1354
@<TRIPOS>BOND
     1    41    42    1
     2    48    49    1
     3    48    47    1
     4    42    43    1
     5    42    45    1
     6    43    44    2
     7    45    46    1
     8    46    47    1
     9    50    51    1
    10    53    52    2
    11    51    54    1
    12    51    52    1
    13    54    55    1
    14    52    59   am
    15    62    61    2
    16    39    40    1
    17    39    38    1
    18    61    60    1
    19    59    60    1
    20    59    65    1
    21    35    34    2
    22    55    56    1
    23    60    63    1
    24    37    38    1
    25    37    36    1
    26    65    64    1
    27    56    57    1
    28    34    33    1
    29    63    64    1
    30    33    36    1
    31    33    32    1
    32    57    58    1
    33    23    22    1
    34    78    77    1
    35    22    21   ar
    36    22    20   ar
    37    30    29    1
    38    27    26    2
    39    21    19   ar
    40    79    77    1
    41    20    18   ar
    42    77    76    1
    43    71    70    1
    44    70    67    1
    45    29    31    1
    46    29    28    1
    47    90    88    1
    48    15    14    2
    49    26    25    1
    50    19    17   ar
    51    18    17   ar
    52    25    28    1
    53    25    24    1
    54    76    73    1
    55    66    67    1
    56    67    68    1
    57    17    16    1
    58    88    89    1
    59    88    87    2
    60    14    24   am
    61    14    13    1
    62    72    68   am
    63    72    73    1
    64    68    69    2
    65    73    74    1
    66    11     9   ar
    67    11    10   ar
    68     9     7   ar
    69    87    86    1
    70    13    16    1
    71    13    12    1
    72    10     8   ar
    73    74    75    2
    74     7     6   ar
    75    86    85    1
    76     4     3    2
    77     8     6   ar
    78     6     5    1
    79    85    84    1
    80    84    81    1
    81     3     2    1
    82     2     5    1
    83     2     1    1
    84    81    80    1
    85    81    82    1
    86    82    83    2
