@<TRIPOS>MOLECULE
tmp/3o14A00.pdb
 104 94 0 0 0
SMALL
GASTEIGER

@<TRIPOS>ATOM
      1  N         59.8680   13.5670    9.6680 N.3    23  SER23      -0.1203
      2  CA        59.3150   14.6000   10.5200 C.3    23  SER23       0.2005
      3  C         60.1150   15.8800   10.2460 C.2    23  SER23       0.2460
      4  O         61.0600   15.8600    9.4450 O.2    23  SER23      -0.2732
      5  CB        59.4010   14.1890   11.9970 C.3    23  SER23       0.2103
      6  OG        60.7330   14.2850   12.4890 O.3    23  SER23      -0.2182
      7  N         59.7250   17.0040   10.8840 N.am   24  PRO24      -0.2728
      8  CA        60.5350   18.2230   10.7910 C.3    24  PRO24       0.1401
      9  C         61.9210   18.1040   11.4390 C.2    24  PRO24       0.2269
     10  O         62.8280   18.8420   11.0590 O.2    24  PRO24      -0.2865
     11  CB        59.6840   19.2600   11.5330 C.3    24  PRO24       0.0296
     12  CG        58.2790   18.7600   11.3740 C.3    24  PRO24       0.0237
     13  CD        58.4350   17.2700   11.5510 C.3    24  PRO24       0.0939
     14  N         64.6100   12.0760   12.8810 N.3    27  VAL27      -0.1245
     15  CA        63.4240   11.5740   13.5730 C.3    27  VAL27       0.1561
     16  C         62.3400   11.2270   12.5460 C.2    27  VAL27       0.2260
     17  O         61.9310   12.0740   11.7440 O.2    27  VAL27      -0.2867
     18  CB        62.8740   12.5740   14.5970 C.3    27  VAL27       0.0252
     19  CG1       61.6030   12.0250   15.2600 C.3    27  VAL27       0.0019
     20  CG2       63.9410   12.9170   15.6330 C.3    27  VAL27       0.0019
     21  N         58.5740    8.9850   11.7120 N.3    29  ARG29      -0.1245
     22  CA        57.3250    8.7240   12.4410 C.3    29  ARG29       0.1563
     23  C         56.3670    7.8220   11.6880 C.2    29  ARG29       0.2260
     24  O         56.2750    7.8640   10.4500 O.2    29  ARG29      -0.2867
     25  CB        56.6120   10.0290   12.7910 C.3    29  ARG29       0.0307
     26  CG        56.3000   10.8610   11.5970 C.3    29  ARG29       0.0489
     27  CD        55.6780   12.1550   12.0180 C.3    29  ARG29       0.2205
     28  NE        55.7170   13.1220   10.9330 N.pl3  29  ARG29      -0.0865
     29  CZ        55.4100   14.4050   11.0650 C.cat  29  ARG29       0.5346
     30  NH1       55.0500   14.8850   12.2470 N.pl3  29  ARG29       0.1354
     31  NH2       55.4870   15.2110   10.0060 N.pl3  29  ARG29       0.1354
     32  N         45.5700   11.4650   14.3890 N.3    33  ARG33      -0.1245
     33  CA        45.9290   12.8650   14.2870 C.3    33  ARG33       0.1563
     34  C         44.6820   13.6860   13.9720 C.2    33  ARG33       0.2260
     35  O         43.9430   13.3240   13.0580 O.2    33  ARG33      -0.2867
     36  CB        46.9750   13.0210   13.1880 C.3    33  ARG33       0.0307
     37  CG        48.0520   14.0340   13.4880 C.3    33  ARG33       0.0489
     38  CD        49.0410   14.1030   12.3600 C.3    33  ARG33       0.2205
     39  NE        50.0150   15.1480   12.6180 N.pl3  33  ARG33      -0.0865
     40  CZ        51.1340   14.9640   13.3120 C.cat  33  ARG33       0.5346
     41  NH1       51.4430   13.7660   13.7820 N.pl3  33  ARG33       0.1354
     42  NH2       51.9680   15.9790   13.4960 N.pl3  33  ARG33       0.1354
     43  N         47.8960   14.3220   18.5050 N.3    41  ALA41      -0.1245
     44  CA        48.6230   13.3140   17.7430 C.3    41  ALA41       0.1562
     45  C         49.0340   12.1140   18.5960 C.2    41  ALA41       0.2260
     46  O         49.4520   12.2890   19.7300 O.2    41  ALA41      -0.2867
     47  CB        49.8870   13.9550   17.0930 C.3    41  ALA41       0.0290
     48  N         51.5830    8.7910   17.8180 N.3    43  SER43      -0.1217
     49  CA        52.5510    8.3370   16.8530 C.3    43  SER43       0.1889
     50  C         53.5540    7.4250   17.5150 C.2    43  SER43       0.2288
     51  O         53.7290    7.4430   18.7270 O.2    43  SER43      -0.2866
     52  CB        53.3020    9.5320   16.2550 C.3    43  SER43       0.2089
     53  OG        52.4530   10.3580   15.4680 O.3    43  SER43      -0.2183
     54  N         57.5830    7.1110   17.0420 N.3    45  VAL45      -0.1245
     55  CA        58.6600    7.8960   16.4430 C.3    45  VAL45       0.1561
     56  C         59.9850    7.2750   16.7960 C.2    45  VAL45       0.2260
     57  O         60.1420    6.7290   17.8860 O.2    45  VAL45      -0.2867
     58  CB        58.6250    9.3550   16.8980 C.3    45  VAL45       0.0252
     59  CG1       57.2690    9.9750   16.5390 C.3    45  VAL45       0.0019
     60  CG2       58.9060    9.4790   18.4010 C.3    45  VAL45       0.0019
     61  N         64.1630    8.0120   16.8850 N.3    47  TYR47      -0.1241
     62  CA        65.2770    8.9560   16.8970 C.3    47  TYR47       0.1605
     63  C         66.5170    8.1820   16.5460 C.2    47  TYR47       0.2264
     64  O         66.8200    7.1710   17.1850 O.2    47  TYR47      -0.2867
     65  CB        65.4950    9.5390   18.2980 C.3    47  TYR47       0.0534
     66  CG        64.4630   10.5300   18.7780 C.ar   47  TYR47      -0.0201
     67  CD1       63.2370   10.1150   19.2200 C.ar   47  TYR47      -0.0009
     68  CD2       64.7550   11.8880   18.8580 C.ar   47  TYR47      -0.0009
     69  CE1       62.2850   11.0470   19.7020 C.ar   47  TYR47       0.0417
     70  CE2       63.8100   12.8160   19.3390 C.ar   47  TYR47       0.0417
     71  CZ        62.5760   12.3790   19.7530 C.ar   47  TYR47       0.1957
     72  OH        61.6180   13.2780   20.2160 O.3    47  TYR47      -0.2866
     73  N         52.9160   16.2770   26.4890 N.3    62  GLU62      -0.1245
     74  CA        53.6730   15.2480   25.7940 C.3    62  GLU62       0.1567
     75  C         53.7600   14.0430   26.7020 C.2    62  GLU62       0.2260
     76  O         54.3340   14.1460   27.7870 O.2    62  GLU62      -0.2867
     77  CB        55.0600   15.7780   25.4610 C.3    62  GLU62       0.0388
     78  CG        56.0610   14.7800   24.9510 C.3    62  GLU62       0.1160
     79  CD        57.4040   15.4710   24.7090 C.2    62  GLU62       0.3649
     80  OE1       57.5700   16.1650   23.6910 O.co2  62  GLU62      -0.2457
     81  OE2       58.2660   15.4430   25.5790 O.co2  62  GLU62      -0.2457
     82  N         59.8990    5.4780   20.4040 N.3   102  ILE102     -0.1245
     83  CA        58.9320    5.8460   21.4480 C.3   102  ILE102      0.1561
     84  C         57.5390    5.8650   20.8830 C.2   102  ILE102      0.2260
     85  O         57.3330    6.0830   19.6970 O.2   102  ILE102     -0.2867
     86  CB        59.1800    7.2400   22.1370 C.3   102  ILE102      0.0252
     87  CG1       58.9300    8.4060   21.1600 C.3   102  ILE102      0.0019
     88  CG2       60.5560    7.2870   22.7780 C.3   102  ILE102      0.0019
     89  CD1       59.0960    9.8310   21.7550 C.3   102  ILE102      0.0001
     90  N         54.3030    8.0470   21.4300 N.3   104  VAL104     -0.1245
     91  CA        54.1120    9.4050   21.9140 C.3   104  VAL104      0.1561
     92  C         52.7430    9.9700   21.5840 C.2   104  VAL104      0.2260
     93  O         52.2430    9.8180   20.4760 O.2   104  VAL104     -0.2867
     94  CB        55.2520   10.3580   21.4010 C.3   104  VAL104      0.0252
     95  CG1       55.3470   10.4160   19.8540 C.3   104  VAL104      0.0019
     96  CG2       55.0920   11.7550   21.9640 C.3   104  VAL104      0.0019
     97  N         50.7540   13.7310   21.7810 N.3   106  LEU106     -0.1245
     98  CA        50.8910   15.1770   21.9100 C.3   106  LEU106      0.1561
     99  C         49.5010   15.7990   21.9170 C.2   106  LEU106      0.2260
    100  O         48.5730   15.3020   21.2490 O.2   106  LEU106     -0.2867
    101  CB        51.7490   15.7670   20.7890 C.3   106  LEU106      0.0270
    102  CG        53.1840   15.2610   20.6410 C.3   106  LEU106      0.0019
    103  CD1       53.9030   15.8520   19.3960 C.3   106  LEU106      0.0001
    104  CD2       53.9020   15.5900   21.9050 C.3   106  LEU106      0.0001
@<TRIPOS>BOND
     1     4     3    2
     2     1     2    1
     3    31    29    1
     4     3     2    1
     5     3     7   am
     6    24    23    2
     7     2     5    1
     8     8     7    1
     9     8     9    1
    10     8    11    1
    11     7    13    1
    12    28    29    2
    13    28    27    1
    14    10     9    2
    15    29    30    1
    16    12    11    1
    17    12    13    1
    18    26    27    1
    19    26    25    1
    20    23    22    1
    21    21    22    1
    22    17    16    2
    23     5     6    1
    24    38    39    1
    25    38    37    1
    26    22    25    1
    27    16    15    1
    28    39    40    2
    29    14    15    1
    30    35    34    2
    31    36    37    1
    32    36    33    1
    33    40    42    1
    34    40    41    1
    35    15    18    1
    36    34    33    1
    37    33    32    1
    38    18    19    1
    39    18    20    1
    40    53    52    1
    41    52    49    1
    42    55    56    1
    43    55    58    1
    44    55    54    1
    45    59    58    1
    46    63    62    1
    47    63    64    2
    48    56    57    2
    49    49    50    1
    50    49    48    1
    51    61    62    1
    52    62    65    1
    53    58    60    1
    54    47    44    1
    55    50    51    2
    56    44    43    1
    57    44    45    1
    58    65    66    1
    59    45    46    2
    60    66    68   ar
    61    66    67   ar
    62    68    70   ar
    63    67    69   ar
    64    70    71   ar
    65   103   102    1
    66    85    84    2
    67    69    71   ar
    68    71    72    1
    69    95    94    1
    70    82    83    1
    71    93    92    2
    72   102   101    1
    73   102   104    1
    74   101    98    1
    75    84    83    1
    76    87    89    1
    77    87    86    1
    78   100    99    2
    79    94    91    1
    80    94    96    1
    81    90    91    1
    82    83    86    1
    83    92    91    1
    84    97    98    1
    85    98    99    1
    86    86    88    1
    87    80    79   ar
    88    79    78    1
    89    79    81   ar
    90    78    77    1
    91    77    74    1
    92    74    73    1
    93    74    75    1
    94    75    76    2
