@<TRIPOS>MOLECULE
tmp/3o15A00.pdb
 148 139 0 0 0
SMALL
GASTEIGER

@<TRIPOS>ATOM
      1  N         15.4680   46.4610   10.2200 N.3    17  ILE17      -0.1245
      2  CA        14.8900   47.0220    8.9930 C.3    17  ILE17       0.1561
      3  C         13.9760   48.1850    9.3700 C.2    17  ILE17       0.2260
      4  O         13.1660   48.0680   10.2860 O.2    17  ILE17      -0.2867
      5  CB        14.0350   45.9730    8.2370 C.3    17  ILE17       0.0252
      6  CG1       14.8850   44.7500    7.8940 C.3    17  ILE17       0.0019
      7  CG2       13.4440   46.5950    6.9650 C.3    17  ILE17       0.0019
      8  CD1       14.0960   43.6250    7.2440 C.3    17  ILE17       0.0001
      9  N         14.3220   50.6570    4.2740 N.3    45  ARG45      -0.1245
     10  CA        13.0720   50.2380    3.6460 C.3    45  ARG45       0.1563
     11  C         12.0220   51.3170    3.8530 C.2    45  ARG45       0.2260
     12  O         11.3900   51.3910    4.9050 O.2    45  ARG45      -0.2867
     13  CB        12.5930   48.9180    4.2600 C.3    45  ARG45       0.0307
     14  CG        11.2840   48.3960    3.6890 C.3    45  ARG45       0.0489
     15  CD        10.9620   47.0140    4.2350 C.3    45  ARG45       0.2205
     16  NE         9.6910   46.5000    3.7320 N.pl3  45  ARG45      -0.0865
     17  CZ         8.4950   46.9030    4.1500 C.cat  45  ARG45       0.5346
     18  NH1        8.3940   47.8350    5.0910 N.pl3  45  ARG45       0.1354
     19  NH2        7.3960   46.3750    3.6280 N.pl3  45  ARG45       0.1354
     20  N         14.2050   37.6510   -0.8530 N.3   116  SER116     -0.1217
     21  CA        13.1290   37.0940   -0.0390 C.3   116  SER116      0.1889
     22  C         12.6780   35.7810   -0.6830 C.2   116  SER116      0.2288
     23  O         12.4020   35.7300   -1.8840 O.2   116  SER116     -0.2866
     24  CB        11.9350   38.0570    0.0210 C.3   116  SER116      0.2089
     25  OG        12.3070   39.3110    0.5610 O.3   116  SER116     -0.2183
     26  N         10.2300   32.0410    0.0340 N.3   118  HIS118     -0.1241
     27  CA         9.1740   31.4710    0.8610 C.3   118  HIS118      0.1621
     28  C          9.0010   29.9650    0.7160 C.2   118  HIS118      0.2264
     29  O          8.3070   29.3400    1.5180 O.2   118  HIS118     -0.2867
     30  CB         7.8600   32.1870    0.5620 C.3   118  HIS118      0.0745
     31  CG         7.9900   33.6770    0.5540 C.ar  118  HIS118      0.0817
     32  ND1        8.4900   34.3720   -0.5250 N.ar  118  HIS118     -0.2268
     33  CD2        7.7640   34.5960    1.5230 C.ar  118  HIS118      0.1154
     34  CE1        8.5710   35.6550   -0.2210 C.ar  118  HIS118      0.1986
     35  NE2        8.1380   35.8170    1.0170 N.ar  118  HIS118     -0.2212
     36  N         16.0050   35.8010    2.8480 N.3   135  GLY135     -0.1225
     37  CA        15.1520   36.2070    3.9480 C.3   135  GLY135      0.1811
     38  C         13.9040   35.3510    3.8910 C.2   135  GLY135      0.2280
     39  O         13.1790   35.3870    2.8980 O.2   135  GLY135     -0.2866
     40  N         10.1910   34.1850    5.5430 N.3   137  GLY137     -0.1210
     41  CA         9.1190   34.6100    6.4170 C.3   137  GLY137      0.1940
     42  C          7.7830   34.6820    5.7000 C.2   137  GLY137      0.2453
     43  O          7.6890   34.3230    4.5230 O.2   137  GLY137     -0.2732
     44  N          6.7270   35.1350    6.3900 N.am  138  PRO138     -0.2728
     45  CA         6.7810   35.5630    7.7900 C.3   138  PRO138      0.1401
     46  C          6.8310   34.3720    8.7430 C.2   138  PRO138      0.2269
     47  O          6.1000   33.3990    8.5690 O.2   138  PRO138     -0.2865
     48  CB         5.5020   36.3770    7.9450 C.3   138  PRO138      0.0296
     49  CG         4.5560   35.6560    7.0470 C.3   138  PRO138      0.0237
     50  CD         5.3990   35.4090    5.8140 C.3   138  PRO138      0.0939
     51  N          2.3050   38.9570   11.5310 N.3   142  THR142     -0.1218
     52  CA         2.7910   40.3320   11.4740 C.3   142  THR142      0.1862
     53  C          1.7060   41.3080   11.0260 C.2   142  THR142      0.2287
     54  O          0.7490   40.9240   10.3550 O.2   142  THR142     -0.2866
     55  CB         3.9690   40.4580   10.4850 C.3   142  THR142      0.1770
     56  OG1        4.9800   39.4990   10.8150 O.3   142  THR142     -0.2211
     57  CG2        4.5600   41.8550   10.5420 C.3   142  THR142      0.0375
     58  N          2.9990   44.7800   10.4730 N.3   144  THR144     -0.1203
     59  CA         3.8280   45.8730    9.9690 C.3   144  THR144      0.1994
     60  C          3.8550   45.9740    8.4480 C.2   144  THR144      0.2617
     61  O          3.7610   47.0690    7.8900 O.2   144  THR144     -0.2717
     62  CB         5.2790   45.7440   10.4720 C.3   144  THR144      0.1784
     63  OG1        5.2900   45.7800   11.9030 O.3   144  THR144     -0.2211
     64  CG2        6.1330   46.8830    9.9390 C.3   144  THR144      0.0376
     65  N          3.9950   44.8360    7.7800 N.am  145  LYS145     -0.1979
     66  CA         4.0360   44.8220    6.3250 C.3   145  LYS145      0.1596
     67  C          2.6080   44.8030    5.7730 C.2   145  LYS145      0.2287
     68  O          2.2000   45.7160    5.0500 O.2   145  LYS145     -0.2864
     69  CB         4.8190   43.5990    5.8330 C.3   145  LYS145      0.0298
     70  CG         5.2830   43.6920    4.3860 C.3   145  LYS145      0.0038
     71  CD         5.9570   42.4080    3.9320 C.3   145  LYS145      0.0206
     72  CE         6.2910   42.4340    2.4500 C.3   145  LYS145      0.1093
     73  NZ         6.7700   41.1020    1.9760 N.3   145  LYS145     -0.1314
     74  N          2.2090   40.1460    3.1900 N.3   148  THR148     -0.1203
     75  CA         3.0560   38.9610    3.2930 C.3   148  THR148      0.1994
     76  C          2.2620   37.7000    2.9760 C.2   148  THR148      0.2617
     77  O          1.0450   37.7470    2.7920 O.2   148  THR148     -0.2717
     78  CB         3.6170   38.7950    4.7270 C.3   148  THR148      0.1784
     79  OG1        2.5310   38.6250    5.6470 O.3   148  THR148     -0.2211
     80  CG2        4.4170   40.0070    5.1380 C.3   148  THR148      0.0376
     81  N          2.9630   36.5720    2.9160 N.am  149  ARG149     -0.1979
     82  CA         2.3180   35.2950    2.6590 C.3   149  ARG149      0.1597
     83  C          1.8800   34.7590    4.0190 C.2   149  ARG149      0.2287
     84  O          2.1230   35.3940    5.0470 O.2   149  ARG149     -0.2864
     85  CB         3.2920   34.3140    1.9980 C.3   149  ARG149      0.0334
     86  CG         3.8870   34.8050    0.6840 C.3   149  ARG149      0.0492
     87  CD         4.5780   33.6720   -0.0750 C.3   149  ARG149      0.2205
     88  NE         5.3390   34.1590   -1.2260 N.pl3 149  ARG149     -0.0865
     89  CZ         6.0040   33.3760   -2.0720 C.cat 149  ARG149      0.5346
     90  NH1        6.0020   32.0600   -1.9050 N.pl3 149  ARG149      0.1354
     91  NH2        6.6850   33.9090   -3.0790 N.pl3 149  ARG149      0.1354
     92  N         12.2500   36.4690    9.2830 N.3   172  ILE172     -0.1231
     93  CA        11.5830   37.7590    9.4210 C.3   172  ILE172      0.1692
     94  C         10.0760   37.5910    9.5730 C.2   172  ILE172      0.2593
     95  O          9.5060   36.6180    9.0800 O.2   172  ILE172     -0.2718
     96  CB        11.8620   38.6710    8.2000 C.3   172  ILE172      0.0266
     97  CG1       11.2950   40.0710    8.4620 C.3   172  ILE172      0.0019
     98  CG2       11.2370   38.0680    6.9350 C.3   172  ILE172      0.0020
     99  CD1       11.6860   41.1170    7.4280 C.3   172  ILE172      0.0001
    100  N          9.4470   38.5360   10.2700 N.am  173  GLY173     -0.1942
    101  CA         8.0070   38.4910   10.4570 C.3   173  GLY173      0.2014
    102  C          7.5430   38.2380   11.8800 C.2   173  GLY173      0.2639
    103  O          7.5640   37.1020   12.3540 O.2   173  GLY173     -0.2714
    104  N          7.1200   39.2970   12.5610 N.am  174  GLY174     -0.1939
    105  CA         6.6280   39.1670   13.9250 C.3   174  GLY174      0.2014
    106  C          7.6240   38.6400   14.9410 C.2   174  GLY174      0.2638
    107  O          7.2340   38.0090   15.9290 O.2   174  GLY174     -0.2714
    108  N          8.9100   38.8980   14.7140 N.am  175  ILE175     -0.1977
    109  CA         9.9360   38.4290   15.6370 C.3   175  ILE175      0.1596
    110  C         10.1310   39.3950   16.7950 C.2   175  ILE175      0.2287
    111  O         10.2070   40.6100   16.6070 O.2   175  ILE175     -0.2864
    112  CB        11.2900   38.1990   14.9090 C.3   175  ILE175      0.0276
    113  CG1       11.1550   37.0050   13.9550 C.3   175  ILE175      0.0022
    114  CG2       12.4100   37.9460   15.9330 C.3   175  ILE175      0.0022
    115  CD1       12.3320   36.8060   13.0250 C.3   175  ILE175      0.0001
    116  N         15.5000   39.1380   11.6900 N.3   192  SER192     -0.1202
    117  CA        15.3080   40.4840   11.1770 C.3   192  SER192      0.2020
    118  C         14.0210   41.0160   11.7950 C.2   192  SER192      0.2619
    119  O         13.0840   40.2550   12.0300 O.2   192  SER192     -0.2717
    120  CB        15.1770   40.4420    9.6510 C.3   192  SER192      0.2103
    121  OG        15.2490   41.7370    9.1010 O.3   192  SER192     -0.2182
    122  N         13.9690   42.3150   12.0640 N.am  193  MET193     -0.1965
    123  CA        12.7680   42.8840   12.6560 C.3   193  MET193      0.1736
    124  C         12.6120   44.3740   12.3980 C.2   193  MET193      0.2616
    125  O         13.5860   45.0780   12.1180 O.2   193  MET193     -0.2715
    126  CB        12.7640   42.6410   14.1670 C.3   193  MET193      0.0427
    127  CG        13.7200   43.5200   14.9570 C.3   193  MET193      0.0599
    128  SD        15.4590   43.3800   14.4940 S.3   193  MET193     -0.1393
    129  CE        15.8060   41.6480   14.9460 C.3   193  MET193      0.0692
    130  N         11.3670   44.8330   12.4930 N.am  194  ILE194     -0.1963
    131  CA        11.0390   46.2360   12.3330 C.3   194  ILE194      0.1727
    132  C         10.4530   46.7500   13.6550 C.2   194  ILE194      0.2617
    133  O         11.1560   47.3970   14.4380 O.2   194  ILE194     -0.2715
    134  CB        10.0090   46.4650   11.1910 C.3   194  ILE194      0.0290
    135  CG1       10.5950   45.9940    9.8550 C.3   194  ILE194      0.0022
    136  CG2        9.6620   47.9510   11.0950 C.3   194  ILE194      0.0023
    137  CD1        9.6520   46.1320    8.6620 C.3   194  ILE194      0.0001
    138  N          9.1870   46.4230   13.9190 N.am  195  SER195     -0.1936
    139  CA         8.4980   46.9040   15.1230 C.3   195  SER195      0.2055
    140  C          9.1240   46.5800   16.4770 C.2   195  SER195      0.2642
    141  O          9.1230   47.4280   17.3750 O.2   195  SER195     -0.2714
    142  CB         7.0300   46.4470   15.1230 C.3   195  SER195      0.2130
    143  OG         6.9090   45.0390   15.0810 O.3   195  SER195     -0.2179
    144  N          9.6510   45.3710   16.6390 N.am  196  ALA196     -0.1977
    145  CA        10.2610   44.9850   17.9130 C.3   196  ALA196      0.1597
    146  C         11.2760   46.0250   18.3890 C.2   196  ALA196      0.2287
    147  O         11.5110   46.1770   19.5870 O.2   196  ALA196     -0.2864
    148  CB        10.9230   43.6130   17.7860 C.3   196  ALA196      0.0319
@<TRIPOS>BOND
     1    91    89    1
     2    89    90    1
     3    89    88    2
     4    23    22    2
     5    88    87    1
     6    20    21    1
     7    22    21    1
     8    32    34   ar
     9    32    31   ar
    10    34    35   ar
    11    87    86    1
    12    21    24    1
    13    24    25    1
    14    26    27    1
    15    31    30    1
    16    31    33   ar
    17    30    27    1
    18    86    85    1
    19    28    27    1
    20    28    29    2
    21    35    33   ar
    22    73    72    1
    23    85    82    1
    24    72    71    1
    25    82    81    1
    26    82    83    1
    27    77    76    2
    28    36    37    1
    29    39    38    2
    30    81    76   am
    31    76    75    1
    32    74    75    1
    33    75    78    1
    34    19    17    1
    35    10    11    1
    36    10    13    1
    37    10     9    1
    38    14    15    1
    39    14    13    1
    40    16    17    2
    41    16    15    1
    42    11    12    2
    43    38    37    1
    44    71    70    1
    45    83    84    2
    46    17    18    1
    47    70    69    1
    48    43    42    2
    49    78    80    1
    50    78    79    1
    51    68    67    2
    52    40    41    1
    53    42    44   am
    54    42    41    1
    55    67    66    1
    56    50    44    1
    57    50    49    1
    58    69    66    1
    59    66    65    1
    60    44    45    1
    61    98    96    1
    62     7     5    1
    63    49    48    1
    64     8     6    1
    65    99    97    1
    66    65    60   am
    67    45    48    1
    68    45    46    1
    69    61    60    2
    70     6     5    1
    71    96    97    1
    72    96    93    1
    73     5     2    1
    74    60    59    1
    75    47    46    2
    76   137   135    1
    77     2     3    1
    78     2     1    1
    79    95    94    2
    80   121   120    1
    81    92    93    1
    82     3     4    2
    83    93    94    1
    84    94   100   am
    85   120   117    1
    86   135   134    1
    87    64    62    1
    88    59    62    1
    89    59    58    1
    90   100   101    1
    91    54    53    2
    92   101   102    1
    93    62    63    1
    94    55    57    1
    95    55    56    1
    96    55    52    1
    97    53    52    1
    98   136   134    1
    99   117   116    1
   100   117   118    1
   101   134   131    1
   102    52    51    1
   103   118   119    2
   104   118   122   am
   105   102   103    2
   106   102   104   am
   107   122   123    1
   108   125   124    2
   109   131   130    1
   110   131   132    1
   111   124   130   am
   112   124   123    1
   113   104   105    1
   114   123   126    1
   115   115   113    1
   116   132   138   am
   117   132   133    2
   118   138   139    1
   119   105   106    1
   120   113   112    1
   121   126   127    1
   122   128   129    1
   123   128   127    1
   124   108   106   am
   125   108   109    1
   126   112   109    1
   127   112   114    1
   128   106   107    2
   129   143   142    1
   130   142   139    1
   131   139   140    1
   132   109   110    1
   133   140   144   am
   134   140   141    2
   135   111   110    2
   136   144   145    1
   137   148   145    1
   138   145   146    1
   139   146   147    2
