@<TRIPOS>MOLECULE
tmp/3o1cA00.pdb
 162 159 0 0 0
SMALL
GASTEIGER

@<TRIPOS>ATOM
      1  N         -4.2640   -9.5790  -20.3020 N.3     7  ILE7       -0.1231
      2  CA        -5.5110   -8.8110  -20.6060 C.3     7  ILE7        0.1692
      3  C         -5.3940   -7.4270  -20.1180 C.2     7  ILE7        0.2592
      4  O         -5.8730   -6.4380  -20.7380 O.2     7  ILE7       -0.2718
      5  CB        -6.7690   -9.5000  -19.8930 C.3     7  ILE7        0.0266
      6  CG1       -7.0680  -10.8580  -20.5890 C.3     7  ILE7        0.0019
      7  CG2       -8.0560   -8.5510  -19.9330 C.3     7  ILE7        0.0020
      8  CD1       -8.0540  -11.6840  -19.8600 C.3     7  ILE7        0.0001
      9  N         -4.8410   -7.2630  -18.9210 N.am    8  PHE8       -0.1976
     10  CA        -4.7810   -5.9340  -18.3120 C.3     8  PHE8        0.1639
     11  C         -3.7900   -5.0120  -18.9830 C.2     8  PHE8        0.2290
     12  O         -4.0050   -3.8020  -18.9660 O.2     8  PHE8       -0.2864
     13  CB        -4.5520   -6.0160  -16.8030 C.3     8  PHE8        0.0560
     14  CG        -5.6840   -6.6910  -16.0520 C.ar    8  PHE8       -0.0200
     15  CD1       -6.9600   -6.9210  -16.6620 C.ar    8  PHE8       -0.0042
     16  CD2       -5.5180   -7.2050  -14.8360 C.ar    8  PHE8       -0.0042
     17  CE1       -8.0110   -7.5410  -16.0050 C.ar    8  PHE8       -0.0003
     18  CE2       -6.6170   -7.8560  -14.1620 C.ar    8  PHE8       -0.0003
     19  CZ        -7.8050   -8.0130  -14.7370 C.ar    8  PHE8       -0.0000
     20  N         -5.7900   -3.4540  -21.6620 N.3    11  ILE11      -0.1245
     21  CA        -6.6670   -2.4610  -21.1050 C.3    11  ILE11       0.1561
     22  C         -5.8690   -1.1700  -20.8250 C.2    11  ILE11       0.2260
     23  O         -6.2930   -0.0450  -21.1740 O.2    11  ILE11      -0.2867
     24  CB        -7.3820   -2.9860  -19.8710 C.3    11  ILE11       0.0252
     25  CG1       -8.4140   -4.0250  -20.3430 C.3    11  ILE11       0.0019
     26  CG2       -7.9820   -1.8410  -19.0950 C.3    11  ILE11       0.0019
     27  CD1       -9.1590   -4.7220  -19.1670 C.3    11  ILE11       0.0001
     28  N         -8.0900   -2.1700  -25.9230 N.3    16  ILE16      -0.1231
     29  CA        -9.4470   -2.6880  -25.7350 C.3    16  ILE16       0.1678
     30  C        -10.0820   -1.8670  -24.6580 C.2    16  ILE16       0.2434
     31  O         -9.4020   -1.4680  -23.7030 O.2    16  ILE16      -0.2733
     32  CB        -9.5370   -4.2360  -25.3750 C.3    16  ILE16       0.0265
     33  CG1       -8.9890   -4.5050  -23.9840 C.3    16  ILE16       0.0019
     34  CG2       -9.0560   -5.1080  -26.5750 C.3    16  ILE16       0.0020
     35  CD1       -9.1970   -5.9330  -23.5580 C.3    16  ILE16       0.0001
     36  N        -11.3630   -1.5870  -24.7680 N.am   17  PRO17      -0.2718
     37  CA       -11.9110   -0.6150  -23.7700 C.3    17  PRO17       0.1535
     38  C        -12.2920   -1.3320  -22.4800 C.2    17  PRO17       0.2598
     39  O        -12.3730   -2.5320  -22.4190 O.2    17  PRO17      -0.2715
     40  CB       -13.1360   -0.0250  -24.4680 C.3    17  PRO17       0.0310
     41  CG       -13.5580   -1.2120  -25.3730 C.3    17  PRO17       0.0237
     42  CD       -12.2600   -1.7920  -25.9200 C.3    17  PRO17       0.0939
     43  N        -12.4580   -0.5000  -21.4640 N.am   18  ALA18      -0.1978
     44  CA       -12.9900   -0.9950  -20.2260 C.3    18  ALA18       0.1597
     45  C        -13.7550    0.1570  -19.7380 C.2    18  ALA18       0.2287
     46  O        -13.5680    1.3310  -20.1810 O.2    18  ALA18      -0.2864
     47  CB       -11.8950   -1.2950  -19.2260 C.3    18  ALA18       0.0319
     48  N        -11.6150    0.0850  -13.0860 N.3    30  PHE30      -0.1227
     49  CA       -12.6590   -0.2030  -14.0730 C.3    30  PHE30       0.1736
     50  C        -13.5660   -1.3090  -13.5140 C.2    30  PHE30       0.2595
     51  O        -13.1480   -2.1340  -12.7130 O.2    30  PHE30      -0.2718
     52  CB       -12.0430   -0.5380  -15.4560 C.3    30  PHE30       0.0547
     53  CG       -11.0050   -1.6710  -15.3950 C.ar   30  PHE30      -0.0202
     54  CD1       -9.6690   -1.3550  -15.1610 C.ar   30  PHE30      -0.0042
     55  CD2      -11.3670   -2.9670  -15.5520 C.ar   30  PHE30      -0.0042
     56  CE1       -8.7150   -2.3650  -15.0720 C.ar   30  PHE30      -0.0003
     57  CE2      -10.4070   -3.9930  -15.4810 C.ar   30  PHE30      -0.0003
     58  CZ        -9.0440   -3.6370  -15.2480 C.ar   30  PHE30      -0.0000
     59  N        -14.8040   -1.3830  -14.0110 N.am   31  HIS31      -0.1961
     60  CA       -15.7250   -2.3860  -13.5590 C.3    31  HIS31       0.1787
     61  C        -15.3170   -3.7610  -14.0350 C.2    31  HIS31       0.2620
     62  O        -14.8250   -3.9610  -15.1660 O.2    31  HIS31      -0.2715
     63  CB       -17.1330   -2.1020  -14.0640 C.3    31  HIS31       0.0785
     64  CG       -17.6820   -0.8590  -13.4530 C.ar   31  HIS31       0.0821
     65  ND1      -18.1530   -0.8320  -12.1740 N.ar   31  HIS31      -0.2267
     66  CD2      -17.8470    0.3930  -13.9580 C.ar   31  HIS31       0.1154
     67  CE1      -18.5920    0.3820  -11.9060 C.ar   31  HIS31       0.1986
     68  NE2      -18.4200    1.1450  -12.9620 N.ar   31  HIS31      -0.2212
     69  N        -15.5200   -4.7600  -13.1250 N.am   32  ASP32      -0.1957
     70  CA       -15.2350   -6.1310  -13.4800 C.3    32  ASP32       0.1840
     71  C        -16.2770   -6.6720  -14.4540 C.2    32  ASP32       0.2622
     72  O        -17.4750   -6.4640  -14.2460 O.2    32  ASP32      -0.2715
     73  CB       -15.1520   -6.9690  -12.1880 C.3    32  ASP32       0.1450
     74  CG       -14.5550   -8.3230  -12.4170 C.2    32  ASP32       0.3671
     75  OD1      -15.1650   -9.2150  -13.0300 O.co2  32  ASP32      -0.2456
     76  OD2      -13.4790   -8.5230  -11.8730 O.co2  32  ASP32      -0.2456
     77  N        -15.8510   -7.4410  -15.4580 N.am   33  ILE33      -0.1963
     78  CA       -16.7580   -7.9870  -16.4800 C.3    33  ILE33       0.1727
     79  C        -17.6420   -9.1300  -15.9550 C.2    33  ILE33       0.2616
     80  O        -18.6000   -9.5000  -16.5890 O.2    33  ILE33      -0.2715
     81  CB       -15.8770   -8.5210  -17.7480 C.3    33  ILE33       0.0290
     82  CG1      -16.7050   -8.4640  -19.0370 C.3    33  ILE33       0.0022
     83  CG2      -15.2130   -9.8120  -17.4260 C.3    33  ILE33       0.0023
     84  CD1      -15.7510   -8.4690  -20.1310 C.3    33  ILE33       0.0001
     85  N        -17.2500   -9.7230  -14.8430 N.am   34  SER34      -0.1950
     86  CA       -17.9670  -10.8270  -14.2130 C.3    34  SER34       0.1924
     87  C        -18.2600  -10.4980  -12.7670 C.2    34  SER34       0.2314
     88  O        -17.7200  -11.1050  -11.8380 O.2    34  SER34      -0.2863
     89  CB       -17.1200  -12.0640  -14.2730 C.3    34  SER34       0.2116
     90  OG       -17.9420  -13.1520  -13.9610 O.3    34  SER34      -0.2180
     91  N        -18.7180   -4.1400   -8.2810 N.3    40  HIS40      -0.1241
     92  CA       -17.4860   -4.9490   -8.3180 C.3    40  HIS40       0.1621
     93  C        -16.5780   -4.3530   -9.3560 C.2    40  HIS40       0.2264
     94  O        -16.8480   -4.4430  -10.5660 O.2    40  HIS40      -0.2867
     95  CB       -17.8130   -6.4170   -8.5810 C.3    40  HIS40       0.0745
     96  CG       -16.6380   -7.3320   -8.6030 C.ar   40  HIS40       0.0817
     97  ND1      -16.8090   -8.6790   -8.8580 N.ar   40  HIS40      -0.2268
     98  CD2      -15.3080   -7.1000   -8.3770 C.ar   40  HIS40       0.1154
     99  CE1      -15.5910   -9.2260   -8.8250 C.ar   40  HIS40       0.1986
    100  NE2      -14.6700   -8.3070   -8.5380 N.ar   40  HIS40      -0.2212
    101  N        -12.1830   -3.3140  -10.3080 N.3    42  LEU42      -0.1245
    102  CA       -10.7890   -3.6300  -10.1630 C.3    42  LEU42       0.1561
    103  C         -9.9810   -2.3240  -10.1300 C.2    42  LEU42       0.2260
    104  O        -10.2880   -1.3700  -10.8700 O.2    42  LEU42      -0.2867
    105  CB       -10.2640   -4.4500  -11.3100 C.3    42  LEU42       0.0270
    106  CG       -10.9730   -5.7990  -11.5020 C.3    42  LEU42       0.0019
    107  CD1      -10.2660   -6.5520  -12.6290 C.3    42  LEU42       0.0001
    108  CD2      -10.9200   -6.6340  -10.2920 C.3    42  LEU42       0.0001
    109  N         -5.8250  -11.6510   -5.0040 N.3    88  ASN88      -0.1240
    110  CA        -5.5770  -13.0690   -5.1640 C.3    88  ASN88       0.1653
    111  C         -4.1670  -13.2920   -5.6190 C.2    88  ASN88       0.2266
    112  O         -3.7440  -12.6760   -6.5960 O.2    88  ASN88      -0.2867
    113  CB        -6.5540  -13.6260   -6.1640 C.3    88  ASN88       0.1155
    114  CG        -7.9860  -13.6180   -5.6500 C.2    88  ASN88       0.2627
    115  OD1       -8.2330  -13.5380   -4.4490 O.2    88  ASN88      -0.2716
    116  ND2       -8.9140  -13.6930   -6.5430 N.am   88  ASN88      -0.0877
    117  N         -6.6900  -18.0590   -6.3770 N.3    94  GLY94      -0.1210
    118  CA        -7.6280  -17.9090   -7.4760 C.3    94  GLY94       0.1956
    119  C         -7.1950  -16.8780   -8.4810 C.2    94  GLY94       0.2612
    120  O         -8.0200  -16.4450   -9.2430 O.2    94  GLY94      -0.2717
    121  N         -5.9080  -16.5570   -8.5910 N.am   95  GLN95      -0.1965
    122  CA        -5.4430  -15.6130   -9.5540 C.3    95  GLN95       0.1733
    123  C         -5.4040  -16.2970  -10.9840 C.2    95  GLN95       0.2617
    124  O         -4.8280  -17.3600  -11.1290 O.2    95  GLN95      -0.2715
    125  CB        -4.0170  -15.1490   -9.1760 C.3    95  GLN95       0.0408
    126  CG        -3.5250  -14.0420  -10.0560 C.3    95  GLN95       0.0908
    127  CD        -2.1620  -13.4910   -9.6900 C.2    95  GLN95       0.2608
    128  OE1       -1.4860  -14.0000   -8.8040 O.2    95  GLN95      -0.2717
    129  NE2       -1.7940  -12.4140  -10.3760 N.am   95  GLN95      -0.0878
    130  N         -6.0980  -15.6120  -11.8820 N.am   96  SER96      -0.1936
    131  CA        -6.2650  -15.9820  -13.2570 C.3    96  SER96       0.2055
    132  C         -5.2460  -15.1940  -14.2460 C.2    96  SER96       0.2642
    133  O         -4.5240  -15.7380  -15.1640 O.2    96  SER96      -0.2714
    134  CB        -7.7330  -15.8680  -13.6790 C.3    96  SER96       0.2130
    135  OG        -8.2260  -14.5840  -13.5570 O.3    96  SER96      -0.2179
    136  N         -5.1370  -13.8940  -13.9140 N.am   97  VAL97      -0.1977
    137  CA        -4.5030  -12.8950  -14.7620 C.3    97  VAL97       0.1596
    138  C         -3.2540  -12.4610  -13.9970 C.2    97  VAL97       0.2287
    139  O         -3.4190  -11.9480  -12.8410 O.2    97  VAL97      -0.2864
    140  CB        -5.4230  -11.6570  -15.1250 C.3    97  VAL97       0.0276
    141  CG1       -4.6610  -10.6340  -15.9510 C.3    97  VAL97       0.0022
    142  CG2       -6.6860  -12.1190  -15.8530 C.3    97  VAL97       0.0022
    143  N         -4.0320   -7.0630   -9.3110 N.3   101  HIS101     -0.1241
    144  CA        -5.3270   -6.3720   -9.3720 C.3   101  HIS101      0.1621
    145  C         -6.0260   -6.4980   -8.0360 C.2   101  HIS101      0.2264
    146  O         -6.0970   -7.5740   -7.4480 O.2   101  HIS101     -0.2867
    147  CB        -6.2140   -6.8920  -10.5250 C.3   101  HIS101      0.0745
    148  CG        -6.3810   -8.3670  -10.6320 C.ar  101  HIS101      0.0817
    149  ND1       -5.3620   -9.1720  -11.0570 N.ar  101  HIS101     -0.2268
    150  CD2       -7.4500   -9.1890  -10.4780 C.ar  101  HIS101      0.1154
    151  CE1       -5.7900  -10.4490  -11.1330 C.ar  101  HIS101      0.1986
    152  NE2       -7.0550  -10.4680  -10.8070 N.ar  101  HIS101     -0.2212
    153  N         -9.5340   -6.2680   -6.2050 N.3   103  HIS103     -0.1241
    154  CA       -10.9830   -6.2820   -6.3190 C.3   103  HIS103      0.1621
    155  C        -11.5890   -5.4180   -5.2230 C.2   103  HIS103      0.2264
    156  O        -11.1440   -5.5030   -4.0600 O.2   103  HIS103     -0.2867
    157  CB       -11.5420   -7.7060   -6.1250 C.3   103  HIS103      0.0745
    158  CG       -11.1170   -8.7240   -7.1330 C.ar  103  HIS103      0.0817
    159  ND1      -11.9090   -9.0700   -8.1850 N.ar  103  HIS103     -0.2268
    160  CD2       -9.9440   -9.4460   -7.1900 C.ar  103  HIS103      0.1154
    161  CE1      -11.2410   -9.9860   -8.8660 C.ar  103  HIS103      0.1986
    162  NE2      -10.0760  -10.2530   -8.2720 N.ar  103  HIS103     -0.2212
@<TRIPOS>BOND
     1    34    32    1
     2    28    29    1
     3    42    41    1
     4    42    36    1
     5    29    32    1
     6    29    30    1
     7    32    33    1
     8    41    40    1
     9    36    30   am
    10    36    37    1
    11    30    31    2
    12    40    37    1
    13    33    35    1
    14    37    38    1
    15    38    39    2
    16    38    43   am
    17    20    21    1
    18    43    44    1
    19    23    22    2
    20    21    22    1
    21    21    24    1
    22     4     3    2
    23     2     1    1
    24     2     3    1
    25     2     5    1
    26     6     5    1
    27     6     8    1
    28    25    24    1
    29    25    27    1
    30    44    45    1
    31    44    47    1
    32    46    45    2
    33    84    82    1
    34     3     9   am
    35     7     5    1
    36    24    26    1
    37    82    81    1
    38    11    12    2
    39    11    10    1
    40     9    10    1
    41    10    13    1
    42    81    83    1
    43    81    78    1
    44    13    14    1
    45    15    14   ar
    46    15    17   ar
    47    80    79    2
    48    78    79    1
    49    78    77    1
    50    14    16   ar
    51    17    19   ar
    52    79    85   am
    53   141   140    1
    54   142   140    1
    55    55    57   ar
    56    55    53   ar
    57    57    58   ar
    58    77    71   am
    59    52    53    1
    60    52    49    1
    61    53    54   ar
    62    58    56   ar
    63    62    61    2
    64   133   132    2
    65    54    56   ar
    66   140   137    1
    67    85    86    1
    68    16    18   ar
    69   137   138    1
    70   137   136    1
    71    19    18   ar
    72    71    72    2
    73    71    70    1
    74    89    86    1
    75    89    90    1
    76   132   136   am
    77   132   131    1
    78    86    87    1
    79    49    50    1
    80    49    48    1
    81    63    60    1
    82    63    64    1
    83    61    60    1
    84    61    69   am
    85    59    60    1
    86    59    50   am
    87   138   139    2
    88    66    64   ar
    89    66    68   ar
    90   134   135    1
    91   134   131    1
    92    50    51    2
    93    70    69    1
    94    70    73    1
    95    64    65   ar
    96   131   130    1
    97    75    74   ar
    98    68    67   ar
    99    87    88    2
   100   107   106    1
   101    74    73    1
   102    74    76   ar
   103    65    67   ar
   104   130   123   am
   105   106   105    1
   106   106   108    1
   107   105   102    1
   108   151   149   ar
   109   151   152   ar
   110   124   123    2
   111   149   148   ar
   112   123   122    1
   113   104   103    2
   114   152   150   ar
   115   148   147    1
   116   148   150   ar
   117    94    93    2
   118   147   144    1
   119   129   127   am
   120   101   102    1
   121   102   103    1
   122   126   127    1
   123   126   125    1
   124   127   128    2
   125   122   125    1
   126   122   121    1
   127   144   143    1
   128   144   145    1
   129    93    92    1
   130   120   119    2
   131   161   162   ar
   132   161   159   ar
   133    97    99   ar
   134    97    96   ar
   135    99   100   ar
   136    96    95    1
   137    96    98   ar
   138   121   119   am
   139    95    92    1
   140   100    98   ar
   141   119   118    1
   142    92    91    1
   143   162   160   ar
   144   159   158   ar
   145   145   146    2
   146   118   117    1
   147   160   158   ar
   148   158   157    1
   149   112   111    2
   150   116   114   am
   151   154   153    1
   152   154   157    1
   153   154   155    1
   154   113   114    1
   155   113   110    1
   156   114   115    2
   157   111   110    1
   158   155   156    2
   159   110   109    1
