@<TRIPOS>MOLECULE
tmp/3o1dA00.pdb
 157 149 0 0 0
SMALL
GASTEIGER

@<TRIPOS>ATOM
      1  N          9.2670   38.4820   34.6860 N.3    53  ILE53      -0.1231
      2  CA        10.6950   38.2190   34.8210 C.3    53  ILE53       0.1692
      3  C         11.4890   39.4710   34.4800 C.2    53  ILE53       0.2591
      4  O         12.4030   39.8500   35.2110 O.2    53  ILE53      -0.2718
      5  CB        11.1660   37.0840   33.9020 C.3    53  ILE53       0.0266
      6  CG1       10.5530   35.7540   34.3360 C.3    53  ILE53       0.0019
      7  CG2       12.6810   36.9920   33.9210 C.3    53  ILE53       0.0020
      8  CD1       10.8570   34.6070   33.4000 C.3    53  ILE53       0.0001
      9  N         11.1370   40.1070   33.3650 N.am   54  GLN54      -0.1979
     10  CA        11.7540   41.3730   32.9840 C.3    54  GLN54       0.1601
     11  C         11.6760   42.3670   34.1370 C.2    54  GLN54       0.2287
     12  O         12.6550   43.0370   34.4620 O.2    54  GLN54      -0.2864
     13  CB        11.0880   41.9590   31.7330 C.3    54  GLN54       0.0394
     14  CG        11.6220   41.4160   30.4140 C.3    54  GLN54       0.0908
     15  CD        10.8840   41.9830   29.2150 C.2    54  GLN54       0.2608
     16  OE1        9.9300   41.3830   28.7200 O.2    54  GLN54      -0.2717
     17  NE2       11.3170   43.1490   28.7480 N.am   54  GLN54      -0.0878
     18  N         13.9460   41.4800   37.0210 N.3    57  ILE57      -0.1245
     19  CA        15.3240   41.8180   36.6870 C.3    57  ILE57       0.1561
     20  C         15.5790   43.2980   36.9420 C.2    57  ILE57       0.2260
     21  O         16.6420   43.6810   37.4340 O.2    57  ILE57      -0.2867
     22  CB        15.6460   41.5030   35.2130 C.3    57  ILE57       0.0252
     23  CG1       15.4380   40.0150   34.9260 C.3    57  ILE57       0.0019
     24  CG2       17.0710   41.9210   34.8740 C.3    57  ILE57       0.0019
     25  CD1       15.7570   39.6170   33.5030 C.3    57  ILE57       0.0001
     26  N         18.2790   44.5590   39.9190 N.3    61  LYS61      -0.1245
     27  CA        19.3860   45.4490   39.5820 C.3    61  LYS61       0.1561
     28  C         19.4450   46.6790   40.4840 C.2    61  LYS61       0.2260
     29  O         20.4650   47.3680   40.5340 O.2    61  LYS61      -0.2867
     30  CB        19.2870   45.8830   38.1160 C.3    61  LYS61       0.0271
     31  CG        19.6030   44.7780   37.1240 C.3    61  LYS61       0.0035
     32  CD        18.9480   45.0380   35.7740 C.3    61  LYS61       0.0206
     33  CE        19.5030   46.2870   35.1090 C.3    61  LYS61       0.1093
     34  NZ        18.5810   46.8160   34.0610 N.3    61  LYS61      -0.1314
     35  N         23.5400   44.3460   44.5180 N.3    66  PHE66      -0.1227
     36  CA        23.2980   43.3390   43.4930 C.3    66  PHE66       0.1736
     37  C         24.1440   43.6050   42.2520 C.2    66  PHE66       0.2595
     38  O         24.7160   42.6780   41.6810 O.2    66  PHE66      -0.2718
     39  CB        21.8120   43.2670   43.1250 C.3    66  PHE66       0.0547
     40  CG        21.4820   42.1740   42.1440 C.ar   66  PHE66      -0.0202
     41  CD1       21.3160   40.8670   42.5730 C.ar   66  PHE66      -0.0042
     42  CD2       21.3320   42.4540   40.7960 C.ar   66  PHE66      -0.0042
     43  CE1       21.0110   39.8600   41.6740 C.ar   66  PHE66      -0.0003
     44  CE2       21.0260   41.4540   39.8950 C.ar   66  PHE66      -0.0003
     45  CZ        20.8660   40.1550   40.3340 C.ar   66  PHE66      -0.0000
     46  N         24.2320   44.8700   41.8450 N.am   67  ARG67      -0.1980
     47  CA        24.9960   45.2430   40.6550 C.3    67  ARG67       0.1597
     48  C         26.4800   44.9120   40.7800 C.2    67  ARG67       0.2287
     49  O         27.1970   44.8520   39.7800 O.2    67  ARG67      -0.2864
     50  CB        24.8320   46.7350   40.3490 C.3    67  ARG67       0.0334
     51  CG        23.6170   47.0760   39.5050 C.3    67  ARG67       0.0492
     52  CD        23.4980   48.5790   39.3030 C.3    67  ARG67       0.2205
     53  NE        22.1350   48.9690   38.9580 N.pl3  67  ARG67      -0.0865
     54  CZ        21.6430   50.1930   39.1190 C.cat  67  ARG67       0.5346
     55  NH1       20.3880   50.4530   38.7800 N.pl3  67  ARG67       0.1354
     56  NH2       22.4010   51.1570   39.6250 N.pl3  67  ARG67       0.1354
     57  N         28.4210   38.7760   37.0620 N.3    71  ALA71      -0.1231
     58  CA        27.2700   38.5710   36.1890 C.3    71  ALA71       0.1694
     59  C         26.7170   37.1640   36.3620 C.2    71  ALA71       0.2591
     60  O         25.5110   36.9380   36.2500 O.2    71  ALA71      -0.2718
     61  CB        27.6530   38.8170   34.7390 C.3    71  ALA71       0.0304
     62  N         27.6140   36.2230   36.6390 N.am   72  GLU72      -0.1979
     63  CA        27.2330   34.8380   36.8680 C.3    72  GLU72       0.1602
     64  C         26.3590   34.7220   38.1070 C.2    72  GLU72       0.2287
     65  O         25.2990   34.1030   38.0670 O.2    72  GLU72      -0.2864
     66  CB        28.4740   33.9580   37.0130 C.3    72  GLU72       0.0415
     67  CG        29.3790   33.9840   35.7940 C.3    72  GLU72       0.1163
     68  CD        30.0250   35.3400   35.5830 C.2    72  GLU72       0.3649
     69  OE1       30.8140   35.7590   36.4540 O.co2  72  GLU72      -0.2457
     70  OE2       29.7370   35.9950   34.5580 O.co2  72  GLU72      -0.2457
     71  N         24.6460   37.0990   39.5980 N.3    74  GLN74      -0.1231
     72  CA        23.3960   37.7870   39.2940 C.3    74  GLN74       0.1698
     73  C         22.4630   36.8440   38.5410 C.2    74  GLN74       0.2592
     74  O         21.2780   36.7350   38.8600 O.2    74  GLN74      -0.2718
     75  CB        23.6610   39.0450   38.4600 C.3    74  GLN74       0.0381
     76  CG        24.6420   40.0220   39.0910 C.3    74  GLN74       0.0905
     77  CD        24.7160   41.3460   38.3520 C.2    74  GLN74       0.2608
     78  OE1       23.8350   41.6790   37.5620 O.2    74  GLN74      -0.2717
     79  NE2       25.7740   42.1070   38.6080 N.am   74  GLN74      -0.0878
     80  N         23.0120   36.1560   37.5450 N.am   75  ILE75      -0.1980
     81  CA        22.2460   35.1990   36.7580 C.3    75  ILE75       0.1595
     82  C         21.8250   33.9890   37.5910 C.2    75  ILE75       0.2287
     83  O         20.6620   33.5850   37.5650 O.2    75  ILE75      -0.2864
     84  CB        23.0340   34.7320   35.5210 C.3    75  ILE75       0.0276
     85  CG1       23.1580   35.8750   34.5080 C.3    75  ILE75       0.0022
     86  CG2       22.3590   33.5290   34.8820 C.3    75  ILE75       0.0022
     87  CD1       24.0910   35.5760   33.3640 C.3    75  ILE75       0.0001
     88  N         18.9610   35.1720   39.8610 N.3    78  LEU78      -0.1231
     89  CA        17.7410   35.4600   39.1150 C.3    78  LEU78       0.1693
     90  C         17.0560   34.1690   38.6880 C.2    78  LEU78       0.2591
     91  O         15.8560   33.9940   38.8980 O.2    78  LEU78      -0.2718
     92  CB        18.0440   36.3140   37.8800 C.3    78  LEU78       0.0284
     93  CG        17.5860   37.7750   37.8810 C.3    78  LEU78       0.0019
     94  CD1       16.4440   37.9960   38.8700 C.3    78  LEU78       0.0001
     95  CD2       18.7520   38.7060   38.1800 C.3    78  LEU78       0.0001
     96  N         17.8270   33.2650   38.0940 N.am   79  LYS79      -0.1980
     97  CA        17.2770   32.0160   37.5840 C.3    79  LYS79       0.1596
     98  C         16.6170   31.1930   38.6870 C.2    79  LYS79       0.2287
     99  O         15.5140   30.6800   38.5070 O.2    79  LYS79      -0.2864
    100  CB        18.3560   31.1920   36.8700 C.3    79  LYS79       0.0298
    101  CG        18.8920   31.8330   35.5940 C.3    79  LYS79       0.0038
    102  CD        19.7460   30.8620   34.7840 C.3    79  LYS79       0.0206
    103  CE        18.9420   29.6460   34.3500 C.3    79  LYS79       0.1093
    104  NZ        19.7450   28.6960   33.5290 N.3    79  LYS79      -0.1314
    105  N         11.4580   33.1850   24.5130 N.3   229  PRO229     -0.2102
    106  CA        12.9050   32.9940   24.6510 C.3   229  PRO229      0.1504
    107  C         13.4140   33.2980   26.0620 C.2   229  PRO229      0.2575
    108  O         14.2840   32.5770   26.5470 O.2   229  PRO229     -0.2718
    109  CB        13.4790   33.9860   23.6380 C.3   229  PRO229      0.0282
    110  CG        12.4370   34.0490   22.5700 C.3   229  PRO229      0.0208
    111  CD        11.1170   33.9520   23.3000 C.3   229  PRO229      0.0893
    112  N         12.8850   34.3380   26.7050 N.am  230  LEU230     -0.1980
    113  CA        13.3040   34.6870   28.0650 C.3   230  LEU230      0.1596
    114  C         12.9420   33.5750   29.0490 C.2   230  LEU230      0.2287
    115  O         13.8060   33.0780   29.7760 O.2   230  LEU230     -0.2864
    116  CB        12.6940   36.0240   28.5100 C.3   230  LEU230      0.0297
    117  CG        13.1060   36.5810   29.8790 C.3   230  LEU230      0.0022
    118  CD1       14.6140   36.7930   29.9620 C.3   230  LEU230      0.0001
    119  CD2       12.3620   37.8770   30.1820 C.3   230  LEU230      0.0001
    120  N         15.0230   30.5680   28.6540 N.3   233  GLU233     -0.1231
    121  CA        16.4010   30.7820   29.0850 C.3   233  GLU233      0.1699
    122  C         16.5240   30.8350   30.6040 C.2   233  GLU233      0.2592
    123  O         17.5220   30.3860   31.1660 O.2   233  GLU233     -0.2718
    124  CB        16.9480   32.0760   28.4840 C.3   233  GLU233      0.0402
    125  CG        18.3340   32.4640   28.9660 C.3   233  GLU233      0.1161
    126  CD        18.8450   33.7210   28.2930 C.2   233  GLU233      0.3649
    127  OE1       18.7550   33.8230   27.0480 O.co2 233  GLU233     -0.2457
    128  OE2       19.3360   34.6110   29.0120 O.co2 233  GLU233     -0.2457
    129  N         15.5130   31.3920   31.2630 N.am  234  VAL234     -0.1980
    130  CA        15.5450   31.5500   32.7140 C.3   234  VAL234      0.1595
    131  C         15.2090   30.2540   33.4450 C.2   234  VAL234      0.2287
    132  O         15.8030   29.9460   34.4770 O.2   234  VAL234     -0.2864
    133  CB        14.6000   32.6720   33.1900 C.3   234  VAL234      0.0276
    134  CG1       14.3740   32.5840   34.7020 C.3   234  VAL234      0.0022
    135  CG2       15.1620   34.0320   32.7970 C.3   234  VAL234      0.0022
    136  N         20.3890   25.1060   30.8220 N.3   238  GLU238     -0.1231
    137  CA        21.6240   25.5220   30.1730 C.3   238  GLU238      0.1699
    138  C         22.5280   26.1360   31.2270 C.2   238  GLU238      0.2592
    139  O         22.1540   27.0980   31.8960 O.2   238  GLU238     -0.2718
    140  CB        21.3490   26.5160   29.0460 C.3   238  GLU238      0.0402
    141  CG        20.5890   25.9240   27.8750 C.3   238  GLU238      0.1161
    142  CD        20.3890   26.9220   26.7590 C.2   238  GLU238      0.3649
    143  OE1       19.8920   28.0320   27.0420 O.co2 238  GLU238     -0.2457
    144  OE2       20.7390   26.6040   25.6030 O.co2 238  GLU238     -0.2457
    145  N         23.7120   25.5590   31.3880 N.am  239  VAL239     -0.1966
    146  CA        24.5710   25.9040   32.5130 C.3   239  VAL239      0.1727
    147  C         25.8580   26.6230   32.1120 C.2   239  VAL239      0.2616
    148  O         26.6080   26.1600   31.2490 O.2   239  VAL239     -0.2715
    149  CB        24.8790   24.6620   33.3810 C.3   239  VAL239      0.0290
    150  CG1       26.3610   24.5850   33.7180 C.3   239  VAL239      0.0023
    151  CG2       24.0140   24.6700   34.6420 C.3   239  VAL239      0.0023
    152  N         26.0890   27.7680   32.7490 N.am  240  SER240     -0.1950
    153  CA        27.2740   28.5840   32.5000 C.3   240  SER240      0.1924
    154  C         27.6280   29.4070   33.7290 C.2   240  SER240      0.2314
    155  O         28.5520   29.0670   34.4630 O.2   240  SER240     -0.2863
    156  CB        27.0580   29.5210   31.3100 C.3   240  SER240      0.2116
    157  OG        26.2770   30.6460   31.6760 O.3   240  SER240     -0.2180
@<TRIPOS>BOND
     1   110   111    1
     2   110   109    1
     3   111   105    1
     4   109   106    1
     5   105   106    1
     6   106   107    1
     7   144   142   ar
     8   107   108    2
     9   107   112   am
    10   112   113    1
    11   142   143   ar
    12   142   141    1
    13   127   126   ar
    14   141   140    1
    15   113   116    1
    16   113   114    1
    17   126   125    1
    18   126   128   ar
    19   124   125    1
    20   124   121    1
    21   116   117    1
    22   120   121    1
    23    16    15    2
    24    17    15   am
    25   140   137    1
    26   114   115    2
    27   121   122    1
    28    15    14    1
    29   117   118    1
    30   117   119    1
    31   137   136    1
    32   137   138    1
    33    14    13    1
    34   122   123    2
    35   122   129   am
    36   138   145   am
    37   138   139    2
    38   148   147    2
    39   129   130    1
    40   156   157    1
    41   156   153    1
    42   145   146    1
    43    13    10    1
    44   147   146    1
    45   147   152   am
    46   153   152    1
    47   153   154    1
    48   146   149    1
    49   130   133    1
    50   130   131    1
    51   135   133    1
    52    10     9    1
    53    10    11    1
    54   133   134    1
    55    87    85    1
    56     9     3   am
    57   149   150    1
    58   149   151    1
    59     8     6    1
    60   131   132    2
    61    25    23    1
    62   104   103    1
    63   154   155    2
    64     5     7    1
    65     5     6    1
    66     5     2    1
    67    34    33    1
    68    11    12    2
    69   103   102    1
    70     3     2    1
    71     3     4    2
    72    85    84    1
    73    70    68   ar
    74     1     2    1
    75    61    58    1
    76   102   101    1
    77    24    22    1
    78    86    84    1
    79    23    22    1
    80    33    32    1
    81    22    19    1
    82    84    81    1
    83    68    67    1
    84    68    69   ar
    85   101   100    1
    86    32    31    1
    87    67    66    1
    88    58    59    1
    89    58    57    1
    90    60    59    2
    91    59    62   am
    92    62    63    1
    93    19    20    1
    94    19    18    1
    95    81    80    1
    96    81    82    1
    97    63    66    1
    98    63    64    1
    99   100    97    1
   100    20    21    2
   101    31    30    1
   102    80    73   am
   103    78    77    2
   104    83    82    2
   105    97    96    1
   106    97    98    1
   107    92    93    1
   108    92    89    1
   109    93    95    1
   110    93    94    1
   111    65    64    2
   112    96    90   am
   113    30    27    1
   114    77    79   am
   115    77    76    1
   116    75    76    1
   117    75    72    1
   118    99    98    2
   119    73    74    2
   120    73    72    1
   121    90    91    2
   122    90    89    1
   123    55    54    1
   124    53    54    2
   125    53    52    1
   126    89    88    1
   127    54    56    1
   128    72    71    1
   129    52    51    1
   130    51    50    1
   131    27    26    1
   132    27    28    1
   133    49    48    2
   134    44    45   ar
   135    44    42   ar
   136    45    43   ar
   137    50    47    1
   138    28    29    2
   139    47    48    1
   140    47    46    1
   141    42    40   ar
   142    43    41   ar
   143    38    37    2
   144    46    37   am
   145    40    41   ar
   146    40    39    1
   147    37    36    1
   148    39    36    1
   149    36    35    1
