@<TRIPOS>MOLECULE
tmp/3o1gA00.pdb
 148 142 0 0 0
SMALL
GASTEIGER

@<TRIPOS>ATOM
      1  N         25.2140    1.2660    2.8740 N.3    19  GLN19      -0.1245
      2  CA        23.9450    1.9390    2.6060 C.3    19  GLN19       0.1566
      3  C         23.8350    3.3440    3.2540 C.2    19  GLN19       0.2260
      4  O         22.9250    4.1150    2.9310 O.2    19  GLN19      -0.2867
      5  CB        22.7920    1.0310    3.0450 C.3    19  GLN19       0.0367
      6  CG        22.7140    0.8010    4.5480 C.3    19  GLN19       0.0905
      7  CD        21.6470   -0.2260    4.9380 C.2    19  GLN19       0.2608
      8  OE1       20.6750    0.1180    5.6020 O.2    19  GLN19      -0.2717
      9  NE2       21.8360   -1.4770    4.5420 N.am   19  GLN19      -0.0878
     10  N         17.6040    3.3230    4.9460 N.3    23  GLY23      -0.1225
     11  CA        17.1580    1.9510    5.2070 C.3    23  GLY23       0.1811
     12  C         16.8850    1.1960    3.9160 C.2    23  GLY23       0.2280
     13  O         15.7700    0.7110    3.6870 O.2    23  GLY23      -0.2866
     14  N         18.6690   -1.5330    2.7160 N.3    25  CYS25      -0.1235
     15  CA        19.2420   -2.8890    2.6980 C.3    25  CYS25       0.1677
     16  C         18.6290   -3.7570    1.5910 C.2    25  CYS25       0.2270
     17  O         19.3390   -4.5120    0.9070 O.2    25  CYS25      -0.2867
     18  CB        19.0620   -3.5680    4.0530 C.3    25  CYS25       0.0956
     19  SG        17.3550   -3.6820    4.6190 S.3    25  CYS25      -0.0801
     20  N          6.3430    0.2200   -5.0260 N.3    59  GLU59      -0.1231
     21  CA         5.7520   -0.7110   -4.0520 C.3    59  GLU59       0.1699
     22  C          6.5370   -0.8030   -2.7380 C.2    59  GLU59       0.2592
     23  O          6.0090   -1.2740   -1.7370 O.2    59  GLU59      -0.2718
     24  CB         5.6380   -2.1140   -4.6510 C.3    59  GLU59       0.0402
     25  CG         4.7850   -2.2160   -5.8880 C.3    59  GLU59       0.1161
     26  CD         3.3160   -1.9300   -5.6570 C.2    59  GLU59       0.3649
     27  OE1        2.6230   -1.7010   -6.6720 O.co2  59  GLU59      -0.2457
     28  OE2        2.8400   -1.9310   -4.4930 O.co2  59  GLU59      -0.2457
     29  N          7.8010   -0.3850   -2.7580 N.am   60  ASN60      -0.1960
     30  CA         8.6260   -0.2940   -1.5580 C.3    60  ASN60       0.1819
     31  C          8.6230    1.1450   -1.0340 C.2    60  ASN60       0.2621
     32  O          8.0150    2.0200   -1.6700 O.2    60  ASN60      -0.2715
     33  CB        10.0640   -0.7480   -1.8880 C.3    60  ASN60       0.1195
     34  CG        10.1940   -2.2550   -2.0490 C.2    60  ASN60       0.2630
     35  OD1       11.2250   -2.7460   -2.5490 O.2    60  ASN60      -0.2716
     36  ND2        9.2040   -2.9960   -1.5950 N.am   60  ASN60      -0.0877
     37  N          9.2810    1.3920    0.1030 N.am   61  ASP61      -0.1971
     38  CA         9.2580    2.7120    0.7390 C.3    61  ASP61       0.1709
     39  C         10.6400    3.3610    0.7770 C.2    61  ASP61       0.2293
     40  O         10.9970    4.0470    1.7520 O.2    61  ASP61      -0.2864
     41  CB         8.6700    2.5990    2.1480 C.3    61  ASP61       0.1436
     42  CG         8.3970    3.9580    2.7910 C.2    61  ASP61       0.3671
     43  OD1        8.1480    4.9430    2.0620 O.co2  61  ASP61      -0.2456
     44  OD2        8.4340    4.0360    4.0360 O.co2  61  ASP61      -0.2456
     45  N         13.9940    4.6150    1.4640 N.3    63  CYS63      -0.1221
     46  CA        14.8580    4.5020    2.6450 C.3    63  CYS63       0.1808
     47  C         14.1420    4.0000    3.9180 C.2    63  CYS63       0.2602
     48  O         14.7730    3.8970    4.9860 O.2    63  CYS63      -0.2717
     49  CB        15.5340    5.8400    2.9550 C.3    63  CYS63       0.0970
     50  SG        16.7430    6.3670    1.7470 S.3    63  CYS63      -0.0800
     51  N         12.8430    3.7380    3.8120 N.am   64  GLY64      -0.1942
     52  CA        12.0340    3.2270    4.9200 C.3    64  GLY64       0.2014
     53  C         11.7540    1.7420    4.8490 C.2    64  GLY64       0.2639
     54  O         10.9300    1.2280    5.6010 O.2    64  GLY64      -0.2714
     55  N         12.4740    1.0490    3.9710 N.am   65  GLY65      -0.1939
     56  CA        12.3640   -0.3850    3.8400 C.3    65  GLY65       0.2014
     57  C         11.6490   -0.8580    2.5900 C.2    65  GLY65       0.2639
     58  O         11.1080   -0.0730    1.7910 O.2    65  GLY65      -0.2714
     59  N         11.6460   -2.1710    2.4140 N.am   66  GLY66      -0.1939
     60  CA        11.0850   -2.7660    1.2290 C.3    66  GLY66       0.2014
     61  C         11.3390   -4.2600    1.1860 C.2    66  GLY66       0.2639
     62  O         12.0220   -4.8150    2.0580 O.2    66  GLY66      -0.2714
     63  N         10.7460   -4.8830    0.1750 N.am   67  TYR67      -0.1959
     64  CA        10.9630   -6.2810   -0.1680 C.3    67  TYR67       0.1771
     65  C         11.7830   -6.4640   -1.4510 C.2    67  TYR67       0.2619
     66  O         11.6480   -5.7300   -2.4270 O.2    67  TYR67      -0.2715
     67  CB         9.6220   -6.9940   -0.3870 C.3    67  TYR67       0.0574
     68  CG         8.7980   -7.2910    0.8470 C.ar   67  TYR67      -0.0198
     69  CD1        7.4160   -7.0990    0.8420 C.ar   67  TYR67      -0.0009
     70  CD2        9.3790   -7.7990    2.0090 C.ar   67  TYR67      -0.0009
     71  CE1        6.6440   -7.4090    1.9640 C.ar   67  TYR67       0.0417
     72  CE2        8.6170   -8.1020    3.1230 C.ar   67  TYR67       0.0417
     73  CZ         7.2580   -7.9040    3.1040 C.ar   67  TYR67       0.1957
     74  OH         6.5130   -8.2100    4.2360 O.3    67  TYR67      -0.2866
     75  N         12.5950   -7.5120   -1.4750 N.am   68  MET68      -0.1977
     76  CA        13.3950   -7.8010   -2.6480 C.3    68  MET68       0.1605
     77  C         12.5430   -8.2770   -3.8240 C.2    68  MET68       0.2287
     78  O         12.8120   -7.9420   -4.9550 O.2    68  MET68      -0.2864
     79  CB        14.4760   -8.8320   -2.3110 C.3    68  MET68       0.0413
     80  CG        15.4400   -8.3470   -1.2560 C.3    68  MET68       0.0598
     81  SD        14.7940   -8.4950    0.4150 S.3    68  MET68      -0.1393
     82  CE        15.2280  -10.2010    0.7830 C.3    68  MET68       0.0692
     83  N          9.6110   -7.2910   -4.6840 N.3    70  ASN70      -0.1240
     84  CA         9.0950   -6.0530   -5.3180 C.3    70  ASN70       0.1653
     85  C         10.1440   -5.4510   -6.2520 C.2    70  ASN70       0.2266
     86  O          9.8190   -4.9270   -7.3190 O.2    70  ASN70      -0.2867
     87  CB         8.6810   -4.9870   -4.2800 C.3    70  ASN70       0.1155
     88  CG         7.4170   -5.3410   -3.5010 C.2    70  ASN70       0.2627
     89  OD1        7.1720   -4.7840   -2.4120 O.2    70  ASN70      -0.2716
     90  ND2        6.5980   -6.2170   -4.0490 N.am   70  ASN70      -0.0877
     91  N         16.0710  -12.4560    3.9880 N.3   134  ALA134     -0.1245
     92  CA        15.7210  -11.5680    5.0810 C.3   134  ALA134      0.1562
     93  C         15.9040  -12.2650    6.4210 C.2   134  ALA134      0.2260
     94  O         15.6690  -13.4740    6.5570 O.2   134  ALA134     -0.2867
     95  CB        14.2750  -11.0910    4.9390 C.3   134  ALA134      0.0290
     96  N         11.2480  -10.3060   10.6250 N.3   160  LEU160     -0.1231
     97  CA        12.1340  -10.0530    9.4910 C.3   160  LEU160      0.1693
     98  C         12.2660   -8.5560    9.2850 C.2   160  LEU160      0.2592
     99  O         11.3140   -7.8770    8.8840 O.2   160  LEU160     -0.2718
    100  CB        11.6230  -10.7320    8.2210 C.3   160  LEU160      0.0284
    101  CG        11.3760  -12.2310    8.3810 C.3   160  LEU160      0.0019
    102  CD1       10.8350  -12.8280    7.1150 C.3   160  LEU160      0.0001
    103  CD2       12.6350  -12.9750    8.8310 C.3   160  LEU160      0.0001
    104  N         13.4530   -8.0440    9.5710 N.am  161  ASN161     -0.1960
    105  CA        13.6510   -6.6000    9.5940 C.3   161  ASN161      0.1819
    106  C         14.9150   -6.1190    8.8770 C.2   161  ASN161      0.2621
    107  O         15.2300   -4.9240    8.8950 O.2   161  ASN161     -0.2715
    108  CB        13.6350   -6.1260   11.0490 C.3   161  ASN161      0.1195
    109  CG        14.6200   -6.8760   11.9140 C.2   161  ASN161      0.2630
    110  OD1       15.8060   -6.9560   11.5840 O.2   161  ASN161     -0.2716
    111  ND2       14.1380   -7.4530   13.0270 N.am  161  ASN161     -0.0877
    112  N         15.6600   -7.0440    8.2650 N.am  162  HIS162     -0.1959
    113  CA        16.8790   -6.6750    7.5430 C.3   162  HIS162      0.1787
    114  C         17.0730   -7.6300    6.3580 C.2   162  HIS162      0.2620
    115  O         16.7750   -8.8240    6.4610 O.2   162  HIS162     -0.2715
    116  CB        18.0920   -6.7160    8.4840 C.3   162  HIS162      0.0785
    117  CG        19.3450   -6.1500    7.8980 C.ar  162  HIS162      0.0821
    118  ND1       19.4050   -4.8940    7.3330 N.ar  162  HIS162     -0.2267
    119  CD2       20.5890   -6.6750    7.7800 C.ar  162  HIS162      0.1154
    120  CE1       20.6310   -4.6770    6.8810 C.ar  162  HIS162      0.1986
    121  NE2       21.3700   -5.7400    7.1440 N.ar  162  HIS162     -0.2212
    122  N         17.5630   -7.0750    5.2500 N.am  163  ALA163     -0.1977
    123  CA        17.7810   -7.8040    4.0020 C.3   163  ALA163      0.1597
    124  C         19.2660   -7.8630    3.7110 C.2   163  ALA163      0.2287
    125  O         19.9640   -6.8530    3.7870 O.2   163  ALA163     -0.2864
    126  CB        17.0750   -7.1150    2.8480 C.3   163  ALA163      0.0319
    127  N         26.6140   -2.7270    5.3000 N.3   184  TRP184     -0.1241
    128  CA        26.9340   -1.7520    6.3220 C.3   184  TRP184      0.1605
    129  C         28.4330   -1.4020    6.2690 C.2   184  TRP184      0.2264
    130  O         29.0160   -0.9550    7.2660 O.2   184  TRP184     -0.2867
    131  CB        26.5590   -2.3180    7.6870 C.3   184  TRP184      0.0550
    132  CG        25.1020   -2.4470    7.9410 C.ar  184  TRP184      0.0003
    133  CD1       24.0840   -1.8500    7.2690 C.ar  184  TRP184      0.0946
    134  CD2       24.4970   -3.1970    9.0000 C.ar  184  TRP184      0.0152
    135  NE1       22.8730   -2.1870    7.8370 N.ar  184  TRP184     -0.2442
    136  CE2       23.0990   -3.0240    8.8930 C.ar  184  TRP184      0.0810
    137  CE3       25.0030   -4.0010   10.0220 C.ar  184  TRP184      0.0012
    138  CZ2       22.1980   -3.6390    9.7730 C.ar  184  TRP184      0.0191
    139  CZ3       24.1070   -4.6170   10.8950 C.ar  184  TRP184      0.0001
    140  CH2       22.7230   -4.4260   10.7620 C.ar  184  TRP184      0.0015
    141  N         12.1630  -15.7540    3.9260 N.3   209  LEU209     -0.1245
    142  CA        11.8320  -14.8120    2.8540 C.3   209  LEU209      0.1561
    143  C         12.9980  -14.6610    1.8880 C.2   209  LEU209      0.2260
    144  O         13.5240  -13.5560    1.6780 O.2   209  LEU209     -0.2867
    145  CB        11.4150  -13.4510    3.4460 C.3   209  LEU209      0.0270
    146  CG        10.5000  -12.5870    2.5860 C.3   209  LEU209      0.0019
    147  CD1        9.1060  -13.2060    2.5160 C.3   209  LEU209      0.0001
    148  CD2       10.4410  -11.1330    3.1140 C.3   209  LEU209      0.0001
@<TRIPOS>BOND
     1    86    85    2
     2    27    26   ar
     3    85    84    1
     4    25    26    1
     5    25    24    1
     6    26    28   ar
     7    84    83    1
     8    84    87    1
     9    20    21    1
    10    78    77    2
    11    24    21    1
    12    87    88    1
    13    21    22    1
    14    90    88   am
    15    77    76    1
    16    88    89    2
    17    29    22   am
    18    29    30    1
    19    22    23    2
    20    76    79    1
    21    76    75    1
    22    35    34    2
    23    66    65    2
    24    79    80    1
    25    34    33    1
    26    34    36   am
    27    33    30    1
    28    32    31    2
    29    30    31    1
    30    75    65   am
    31    65    64    1
    32    80    81    1
    33    31    37   am
    34    67    64    1
    35    67    68    1
    36    64    63    1
    37    37    38    1
    38    63    61   am
    39    81    82    1
    40    38    39    1
    41    38    41    1
    42    39    40    2
    43    69    68   ar
    44    69    71   ar
    45    68    70   ar
    46    17    16    2
    47    61    60    1
    48    61    62    2
    49    60    59    1
    50    45    46    1
    51    16    15    1
    52   144   143    2
    53    50    49    1
    54    58    57    2
    55   143   142    1
    56    71    73   ar
    57    70    72   ar
    58    43    42   ar
    59    41    42    1
    60    59    57   am
    61   147   146    1
    62   146   148    1
    63   146   145    1
    64    57    56    1
    65     2     1    1
    66     2     5    1
    67     2     3    1
    68    46    49    1
    69    46    47    1
    70    15    14    1
    71    15    18    1
    72    42    44   ar
    73   126   123    1
    74   142   145    1
    75   142   141    1
    76     4     3    2
    77     5     6    1
    78    73    72   ar
    79    73    74    1
    80    13    12    2
    81   124   125    2
    82   124   123    1
    83    51    47   am
    84    51    52    1
    85    56    55    1
    86    12    11    1
    87    47    48    2
    88    55    53   am
    89    91    92    1
    90   123   122    1
    91    18    19    1
    92     9     7   am
    93     6     7    1
    94    53    52    1
    95    53    54    2
    96     7     8    2
    97    95    92    1
    98    10    11    1
    99    92    93    1
   100   122   114   am
   101   127   128    1
   102   129   128    1
   103   129   130    2
   104   128   131    1
   105   114   115    2
   106   114   113    1
   107    93    94    2
   108   120   121   ar
   109   120   118   ar
   110   102   101    1
   111   121   119   ar
   112   133   135   ar
   113   133   132   ar
   114   118   117   ar
   115   113   112    1
   116   113   116    1
   117   131   132    1
   118   119   117   ar
   119   135   136   ar
   120   117   116    1
   121   132   134   ar
   122   100   101    1
   123   100    97    1
   124   112   106   am
   125   101   103    1
   126   106   107    2
   127   106   105    1
   128    99    98    2
   129   136   134   ar
   130   136   138   ar
   131   134   137   ar
   132    98    97    1
   133    98   104   am
   134    97    96    1
   135   104   105    1
   136   105   108    1
   137   138   140   ar
   138   137   139   ar
   139   140   139   ar
   140   108   109    1
   141   110   109    2
   142   109   111   am
