@<TRIPOS>MOLECULE
tmp/3o23A00.pdb
 203 192 0 0 0
SMALL
GASTEIGER

@<TRIPOS>ATOM
      1  N          0.4520    9.6090   26.2380 N.3    15  LEU15      -0.1245
      2  CA         1.1710    9.5780   24.9730 C.3    15  LEU15       0.1561
      3  C          0.2410    9.0620   23.8840 C.2    15  LEU15       0.2260
      4  O          0.2720    9.5430   22.7500 O.2    15  LEU15      -0.2867
      5  CB         2.4000    8.6720   25.0730 C.3    15  LEU15       0.0270
      6  CG         3.5510    9.1940   25.9310 C.3    15  LEU15       0.0019
      7  CD1        4.6270    8.1290   26.0550 C.3    15  LEU15       0.0001
      8  CD2        4.1160   10.4590   25.3030 C.3    15  LEU15       0.0001
      9  N         -1.7620    4.6450   27.0340 N.3    23  VAL23      -0.1245
     10  CA        -0.3340    4.6580   27.3190 C.3    23  VAL23       0.1561
     11  C          0.0420    6.0360   27.8620 C.2    23  VAL23       0.2260
     12  O         -0.2210    7.0590   27.2270 O.2    23  VAL23      -0.2867
     13  CB         0.4990    4.3650   26.0540 C.3    23  VAL23       0.0252
     14  CG1        1.9750    4.2660   26.4160 C.3    23  VAL23       0.0019
     15  CG2        0.0220    3.0750   25.4060 C.3    23  VAL23       0.0019
     16  N          7.9290    5.1860   29.8600 N.3    41  ALA41      -0.1245
     17  CA         6.6430    5.1280   29.1850 C.3    41  ALA41       0.1562
     18  C          5.8210    4.0630   29.9030 C.2    41  ALA41       0.2260
     19  O          6.2490    2.9130   30.0250 O.2    41  ALA41      -0.2867
     20  CB         6.8310    4.7600   27.7230 C.3    41  ALA41       0.0290
     21  N          2.6680    1.6080   30.1730 N.3    43  LYS43      -0.1245
     22  CA         1.7100    0.8810   29.3450 C.3    43  LYS43       0.1561
     23  C          0.6720    0.2640   30.2820 C.2    43  LYS43       0.2260
     24  O          1.0210   -0.4960   31.1870 O.2    43  LYS43      -0.2867
     25  CB         2.4320   -0.2100   28.5560 C.3    43  LYS43       0.0271
     26  CG         1.8520   -0.4840   27.1830 C.3    43  LYS43       0.0035
     27  CD         2.6520   -1.5690   26.4860 C.3    43  LYS43       0.0206
     28  CE         2.2030   -1.7710   25.0510 C.3    43  LYS43       0.1093
     29  NZ         3.0040   -2.8430   24.3910 N.3    43  LYS43      -0.1314
     30  N          3.0200  -11.0990   25.9480 N.3    60  GLU60      -0.1245
     31  CA         3.8600  -10.4260   24.9630 C.3    60  GLU60       0.1567
     32  C          4.9530   -9.6080   25.6470 C.2    60  GLU60       0.2260
     33  O          6.0300   -9.4010   25.0860 O.2    60  GLU60      -0.2867
     34  CB         3.0060   -9.5230   24.0690 C.3    60  GLU60       0.0388
     35  CG         3.7260   -9.0320   22.8170 C.3    60  GLU60       0.1160
     36  CD         2.8050   -8.2980   21.8480 C.2    60  GLU60       0.3649
     37  OE1        1.8410   -8.9190   21.3470 O.co2  60  GLU60      -0.2457
     38  OE2        3.0480   -7.0980   21.5880 O.co2  60  GLU60      -0.2457
     39  N          8.1370  -11.3490   26.4470 N.3    63  VAL63      -0.1231
     40  CA         8.9570  -11.5340   25.2570 C.3    63  VAL63       0.1692
     41  C         10.1330  -10.5660   25.3320 C.2    63  VAL63       0.2591
     42  O         11.2700  -10.9220   25.0220 O.2    63  VAL63      -0.2718
     43  CB         8.1470  -11.2370   23.9780 C.3    63  VAL63       0.0266
     44  CG1        9.0260  -11.4020   22.7460 C.3    63  VAL63       0.0020
     45  CG2        6.9400  -12.1580   23.9100 C.3    63  VAL63       0.0020
     46  N          9.8460   -9.3390   25.7560 N.am   64  MET64      -0.1979
     47  CA        10.8700   -8.3110   25.8770 C.3    64  MET64       0.1605
     48  C         11.8390   -8.6000   27.0140 C.2    64  MET64       0.2287
     49  O         12.9590   -8.0860   27.0250 O.2    64  MET64      -0.2864
     50  CB        10.2320   -6.9390   26.1070 C.3    64  MET64       0.0413
     51  CG         9.4250   -6.4130   24.9330 C.3    64  MET64       0.0598
     52  SD         8.9410   -4.7000   25.2040 S.3    64  MET64      -0.1393
     53  CE         7.3550   -4.9200   26.0240 C.3    64  MET64       0.0692
     54  N         15.0930   -9.4520   25.7670 N.3    67  PHE67      -0.1241
     55  CA        15.8170   -8.4790   24.9540 C.3    67  PHE67       0.1605
     56  C         16.6720   -7.5160   25.7560 C.2    67  PHE67       0.2264
     57  O         16.2600   -7.0050   26.7940 O.2    67  PHE67      -0.2867
     58  CB        14.8470   -7.6740   24.0840 C.3    67  PHE67       0.0534
     59  CG        13.9950   -8.5190   23.1860 C.ar   67  PHE67      -0.0203
     60  CD1       14.4950   -9.6980   22.6340 C.ar   67  PHE67      -0.0042
     61  CD2       12.6950   -8.1320   22.8810 C.ar   67  PHE67      -0.0042
     62  CE1       13.7110  -10.4810   21.7890 C.ar   67  PHE67      -0.0003
     63  CE2       11.9000   -8.9080   22.0350 C.ar   67  PHE67      -0.0003
     64  CZ        12.4110  -10.0870   21.4880 C.ar   67  PHE67      -0.0000
     65  N         17.2600   -1.2700   20.7300 N.3    72  VAL72      -0.1231
     66  CA        15.8880   -1.7440   20.8460 C.3    72  VAL72       0.1692
     67  C         15.3710   -1.1420   22.1450 C.2    72  VAL72       0.2591
     68  O         16.0420   -1.2310   23.1750 O.2    72  VAL72      -0.2718
     69  CB        15.8000   -3.2860   20.9350 C.3    72  VAL72       0.0266
     70  CG1       14.3420   -3.7200   21.0310 C.3    72  VAL72       0.0020
     71  CG2       16.4450   -3.9180   19.7190 C.3    72  VAL72       0.0020
     72  N         14.2040   -0.5010   22.0910 N.am   73  VAL73      -0.1980
     73  CA        13.6040    0.1050   23.2790 C.3    73  VAL73       0.1595
     74  C         13.5230   -0.9830   24.3540 C.2    73  VAL73       0.2287
     75  O         12.9010   -2.0260   24.1480 O.2    73  VAL73      -0.2864
     76  CB        12.1940    0.6600   22.9590 C.3    73  VAL73       0.0276
     77  CG1       11.5630    1.2670   24.2100 C.3    73  VAL73       0.0022
     78  CG2       12.2950    1.7030   21.8610 C.3    73  VAL73       0.0022
     79  N          8.8610    1.0140   30.4410 N.3    89  MET89      -0.1230
     80  CA         9.9010    0.9110   29.4270 C.3    89  MET89       0.1702
     81  C         10.6930    2.1980   29.2870 C.2    89  MET89       0.2592
     82  O         10.2540    3.2710   29.7070 O.2    89  MET89      -0.2718
     83  CB         9.2820    0.5930   28.0680 C.3    89  MET89       0.0401
     84  CG         8.4020   -0.6320   28.0380 C.3    89  MET89       0.0596
     85  SD         7.3450   -0.5630   26.5920 S.3    89  MET89      -0.1393
     86  CE         6.0060    0.4700   27.2090 C.3    89  MET89       0.0692
     87  N         11.8670    2.0730   28.6820 N.am   90  GLU90      -0.1966
     88  CA        12.7290    3.2100   28.4190 C.3    90  GLU90       0.1733
     89  C         11.8870    4.2060   27.6230 C.2    90  GLU90       0.2616
     90  O         11.1510    3.8200   26.7160 O.2    90  GLU90      -0.2715
     91  CB        13.9220    2.7430   27.5870 C.3    90  GLU90       0.0429
     92  CG        14.7470    3.8440   26.9510 C.3    90  GLU90       0.1163
     93  CD        15.7200    3.2980   25.9190 C.2    90  GLU90       0.3649
     94  OE1       16.4900    4.0990   25.3440 O.co2  90  GLU90      -0.2457
     95  OE2       15.7130    2.0690   25.6810 O.co2  90  GLU90      -0.2457
     96  N         11.9860    5.4830   27.9640 N.am   91  LEU91      -0.1963
     97  CA        11.2220    6.5130   27.2720 C.3    91  LEU91       0.1728
     98  C         12.0850    7.1530   26.1820 C.2    91  LEU91       0.2616
     99  O         13.2400    7.5070   26.4220 O.2    91  LEU91      -0.2715
    100  CB        10.7480    7.5670   28.2860 C.3    91  LEU91       0.0311
    101  CG         9.8000    8.7180   27.9110 C.3    91  LEU91       0.0022
    102  CD1       10.5620    9.8030   27.1790 C.3    91  LEU91       0.0001
    103  CD2        8.6400    8.2010   27.0800 C.3    91  LEU91       0.0001
    104  N         11.5290    7.2730   24.9790 N.am   92  MET92      -0.1977
    105  CA        12.2420    7.8750   23.8570 C.3    92  MET92       0.1605
    106  C         11.6980    9.2840   23.7090 C.2    92  MET92       0.2287
    107  O         10.6840    9.5120   23.0540 O.2    92  MET92      -0.2864
    108  CB        12.0020    7.0580   22.5910 C.3    92  MET92       0.0413
    109  CG        12.4060    5.5920   22.7420 C.3    92  MET92       0.0598
    110  SD        14.1400    5.3800   23.2080 S.3    92  MET92      -0.1393
    111  CE        14.9620    5.6300   21.6330 C.3    92  MET92       0.0692
    112  N         10.2430   10.9050   20.4230 N.3    95  GLY95      -0.1210
    113  CA         9.1550   10.2370   19.7310 C.3    95  GLY95       0.1956
    114  C          9.5550    9.3050   18.6050 C.2    95  GLY95       0.2611
    115  O         10.7220    8.9530   18.4780 O.2    95  GLY95      -0.2717
    116  N          8.5800    8.9060   17.7890 N.am   96  ASP96      -0.1973
    117  CA         8.8430    7.9990   16.6760 C.3    96  ASP96       0.1709
    118  C          9.5550    8.7030   15.5210 C.2    96  ASP96       0.2293
    119  O          9.4160    9.9110   15.3330 O.2    96  ASP96      -0.2864
    120  CB         7.5380    7.3690   16.1840 C.3    96  ASP96       0.1436
    121  CG         6.6450    8.3560   15.4950 C.2    96  ASP96       0.3671
    122  OD1        5.9230    9.0980   16.1930 O.co2  96  ASP96      -0.2456
    123  OD2        6.6690    8.3990   14.2460 O.co2  96  ASP96      -0.2456
    124  N         17.2850   -8.4850   16.9340 N.3   136  LEU136     -0.1245
    125  CA        15.9680   -9.1140   16.9950 C.3   136  LEU136      0.1561
    126  C         15.8990  -10.3880   16.1690 C.2   136  LEU136      0.2260
    127  O         15.4170  -11.4240   16.6480 O.2   136  LEU136     -0.2867
    128  CB        14.8910   -8.1390   16.5190 C.3   136  LEU136      0.0270
    129  CG        14.6080   -6.9960   17.4880 C.3   136  LEU136      0.0019
    130  CD1       13.7710   -5.9250   16.8050 C.3   136  LEU136      0.0001
    131  CD2       13.9010   -7.5600   18.7190 C.3   136  LEU136      0.0001
    132  N         13.2570  -13.4080   16.2390 N.3   141  PHE141     -0.1241
    133  CA        12.1000  -12.5210   16.2880 C.3   141  PHE141      0.1605
    134  C         11.9540  -11.7220   14.9890 C.2   141  PHE141      0.2264
    135  O         12.8580  -10.9900   14.5870 O.2   141  PHE141     -0.2867
    136  CB        12.2390  -11.5730   17.4890 C.3   141  PHE141      0.0534
    137  CG        11.1220  -10.5690   17.6200 C.ar  141  PHE141     -0.0203
    138  CD1       11.0860   -9.4260   16.8170 C.ar  141  PHE141     -0.0042
    139  CD2       10.1070  -10.7640   18.5500 C.ar  141  PHE141     -0.0042
    140  CE1       10.0510   -8.4880   16.9400 C.ar  141  PHE141     -0.0003
    141  CE2        9.0670   -9.8330   18.6840 C.ar  141  PHE141     -0.0003
    142  CZ         9.0420   -8.6910   17.8730 C.ar  141  PHE141     -0.0000
    143  N          9.9670   -8.7880   13.0880 N.3   143  HIS143     -0.1241
    144  CA         9.1760   -7.6200   13.4690 C.3   143  HIS143      0.1621
    145  C          7.7860   -7.5700   12.8240 C.2   143  HIS143      0.2264
    146  O          6.7810   -7.4360   13.5230 O.2   143  HIS143     -0.2867
    147  CB         9.9610   -6.3280   13.1680 C.3   143  HIS143      0.0745
    148  CG         9.4270   -5.1240   13.8760 C.ar  143  HIS143      0.0817
    149  ND1        8.2250   -4.5350   13.5440 N.ar  143  HIS143     -0.2268
    150  CD2        9.8980   -4.4400   14.9460 C.ar  143  HIS143      0.1154
    151  CE1        7.9760   -3.5420   14.3810 C.ar  143  HIS143      0.1986
    152  NE2        8.9770   -3.4640   15.2420 N.ar  143  HIS143     -0.2212
    153  N         12.0860    4.5930   17.1510 N.3   152  MET152     -0.1245
    154  CA        12.0080    5.6880   18.1210 C.3   152  MET152      0.1570
    155  C         13.2940    6.5060   18.2190 C.2   152  MET152      0.2261
    156  O         14.3860    5.9780   18.0260 O.2   152  MET152     -0.2867
    157  CB        11.6590    5.1320   19.5030 C.3   152  MET152      0.0387
    158  CG        10.4250    4.2210   19.5450 C.3   152  MET152      0.0595
    159  SD         8.8960    4.9940   18.9810 S.3   152  MET152     -0.1393
    160  CE         8.9840    6.5110   19.9030 C.3   152  MET152      0.0692
    161  N         14.7290    0.3890   17.7670 N.3   161  ILE161     -0.1231
    162  CA        13.5910   -0.3620   17.2660 C.3   161  ILE161      0.1692
    163  C         12.5260   -0.5160   18.3440 C.2   161  ILE161      0.2593
    164  O         12.8030   -0.9940   19.4480 O.2   161  ILE161     -0.2718
    165  CB        13.9910   -1.7780   16.8090 C.3   161  ILE161      0.0266
    166  CG1       15.0810   -1.6990   15.7340 C.3   161  ILE161      0.0019
    167  CG2       12.7560   -2.5150   16.3020 C.3   161  ILE161      0.0020
    168  CD1       14.6530   -1.0220   14.4340 C.3   161  ILE161      0.0001
    169  N         11.3080   -0.1110   18.0090 N.am  162  GLY162     -0.1942
    170  CA        10.2020   -0.2380   18.9330 C.3   162  GLY162      0.2014
    171  C          8.9510   -0.6460   18.1810 C.2   162  GLY162      0.2639
    172  O          8.9930   -1.4030   17.2070 O.2   162  GLY162     -0.2714
    173  N          7.8260   -0.1340   18.6480 N.am  163  ASP163     -0.1957
    174  CA         6.5400   -0.4000   18.0350 C.3   163  ASP163      0.1840
    175  C          5.5840    0.5530   18.7230 C.2   163  ASP163      0.2622
    176  O          5.1590    0.3120   19.8510 O.2   163  ASP163     -0.2715
    177  CB         6.1190   -1.8560   18.2510 C.3   163  ASP163      0.1450
    178  CG         4.8800   -2.2240   17.4540 C.2   163  ASP163      0.3671
    179  OD1        3.7610   -2.1620   18.0130 O.co2 163  ASP163     -0.2456
    180  OD2        5.0210   -2.5570   16.2560 O.co2 163  ASP163     -0.2456
    181  N          5.2840    1.6480   18.0300 N.am  164  PHE164     -0.1960
    182  CA         4.4120    2.7080   18.5280 C.3   164  PHE164      0.1771
    183  C          3.1560    2.1710   19.2040 C.2   164  PHE164      0.2620
    184  O          2.7860    2.6380   20.2830 O.2   164  PHE164     -0.2715
    185  CB         4.0420    3.6430   17.3760 C.3   164  PHE164      0.0574
    186  CG         3.4520    4.9560   17.8130 C.ar  164  PHE164     -0.0200
    187  CD1        2.1220    5.0430   18.2190 C.ar  164  PHE164     -0.0042
    188  CD2        4.2150    6.1210   17.7710 C.ar  164  PHE164     -0.0042
    189  CE1        1.5580    6.2770   18.5710 C.ar  164  PHE164     -0.0003
    190  CE2        3.6590    7.3600   18.1190 C.ar  164  PHE164     -0.0003
    191  CZ         2.3280    7.4350   18.5170 C.ar  164  PHE164     -0.0000
    192  N          2.5100    1.2030   18.5550 N.am  165  GLY165     -0.1940
    193  CA         1.3120    0.5700   19.0880 C.3   165  GLY165      0.2014
    194  C          0.2760    1.4060   19.8220 C.2   165  GLY165      0.2638
    195  O         -0.2930    0.9580   20.8220 O.2   165  GLY165     -0.2714
    196  N          0.0210    2.6150   19.3390 N.am  166  MET166     -0.1976
    197  CA        -0.9700    3.4780   19.9680 C.3   166  MET166      0.1605
    198  C         -1.8940    4.0650   18.9170 C.2   166  MET166      0.2287
    199  O         -1.5480    4.1010   17.7340 O.2   166  MET166     -0.2864
    200  CB        -0.2900    4.6020   20.7450 C.3   166  MET166      0.0413
    201  CG         0.4900    4.1210   21.9430 C.3   166  MET166      0.0598
    202  SD         1.1180    5.4920   22.9180 S.3   166  MET166     -0.1393
    203  CE         2.6330    5.8480   22.0520 C.3   166  MET166      0.0692
@<TRIPOS>BOND
     1   145   144    1
     2   145   146    2
     3   143   144    1
     4   147   144    1
     5   147   148    1
     6   149   148   ar
     7   149   151   ar
     8   148   150   ar
     9   123   121   ar
    10   151   152   ar
    11   168   166    1
    12   135   134    2
    13   150   152   ar
    14   134   133    1
    15   119   118    2
    16   121   120    1
    17   121   122   ar
    18   118   117    1
    19   166   165    1
    20   126   127    2
    21   126   125    1
    22   120   117    1
    23   132   133    1
    24   180   178   ar
    25   133   136    1
    26   167   165    1
    27   128   125    1
    28   128   129    1
    29   117   116    1
    30   130   129    1
    31   165   162    1
    32   138   140   ar
    33   138   137   ar
    34   124   125    1
    35   140   142   ar
    36   153   154    1
    37   172   171    2
    38   162   161    1
    39   162   163    1
    40   185   186    1
    41   185   182    1
    42   178   179   ar
    43   178   177    1
    44   129   131    1
    45   136   137    1
    46   137   139   ar
    47   199   198    2
    48   188   186   ar
    49   188   190   ar
    50   116   114   am
    51   186   187   ar
    52   142   141   ar
    53   169   163   am
    54   169   170    1
    55   156   155    2
    56   181   182    1
    57   181   175   am
    58   174   177    1
    59   174   173    1
    60   174   175    1
    61   190   191   ar
    62   154   155    1
    63   154   157    1
    64   171   173   am
    65   171   170    1
    66   187   189   ar
    67   163   164    2
    68   115   114    2
    69   191   189   ar
    70   182   183    1
    71   139   141   ar
    72   192   193    1
    73   192   183   am
    74   114   113    1
    75   175   176    2
    76   198   197    1
    77   159   158    1
    78   159   160    1
    79   193   194    1
    80   183   184    2
    81   196   194   am
    82   196   197    1
    83   157   158    1
    84    71    69    1
    85   113   112    1
    86   194   195    2
    87   197   200    1
    88    65    66    1
    89   200   201    1
    90    66    69    1
    91    66    67    1
    92    69    70    1
    93    37    36   ar
    94    64    62   ar
    95    64    63   ar
    96    38    36   ar
    97   111   110    1
    98    62    60   ar
    99    36    35    1
   100    78    76    1
   101   201   202    1
   102    63    61   ar
   103   203   202    1
   104    72    67   am
   105    72    73    1
   106    67    68    2
   107   108   109    1
   108   108   105    1
   109    60    59   ar
   110   109   110    1
   111    44    43    1
   112     4     3    2
   113    35    34    1
   114    61    59   ar
   115    76    73    1
   116    76    77    1
   117   107   106    2
   118    59    58    1
   119    73    74    1
   120   106   105    1
   121   105   104    1
   122     3     2    1
   123    45    43    1
   124    43    40    1
   125    34    31    1
   126    58    55    1
   127    75    74    2
   128    29    28    1
   129    51    52    1
   130    51    50    1
   131    55    56    1
   132    55    54    1
   133    31    32    1
   134    31    30    1
   135     2     5    1
   136     2     1    1
   137   104    98   am
   138    42    41    2
   139    28    27    1
   140     5     6    1
   141    33    32    2
   142    52    53    1
   143    40    41    1
   144    40    39    1
   145     8     6    1
   146    41    46   am
   147    94    93   ar
   148    15    13    1
   149    95    93   ar
   150    56    57    2
   151    46    47    1
   152    47    50    1
   153    47    48    1
   154    93    92    1
   155     6     7    1
   156    13    14    1
   157    13    10    1
   158    98    99    2
   159    98    97    1
   160    27    26    1
   161    85    86    1
   162    85    84    1
   163    90    89    2
   164    92    91    1
   165    48    49    2
   166     9    10    1
   167   103   101    1
   168   102   101    1
   169    26    25    1
   170    12    11    2
   171    97    96    1
   172    97   100    1
   173    10    11    1
   174    91    88    1
   175    89    96   am
   176    89    88    1
   177    20    17    1
   178   101   100    1
   179    84    83    1
   180    83    80    1
   181    88    87    1
   182    25    22    1
   183    87    81   am
   184    17    16    1
   185    17    18    1
   186    81    80    1
   187    81    82    2
   188    22    21    1
   189    22    23    1
   190    80    79    1
   191    18    19    2
   192    23    24    2
