@<TRIPOS>MOLECULE
tmp/3o28A00.pdb
 106 102 0 0 0
SMALL
GASTEIGER

@<TRIPOS>ATOM
      1  N          8.8460   -0.3640   20.8550 N.3    90  ILE90      -0.1245
      2  CA         8.2580   -1.1780   21.9300 C.3    90  ILE90       0.1561
      3  C          8.6530   -2.6200   21.6720 C.2    90  ILE90       0.2260
      4  O          8.3640   -3.1530   20.6070 O.2    90  ILE90      -0.2867
      5  CB         6.6830   -1.0090   21.9920 C.3    90  ILE90       0.0252
      6  CG1        6.3040    0.4650   22.3030 C.3    90  ILE90       0.0019
      7  CG2        6.0420   -1.9790   23.0130 C.3    90  ILE90       0.0019
      8  CD1        4.8690    0.8510   21.9520 C.3    90  ILE90       0.0001
      9  N          0.7820    3.5550   24.8840 N.3   102  LYS102     -0.1231
     10  CA         0.2760    3.0450   23.6110 C.3   102  LYS102      0.1678
     11  C          1.1000    3.7160   22.4670 C.2   102  LYS102      0.2434
     12  O          1.5740    4.8390   22.6250 O.2   102  LYS102     -0.2733
     13  CB        -1.2600    3.3320   23.4810 C.3   102  LYS102      0.0284
     14  CG        -2.1670    2.6050   24.5560 C.3   102  LYS102      0.0035
     15  CD        -2.0590    1.1090   24.4270 C.3   102  LYS102      0.0206
     16  CE        -2.9250    0.3290   25.4300 C.3   102  LYS102      0.1093
     17  NZ        -2.6630    0.5080   26.8940 N.3   102  LYS102     -0.1314
     18  N          1.2490    3.0500   21.2920 N.am  103  PRO103     -0.2718
     19  CA         2.0750    3.5920   20.1970 C.3   103  PRO103      0.1535
     20  C          1.5720    4.9230   19.6240 C.2   103  PRO103      0.2599
     21  O          0.3560    5.1200   19.4760 O.2   103  PRO103     -0.2715
     22  CB         1.9420    2.5380   19.0840 C.3   103  PRO103      0.0310
     23  CG         1.4100    1.3260   19.7470 C.3   103  PRO103      0.0237
     24  CD         0.6310    1.7610   20.9440 C.3   103  PRO103      0.0939
     25  N          2.5080    5.8140   19.2890 N.am  104  PHE104     -0.1960
     26  CA         2.1790    7.0870   18.6590 C.3   104  PHE104      0.1771
     27  C          2.4030    7.0260   17.1310 C.2   104  PHE104      0.2619
     28  O          1.9260    7.9010   16.4110 O.2   104  PHE104     -0.2715
     29  CB         2.9310    8.2790   19.2970 C.3   104  PHE104      0.0574
     30  CG         4.4650    8.2350   19.1280 C.ar  104  PHE104     -0.0200
     31  CD1        5.0960    8.6670   17.9410 C.ar  104  PHE104     -0.0042
     32  CD2        5.2590    7.8140   20.1860 C.ar  104  PHE104     -0.0042
     33  CE1        6.4910    8.6400   17.8130 C.ar  104  PHE104     -0.0003
     34  CE2        6.6500    7.7860   20.0760 C.ar  104  PHE104     -0.0003
     35  CZ         7.2750    8.2140   18.8920 C.ar  104  PHE104     -0.0000
     36  N          3.0650    5.9680   16.6680 N.am  105  MET105     -0.1963
     37  CA         3.3820    5.7860   15.2320 C.3   105  MET105      0.1736
     38  C          3.6580    4.3200   15.0220 C.2   105  MET105      0.2617
     39  O          4.2950    3.6940   15.8590 O.2   105  MET105     -0.2715
     40  CB         4.6170    6.6150   14.8150 C.3   105  MET105      0.0427
     41  CG         4.8410    6.7220   13.2750 C.3   105  MET105      0.0599
     42  SD         6.2490    7.7560   12.7760 S.3   105  MET105     -0.1393
     43  CE         5.7980    9.3830   13.3310 C.3   105  MET105      0.0692
     44  N          3.1840    3.7630   13.9150 N.am  106  SER106     -0.1950
     45  CA         3.4360    2.3520   13.6290 C.3   106  SER106      0.1924
     46  C          4.5630    2.2520   12.5600 C.2   106  SER106      0.2314
     47  O          4.8270    3.2410   11.8350 O.2   106  SER106     -0.2863
     48  CB         2.1030    1.6520   13.2480 C.3   106  SER106      0.2116
     49  OG         1.5620    2.2330   12.0800 O.3   106  SER106     -0.2180
     50  N          5.6520   -5.9100   12.1030 N.3   215  SER215     -0.1202
     51  CA         4.7100   -4.8060   12.3520 C.3   215  SER215      0.2020
     52  C          4.7270   -4.4840   13.8430 C.2   215  SER215      0.2619
     53  O          4.5200   -5.3690   14.6930 O.2   215  SER215     -0.2717
     54  CB         3.2710   -5.1710   11.9590 C.3   215  SER215      0.2103
     55  OG         3.1400   -5.4850   10.5780 O.3   215  SER215     -0.2182
     56  N          4.9700   -3.2150   14.1450 N.am  216  LYS216     -0.1965
     57  CA         5.2320   -2.8190   15.5230 C.3   216  LYS216      0.1728
     58  C          5.0300   -1.3070   15.6220 C.2   216  LYS216      0.2616
     59  O          4.3850   -0.7240   14.7300 O.2   216  LYS216     -0.2715
     60  CB         6.5820   -3.3490   16.0230 C.3   216  LYS216      0.0311
     61  CG         7.8700   -2.7050   15.4220 C.3   216  LYS216      0.0038
     62  CD         9.0660   -3.6720   15.6970 C.3   216  LYS216      0.0206
     63  CE        10.2400   -3.4370   14.7130 C.3   216  LYS216      0.1093
     64  NZ        11.2650   -4.5090   14.7880 N.3   216  LYS216     -0.1314
     65  N          5.4440   -0.7130   16.7410 N.am  217  GLY217     -0.1955
     66  CA         5.2030    0.7120   16.9770 C.3   217  GLY217      0.1869
     67  C          6.2030    1.3700   17.9130 C.2   217  GLY217      0.2309
     68  O          6.9330    0.6980   18.6190 O.2   217  GLY217     -0.2863
     69  N         -1.2760   10.7580   24.5100 N.3   236  VAL236     -0.1231
     70  CA        -0.9960   10.1160   23.2090 C.3   236  VAL236      0.1692
     71  C         -2.3400    9.7220   22.5410 C.2   236  VAL236      0.2591
     72  O         -2.5500    9.9860   21.3370 O.2   236  VAL236     -0.2718
     73  CB        -0.0470    8.8760   23.3530 C.3   236  VAL236      0.0266
     74  CG1        0.0150    8.0330   22.0460 C.3   236  VAL236      0.0020
     75  CG2        1.3570    9.2640   23.7570 C.3   236  VAL236      0.0020
     76  N         -3.2440    9.0980   23.3000 N.am  237  LEU237     -0.1980
     77  CA        -4.5930    8.7320   22.7460 C.3   237  LEU237      0.1596
     78  C         -5.4410    9.9400   22.3150 C.2   237  LEU237      0.2287
     79  O         -6.0990    9.9000   21.2750 O.2   237  LEU237     -0.2864
     80  CB        -5.4000    7.8530   23.7330 C.3   237  LEU237      0.0297
     81  CG        -4.6430    6.5870   24.1410 C.3   237  LEU237      0.0022
     82  CD1       -5.4560    5.6770   25.0950 C.3   237  LEU237      0.0001
     83  CD2       -4.2820    5.8500   22.8830 C.3   237  LEU237      0.0001
     84  N         -3.8840   11.2930   19.0520 N.3   240  SER240     -0.1202
     85  CA        -4.2790   10.3680   18.0080 C.3   240  SER240      0.2020
     86  C         -5.6970   10.6820   17.5120 C.2   240  SER240      0.2618
     87  O         -5.9250   10.9690   16.3050 O.2   240  SER240     -0.2717
     88  CB        -4.1340    8.9090   18.4930 C.3   240  SER240      0.2103
     89  OG        -4.6460    8.0450   17.4820 O.3   240  SER240     -0.2182
     90  N         -6.6560   10.6830   18.4450 N.am  241  GLU241     -0.1979
     91  CA        -8.0550   10.8590   18.0820 C.3   241  GLU241      0.1602
     92  C         -8.3680   12.2410   17.5000 C.2   241  GLU241      0.2287
     93  O         -9.2790   12.3500   16.6790 O.2   241  GLU241     -0.2864
     94  CB        -8.9650   10.5170   19.2690 C.3   241  GLU241      0.0415
     95  CG        -8.8460    9.0250   19.6590 C.3   241  GLU241      0.1163
     96  CD        -9.6930    8.6530   20.8540 C.2   241  GLU241      0.3649
     97  OE1      -10.3700    9.5270   21.4060 O.co2 241  GLU241     -0.2457
     98  OE2       -9.7000    7.4840   21.2380 O.co2 241  GLU241     -0.2457
     99  N         -1.4150   13.5060   15.5660 N.3   245  LEU245     -0.1245
    100  CA        -0.3380   12.6680   15.0850 C.3   245  LEU245      0.1561
    101  C         -0.2840   12.6350   13.5440 C.2   245  LEU245      0.2260
    102  O          0.7850   12.7710   12.9550 O.2   245  LEU245     -0.2867
    103  CB        -0.3710   11.2430   15.7100 C.3   245  LEU245      0.0270
    104  CG        -0.5320   11.2270   17.2490 C.3   245  LEU245      0.0019
    105  CD1       -0.4430    9.8140   17.7990 C.3   245  LEU245      0.0001
    106  CD2        0.5480   12.0690   17.8960 C.3   245  LEU245      0.0001
@<TRIPOS>BOND
     1    55    54    1
     2    47    46    2
     3    54    51    1
     4    49    48    1
     5    50    51    1
     6    51    52    1
     7    46    45    1
     8    42    41    1
     9    42    43    1
    10   102   101    2
    11    48    45    1
    12    41    40    1
    13   101   100    1
    14    45    44    1
    15    52    56   am
    16    52    53    2
    17    44    38   am
    18    56    57    1
    19    63    64    1
    20    63    62    1
    21    59    58    2
    22    40    37    1
    23    38    37    1
    24    38    39    2
    25   100    99    1
    26   100   103    1
    27    37    36    1
    28    61    62    1
    29    61    60    1
    30    57    58    1
    31    57    60    1
    32    58    65   am
    33   103   104    1
    34    87    86    2
    35    28    27    2
    36    36    27   am
    37    93    92    2
    38    65    66    1
    39    66    67    1
    40    27    26    1
    41   104   105    1
    42   104   106    1
    43    89    88    1
    44    92    91    1
    45    86    85    1
    46    86    90   am
    47    33    31   ar
    48    33    35   ar
    49    67    68    2
    50    31    30   ar
    51    85    88    1
    52    85    84    1
    53    91    90    1
    54    91    94    1
    55    26    25    1
    56    26    29    1
    57    35    34   ar
    58    22    23    1
    59    22    19    1
    60    30    29    1
    61    30    32   ar
    62    94    95    1
    63    25    20   am
    64    21    20    2
    65    20    19    1
    66    95    96    1
    67    23    24    1
    68    34    32   ar
    69    19    18    1
    70     4     3    2
    71    96    98   ar
    72    96    97   ar
    73     1     2    1
    74    24    18    1
    75    79    78    2
    76    18    11   am
    77    72    71    2
    78     3     2    1
    79     2     5    1
    80     8     6    1
    81     5     6    1
    82     5     7    1
    83    74    73    1
    84    78    77    1
    85    11    12    2
    86    11    10    1
    87    71    70    1
    88    71    76   am
    89    77    76    1
    90    77    80    1
    91    83    81    1
    92    70    73    1
    93    70    69    1
    94    73    75    1
    95    13    10    1
    96    13    14    1
    97    10     9    1
    98    80    81    1
    99    81    82    1
   100    15    14    1
   101    15    16    1
   102    16    17    1
