@<TRIPOS>MOLECULE
tmp/3o29A01.pdb
 135 130 0 0 0
SMALL
GASTEIGER

@<TRIPOS>ATOM
      1  N          9.5240   16.0220   14.3170 N.3    35  TYR35      -0.1241
      2  CA         8.3060   15.3410   14.7540 C.3    35  TYR35       0.1605
      3  C          8.2640   15.1480   16.2720 C.2    35  TYR35       0.2264
      4  O          7.2630   15.4580   16.9070 O.2    35  TYR35      -0.2867
      5  CB         8.2080   13.9660   14.0720 C.3    35  TYR35       0.0534
      6  CG         6.9610   13.2020   14.4290 C.ar   35  TYR35      -0.0201
      7  CD1        6.9160   12.4090   15.6000 C.ar   35  TYR35      -0.0009
      8  CD2        5.8260   13.2770   13.6230 C.ar   35  TYR35      -0.0009
      9  CE1        5.8080   11.7340   15.9600 C.ar   35  TYR35       0.0417
     10  CE2        4.6760   12.6050   13.9630 C.ar   35  TYR35       0.0417
     11  CZ         4.6960   11.8120   15.1510 C.ar   35  TYR35       0.1957
     12  OH         3.6150   11.1170   15.5260 O.3    35  TYR35      -0.2866
     13  N          8.6930   -0.3180   20.7610 N.3    92  ILE92      -0.1245
     14  CA         8.0940   -1.1690   21.8100 C.3    92  ILE92       0.1561
     15  C          8.5060   -2.6150   21.5590 C.2    92  ILE92       0.2260
     16  O          8.2180   -3.1660   20.4770 O.2    92  ILE92      -0.2867
     17  CB         6.5120   -1.0020   21.8780 C.3    92  ILE92       0.0252
     18  CG1        6.1190    0.4720   22.1180 C.3    92  ILE92       0.0019
     19  CG2        5.8850   -1.9150   22.9670 C.3    92  ILE92       0.0019
     20  CD1        4.6580    0.8500   21.8380 C.3    92  ILE92       0.0001
     21  N          0.7280    3.5580   24.7120 N.3   104  LYS104     -0.1231
     22  CA         0.2460    3.0380   23.4360 C.3   104  LYS104      0.1678
     23  C          1.0460    3.7270   22.3220 C.2   104  LYS104      0.2434
     24  O          1.4900    4.8880   22.5000 O.2   104  LYS104     -0.2733
     25  CB        -1.2730    3.2640   23.2560 C.3   104  LYS104      0.0284
     26  CG        -2.1940    2.5480   24.2910 C.3   104  LYS104      0.0035
     27  CD        -1.8020    1.1200   24.4540 C.3   104  LYS104      0.0206
     28  CE        -2.7830    0.3570   25.2960 C.3   104  LYS104      0.1093
     29  NZ        -2.6530    0.5390   26.7580 N.3   104  LYS104     -0.1314
     30  N          1.2030    3.0470   21.1530 N.am  105  PRO105     -0.2718
     31  CA         2.0460    3.6110   20.0790 C.3   105  PRO105      0.1535
     32  C          1.5450    4.9250   19.5350 C.2   105  PRO105      0.2599
     33  O          0.3350    5.1870   19.5000 O.2   105  PRO105     -0.2715
     34  CB         2.0060    2.5550   18.9640 C.3   105  PRO105      0.0310
     35  CG         1.3550    1.3500   19.5620 C.3   105  PRO105      0.0237
     36  CD         0.5680    1.7770   20.7700 C.3   105  PRO105      0.0939
     37  N          2.4810    5.7720   19.1380 N.am  106  PHE106     -0.1960
     38  CA         2.1180    7.0570   18.5630 C.3   106  PHE106      0.1771
     39  C          2.4380    7.0300   17.0590 C.2   106  PHE106      0.2619
     40  O          2.0400    7.9290   16.3020 O.2   106  PHE106     -0.2715
     41  CB         2.8470    8.2220   19.2540 C.3   106  PHE106      0.0574
     42  CG         4.3850    8.1970   19.1110 C.ar  106  PHE106     -0.0200
     43  CD1        5.0110    8.6440   17.9470 C.ar  106  PHE106     -0.0042
     44  CD2        5.1880    7.7670   20.1760 C.ar  106  PHE106     -0.0042
     45  CE1        6.4010    8.6460   17.8130 C.ar  106  PHE106     -0.0003
     46  CE2        6.5890    7.7910   20.0760 C.ar  106  PHE106     -0.0003
     47  CZ         7.2030    8.2390   18.8730 C.ar  106  PHE106     -0.0000
     48  N          3.2060    6.0290   16.6570 N.am  107  MET107     -0.1963
     49  CA         3.5000    5.8280   15.2400 C.3   107  MET107      0.1736
     50  C          3.7470    4.3450   14.9740 C.2   107  MET107      0.2617
     51  O          4.4060    3.6920   15.7840 O.2   107  MET107     -0.2715
     52  CB         4.7090    6.7000   14.8270 C.3   107  MET107      0.0427
     53  CG         4.9340    6.7740   13.3150 C.3   107  MET107      0.0599
     54  SD         6.3350    7.7960   12.8310 S.3   107  MET107     -0.1393
     55  CE         5.6790    9.4410   13.0470 C.3   107  MET107      0.0692
     56  N          3.2250    3.8150   13.8490 N.am  108  SER108     -0.1950
     57  CA         3.5200    2.4090   13.4620 C.3   108  SER108      0.1924
     58  C          4.6950    2.3320   12.5250 C.2   108  SER108      0.2314
     59  O          5.0230    3.3280   11.8510 O.2   108  SER108     -0.2863
     60  CB         2.3060    1.7140   12.8220 C.3   108  SER108      0.2116
     61  OG         1.8370    2.4390   11.7070 O.3   108  SER108     -0.2180
     62  N          5.5840   -5.8310   11.9590 N.3   217  SER217     -0.1202
     63  CA         4.6760   -4.6860   12.2130 C.3   217  SER217      0.2020
     64  C          4.6490   -4.3580   13.6750 C.2   217  SER217      0.2619
     65  O          4.3510   -5.2490   14.5300 O.2   217  SER217     -0.2717
     66  CB         3.2370   -5.0030   11.8270 C.3   217  SER217      0.2103
     67  OG         3.1670   -5.4550   10.5080 O.3   217  SER217     -0.2182
     68  N          4.8880   -3.0790   13.9760 N.am  218  LYS218     -0.1965
     69  CA         4.9690   -2.6900   15.3640 C.3   218  LYS218      0.1728
     70  C          4.8750   -1.1580   15.4770 C.2   218  LYS218      0.2616
     71  O          4.3210   -0.5020   14.5780 O.2   218  LYS218     -0.2715
     72  CB         6.2380   -3.2880   15.9970 C.3   218  LYS218      0.0311
     73  CG         7.5200   -2.7810   15.3200 C.3   218  LYS218      0.0038
     74  CD         8.7500   -3.6210   15.6340 C.3   218  LYS218      0.0206
     75  CE         9.8640   -3.2550   14.6160 C.3   218  LYS218      0.1093
     76  NZ        11.0610   -4.1170   14.7710 N.3   218  LYS218     -0.1314
     77  N          5.3430   -0.6110   16.5950 N.am  219  GLY219     -0.1955
     78  CA         5.2030    0.8250   16.8510 C.3   219  GLY219      0.1869
     79  C          6.2130    1.4360   17.8180 C.2   219  GLY219      0.2309
     80  O          6.9450    0.7160   18.4980 O.2   219  GLY219     -0.2863
     81  N         -1.2830   10.6960   24.3400 N.3   238  VAL238     -0.1231
     82  CA        -0.9980   10.0610   23.0220 C.3   238  VAL238      0.1692
     83  C         -2.3130    9.6510   22.3390 C.2   238  VAL238      0.2591
     84  O         -2.5030    9.9010   21.1320 O.2   238  VAL238     -0.2718
     85  CB        -0.1170    8.7960   23.1480 C.3   238  VAL238      0.0266
     86  CG1       -0.0860    8.0360   21.8490 C.3   238  VAL238      0.0020
     87  CG2        1.3170    9.1180   23.6120 C.3   238  VAL238      0.0020
     88  N         -3.2390    9.0770   23.1180 N.am  239  LEU239     -0.1980
     89  CA        -4.5550    8.6700   22.5770 C.3   239  LEU239      0.1596
     90  C         -5.4050    9.8380   22.1330 C.2   239  LEU239      0.2287
     91  O         -6.0790    9.7790   21.1100 O.2   239  LEU239     -0.2864
     92  CB        -5.3330    7.8250   23.5910 C.3   239  LEU239      0.0297
     93  CG        -4.6200    6.5050   23.9000 C.3   239  LEU239      0.0022
     94  CD1       -5.4260    5.6620   24.9110 C.3   239  LEU239      0.0001
     95  CD2       -4.3950    5.7680   22.5700 C.3   239  LEU239      0.0001
     96  N         -3.7640   11.2630   18.9920 N.3   242  SER242     -0.1202
     97  CA        -4.1520   10.3350   17.9420 C.3   242  SER242      0.2020
     98  C         -5.5410   10.6300   17.4310 C.2   242  SER242      0.2618
     99  O         -5.7690   10.7800   16.2180 O.2   242  SER242     -0.2717
    100  CB        -4.1250    8.8940   18.4230 C.3   242  SER242      0.2103
    101  OG        -4.7870    8.1260   17.4280 O.3   242  SER242     -0.2182
    102  N         -6.4820   10.6800   18.3620 N.am  243  GLU243     -0.1979
    103  CA        -7.8850   10.7840   18.0190 C.3   243  GLU243      0.1602
    104  C         -8.2180   12.1850   17.4370 C.2   243  GLU243      0.2287
    105  O         -9.2010   12.3300   16.6950 O.2   243  GLU243     -0.2864
    106  CB        -8.7650   10.4240   19.2400 C.3   243  GLU243      0.0415
    107  CG        -8.8670    8.9180   19.4600 C.3   243  GLU243      0.1163
    108  CD        -9.6010    8.5480   20.7270 C.2   243  GLU243      0.3649
    109  OE1      -10.2190    9.4000   21.3340 O.co2 243  GLU243     -0.2457
    110  OE2       -9.5760    7.3880   21.1100 O.co2 243  GLU243     -0.2457
    111  N         -1.4520   13.5080   15.4440 N.3   247  LEU247     -0.1231
    112  CA        -0.3690   12.6380   15.0320 C.3   247  LEU247      0.1693
    113  C         -0.2890   12.5400   13.5200 C.2   247  LEU247      0.2592
    114  O          0.7780   12.5260   12.9880 O.2   247  LEU247     -0.2718
    115  CB        -0.4180   11.2360   15.6900 C.3   247  LEU247      0.0284
    116  CG        -0.4850   11.1820   17.2340 C.3   247  LEU247      0.0019
    117  CD1       -0.4590    9.7490   17.7060 C.3   247  LEU247      0.0001
    118  CD2        0.6450   11.9330   17.8840 C.3   247  LEU247      0.0001
    119  N         -1.4280   12.4780   12.8380 N.am  248  ASP248     -0.1974
    120  CA        -1.4180   12.4570   11.3690 C.3   248  ASP248      0.1709
    121  C         -0.8780   13.7530   10.7750 C.2   248  ASP248      0.2293
    122  O         -0.0830   13.7110    9.8320 O.2   248  ASP248     -0.2864
    123  CB        -2.8060   12.1560   10.7790 C.3   248  ASP248      0.1436
    124  CG        -3.3400   10.7920   11.2100 C.2   248  ASP248      0.3671
    125  OD1       -2.6570    9.7950   11.0240 O.co2 248  ASP248     -0.2456
    126  OD2       -4.4380   10.7250   11.7610 O.co2 248  ASP248     -0.2456
    127  N          2.9010   13.8850   11.1380 N.3   251  LYS251     -0.1245
    128  CA         3.5430   12.9920   10.1780 C.3   251  LYS251      0.1561
    129  C          3.6050   13.5930    8.7690 C.2   251  LYS251      0.2260
    130  O          4.6610   13.6110    8.1430 O.2   251  LYS251     -0.2867
    131  CB         2.9590   11.5610   10.2150 C.3   251  LYS251      0.0271
    132  CG         3.5510   10.6880    9.1300 C.3   251  LYS251      0.0035
    133  CD         4.1070    9.3870    9.6070 C.3   251  LYS251      0.0206
    134  CE         4.6580    8.6200    8.4080 C.3   251  LYS251      0.1093
    135  NZ         4.5090    7.1730    8.6460 N.3   251  LYS251     -0.1314
@<TRIPOS>BOND
     1   130   129    2
     2   134   135    1
     3   134   133    1
     4   129   128    1
     5   132   133    1
     6   132   131    1
     7   122   121    2
     8   128   131    1
     9   128   127    1
    10    67    66    1
    11   121   120    1
    12   123   124    1
    13   123   120    1
    14   125   124   ar
    15   124   126   ar
    16   120   119    1
    17    61    60    1
    18    66    63    1
    19    59    58    2
    20    62    63    1
    21    63    64    1
    22    58    57    1
    23    60    57    1
    24    54    55    1
    25    54    53    1
    26   119   113   am
    27   114   113    2
    28    53    52    1
    29    57    56    1
    30   113   112    1
    31     8    10   ar
    32     8     6   ar
    33    64    68   am
    34    64    65    2
    35    56    50   am
    36    10    11   ar
    37    68    69    1
    38     5     6    1
    39     5     2    1
    40     1     2    1
    41     6     7   ar
    42    71    70    2
    43    75    76    1
    44    75    74    1
    45     2     3    1
    46    52    49    1
    47    50    49    1
    48    50    51    2
    49   112   111    1
    50   112   115    1
    51    11    12    1
    52    11     9   ar
    53    49    48    1
    54    73    74    1
    55    73    72    1
    56    69    70    1
    57    69    72    1
    58    70    77   am
    59     7     9   ar
    60   115   116    1
    61    99    98    2
    62     3     4    2
    63    40    39    2
    64    77    78    1
    65    48    39   am
    66   105   104    2
    67    78    79    1
    68    39    38    1
    69   116   117    1
    70   116   118    1
    71   101   100    1
    72    98    97    1
    73    98   102   am
    74   104   103    1
    75    45    43   ar
    76    45    47   ar
    77    79    80    2
    78    97   100    1
    79    97    96    1
    80    43    42   ar
    81   103   102    1
    82   103   106    1
    83    38    37    1
    84    38    41    1
    85    47    46   ar
    86    34    35    1
    87    34    31    1
    88    42    41    1
    89    42    44   ar
    90    37    32   am
    91   106   107    1
    92   107   108    1
    93    33    32    2
    94    32    31    1
    95    35    36    1
    96    46    44   ar
    97    31    30    1
    98    16    15    2
    99   108   110   ar
   100   108   109   ar
   101    13    14    1
   102    36    30    1
   103    91    90    2
   104    84    83    2
   105    30    23   am
   106    15    14    1
   107    14    17    1
   108    20    18    1
   109    86    85    1
   110    17    18    1
   111    17    19    1
   112    90    89    1
   113    23    24    2
   114    23    22    1
   115    83    82    1
   116    83    88   am
   117    95    93    1
   118    89    88    1
   119    89    92    1
   120    82    85    1
   121    82    81    1
   122    85    87    1
   123    25    22    1
   124    25    26    1
   125    22    21    1
   126    92    93    1
   127    93    94    1
   128    26    27    1
   129    27    28    1
   130    28    29    1
