@<TRIPOS>MOLECULE
tmp/3o2bA00.pdb
 170 166 0 0 0
SMALL
GASTEIGER

@<TRIPOS>ATOM
      1  N         25.6110   33.1350   22.6990 N.3    10  LEU10      -0.1231
      2  CA        24.2140   32.7490   22.6440 C.3    10  LEU10       0.1693
      3  C         23.4230   33.8070   23.3960 C.2    10  LEU10       0.2592
      4  O         23.8000   34.2000   24.4990 O.2    10  LEU10      -0.2718
      5  CB        24.0290   31.3840   23.2950 C.3    10  LEU10       0.0284
      6  CG        23.1720   30.3750   22.5410 C.3    10  LEU10       0.0019
      7  CD1       23.7570   30.1070   21.1630 C.3    10  LEU10       0.0001
      8  CD2       23.0580   29.0880   23.3440 C.3    10  LEU10       0.0001
      9  N         22.3430   34.2880   22.7930 N.am   11  VAL11      -0.1966
     10  CA        21.5110   35.2840   23.4450 C.3    11  VAL11       0.1727
     11  C         20.2310   34.6460   23.9700 C.2    11  VAL11       0.2616
     12  O         19.6610   33.7600   23.3450 O.2    11  VAL11      -0.2715
     13  CB        21.1690   36.4430   22.5020 C.3    11  VAL11       0.0290
     14  CG1       20.3970   37.5440   23.2630 C.3    11  VAL11       0.0023
     15  CG2       22.4530   36.9920   21.8770 C.3    11  VAL11       0.0023
     16  N         19.8050   35.0830   25.1460 N.am   12  ASN12      -0.1958
     17  CA        18.6000   34.5460   25.7460 C.3    12  ASN12       0.1819
     18  C         17.3450   35.0200   25.0280 C.2    12  ASN12       0.2621
     19  O         17.3120   36.1250   24.4900 O.2    12  ASN12      -0.2715
     20  CB        18.4830   34.9560   27.2050 C.3    12  ASN12       0.1195
     21  CG        17.3520   34.2350   27.9000 C.2    12  ASN12       0.2630
     22  OD1       17.2550   33.0220   27.8000 O.2    12  ASN12      -0.2716
     23  ND2       16.4810   34.9720   28.5830 N.am   12  ASN12      -0.0877
     24  N         16.3180   34.1770   25.0190 N.am   13  ASP13      -0.1957
     25  CA        14.9860   34.6230   24.6160 C.3    13  ASP13       0.1840
     26  C         13.9470   33.8260   25.4010 C.2    13  ASP13       0.2622
     27  O         14.2740   32.8050   26.0030 O.2    13  ASP13      -0.2715
     28  CB        14.7930   34.4590   23.1060 C.3    13  ASP13       0.1450
     29  CG        14.6740   33.0130   22.7000 C.2    13  ASP13       0.3671
     30  OD1       13.6650   32.3870   23.0590 O.co2  13  ASP13      -0.2456
     31  OD2       15.5850   32.4990   22.0220 O.co2  13  ASP13      -0.2456
     32  N         12.6980   34.2800   25.3960 N.am   14  ASP14      -0.1957
     33  CA        11.6760   33.6920   26.2670 C.3    14  ASP14       0.1840
     34  C         10.9380   32.5020   25.6810 C.2    14  ASP14       0.2622
     35  O         10.1000   31.9170   26.3580 O.2    14  ASP14      -0.2715
     36  CB        10.6400   34.7520   26.6400 C.3    14  ASP14       0.1450
     37  CG        11.2400   35.8830   27.4320 C.2    14  ASP14       0.3671
     38  OD1       12.2480   35.6340   28.1320 O.co2  14  ASP14      -0.2456
     39  OD2       10.7110   37.0150   27.3500 O.co2  14  ASP14      -0.2456
     40  N         11.2370   32.1330   24.4390 N.am   15  TYR15      -0.1960
     41  CA        10.4040   31.1500   23.7420 C.3    15  TYR15       0.1771
     42  C         11.1300   29.8890   23.2880 C.2    15  TYR15       0.2620
     43  O         10.5130   28.8380   23.1560 O.2    15  TYR15      -0.2715
     44  CB         9.6860   31.8390   22.5820 C.3    15  TYR15       0.0574
     45  CG         8.9690   33.0630   23.0850 C.ar   15  TYR15      -0.0198
     46  CD1        7.9070   32.9380   23.9720 C.ar   15  TYR15      -0.0009
     47  CD2        9.3900   34.3380   22.7390 C.ar   15  TYR15      -0.0009
     48  CE1        7.2620   34.0460   24.4710 C.ar   15  TYR15       0.0417
     49  CE2        8.7540   35.4540   23.2360 C.ar   15  TYR15       0.0417
     50  CZ         7.6890   35.3020   24.1010 C.ar   15  TYR15       0.1957
     51  OH         7.0440   36.4070   24.6010 O.3    15  TYR15      -0.2866
     52  N         12.4380   29.9690   23.0630 N.am   16  THR16      -0.1937
     53  CA        13.1910   28.7610   22.7580 C.3    16  THR16       0.2013
     54  C         13.2060   27.8360   23.9810 C.2    16  THR16       0.2484
     55  O         13.5410   28.2700   25.0790 O.2    16  THR16      -0.2729
     56  CB        14.6580   29.0670   22.3650 C.3    16  THR16       0.1807
     57  OG1       14.6930   30.0140   21.2910 O.3    16  THR16      -0.2208
     58  CG2       15.3640   27.7840   21.9430 C.3    16  THR16       0.0379
     59  N         12.8390   26.5570   23.7940 N.am   17  PRO17      -0.2715
     60  CA        12.8920   25.5820   24.8960 C.3    17  PRO17       0.1536
     61  C         14.3130   25.3190   25.3960 C.2    17  PRO17       0.2598
     62  O         15.2430   25.1900   24.6070 O.2    17  PRO17      -0.2715
     63  CB        12.3110   24.3040   24.2750 C.3    17  PRO17       0.0310
     64  CG        11.5650   24.7590   23.0420 C.3    17  PRO17       0.0237
     65  CD        12.2720   25.9820   22.5600 C.3    17  PRO17       0.0939
     66  N         14.4690   25.2470   26.7100 N.am   18  MET18      -0.1964
     67  CA        15.7490   24.9340   27.3210 C.3    18  MET18       0.1736
     68  C         16.3210   23.6360   26.7730 C.2    18  MET18       0.2616
     69  O         17.5260   23.5290   26.5520 O.2    18  MET18      -0.2715
     70  CB        15.5830   24.7990   28.8410 C.3    18  MET18       0.0427
     71  CG        15.3290   26.1140   29.5690 C.3    18  MET18       0.0599
     72  SD        15.0320   25.8170   31.3300 S.3    18  MET18      -0.1393
     73  CE        15.1180   27.4760   32.0030 C.3    18  MET18       0.0692
     74  N         15.4600   22.6430   26.5760 N.am   19  GLU19      -0.1977
     75  CA        15.8890   21.3620   26.0170 C.3    19  GLU19       0.1602
     76  C         16.5840   21.5800   24.6840 C.2    19  GLU19       0.2287
     77  O         17.6020   20.9530   24.3870 O.2    19  GLU19      -0.2864
     78  CB        14.6970   20.4340   25.7800 C.3    19  GLU19       0.0415
     79  CG        13.9950   19.9390   27.0300 C.3    19  GLU19       0.1163
     80  CD        12.7280   19.1550   26.7030 C.2    19  GLU19       0.3649
     81  OE1       12.3200   19.1410   25.5210 O.co2  19  GLU19      -0.2457
     82  OE2       12.1370   18.5540   27.6270 O.co2  19  GLU19      -0.2457
     83  N         18.0890   24.4100   23.4030 N.3    21  VAL21      -0.1231
     84  CA        19.3860   25.0630   23.5540 C.3    21  VAL21       0.1692
     85  C         20.4510   24.0600   24.0160 C.2    21  VAL21       0.2591
     86  O         21.5750   24.0530   23.5160 O.2    21  VAL21      -0.2718
     87  CB        19.3160   26.2140   24.5720 C.3    21  VAL21       0.0266
     88  CG1       20.7060   26.7980   24.8030 C.3    21  VAL21       0.0020
     89  CG2       18.3240   27.2900   24.1080 C.3    21  VAL21       0.0020
     90  N         20.1050   23.2140   24.9790 N.am   22  ILE22      -0.1980
     91  CA        21.0470   22.2060   25.4430 C.3    22  ILE22       0.1595
     92  C         21.5190   21.3750   24.2540 C.2    22  ILE22       0.2287
     93  O         22.7140   21.1280   24.0920 O.2    22  ILE22      -0.2864
     94  CB        20.4200   21.2990   26.5100 C.3    22  ILE22       0.0276
     95  CG1       20.1640   22.1020   27.7930 C.3    22  ILE22       0.0022
     96  CG2       21.3350   20.1130   26.7990 C.3    22  ILE22       0.0022
     97  CD1       19.4100   21.3290   28.8840 C.3    22  ILE22       0.0001
     98  N         26.2370   16.8850   28.2810 N.3    33  VAL33      -0.1231
     99  CA        24.9410   17.3770   28.7440 C.3    33  VAL33       0.1692
    100  C         25.0830   18.3120   29.9350 C.2    33  VAL33       0.2591
    101  O         24.4730   19.3720   29.9760 O.2    33  VAL33      -0.2718
    102  CB        24.0100   16.2360   29.1660 C.3    33  VAL33       0.0266
    103  CG1       22.6040   16.7720   29.3810 C.3    33  VAL33       0.0020
    104  CG2       24.0060   15.1390   28.1250 C.3    33  VAL33       0.0020
    105  N         25.8880   17.9040   30.9050 N.am   34  GLU34      -0.1979
    106  CA        26.0520   18.6570   32.1400 C.3    34  GLU34       0.1602
    107  C         26.5460   20.0880   31.9200 C.2    34  GLU34       0.2287
    108  O         25.9440   21.0380   32.4070 O.2    34  GLU34      -0.2864
    109  CB        27.0170   17.9130   33.0590 C.3    34  GLU34       0.0415
    110  CG        26.4700   16.5940   33.5940 C.3    34  GLU34       0.1163
    111  CD        25.0970   16.7390   34.2400 C.2    34  GLU34       0.3649
    112  OE1       24.8600   17.7430   34.9410 O.co2  34  GLU34      -0.2457
    113  OE2       24.2450   15.8480   34.0420 O.co2  34  GLU34      -0.2457
    114  N         24.0070   22.1570   29.9480 N.3    37  THR37      -0.1203
    115  CA        22.8770   22.6210   30.7410 C.3    37  THR37       0.1994
    116  C         23.2780   23.8390   31.5530 C.2    37  THR37       0.2617
    117  O         22.5250   24.7950   31.6580 O.2    37  THR37      -0.2717
    118  CB        22.3900   21.5480   31.7230 C.3    37  THR37       0.1784
    119  OG1       22.0380   20.3590   31.0060 O.3    37  THR37      -0.2211
    120  CG2       21.1710   22.0560   32.5000 C.3    37  THR37       0.0376
    121  N         24.4650   23.7990   32.1450 N.am   38  GLN38      -0.1979
    122  CA        24.9350   24.9350   32.9230 C.3    38  GLN38       0.1601
    123  C         25.0780   26.1650   32.0270 C.2    38  GLN38       0.2287
    124  O         24.7340   27.2840   32.4250 O.2    38  GLN38      -0.2864
    125  CB        26.2610   24.6190   33.6200 C.3    38  GLN38       0.0394
    126  CG        26.8400   25.8240   34.3640 C.3    38  GLN38       0.0908
    127  CD        28.0570   25.4990   35.2160 C.2    38  GLN38       0.2608
    128  OE1       28.4220   24.3360   35.4020 O.2    38  GLN38      -0.2717
    129  NE2       28.6910   26.5420   35.7480 N.am   38  GLN38      -0.0878
    130  N         23.5270   26.7630   29.1310 N.3    40  MET40      -0.1230
    131  CA        22.1800   27.2080   28.7870 C.3    40  MET40       0.1702
    132  C         21.6430   28.0820   29.9150 C.2    40  MET40       0.2592
    133  O         21.0640   29.1370   29.6690 O.2    40  MET40      -0.2718
    134  CB        21.2640   26.0010   28.5520 C.3    40  MET40       0.0401
    135  CG        19.8170   26.3560   28.2540 C.3    40  MET40       0.0596
    136  SD        18.8530   26.6020   29.7700 S.3    40  MET40      -0.1393
    137  CE        18.9490   24.9720   30.5210 C.3    40  MET40       0.0692
    138  N         21.8680   27.6630   31.1580 N.am   41  LEU41      -0.1980
    139  CA        21.3900   28.4340   32.3040 C.3    41  LEU41       0.1596
    140  C         22.1450   29.7510   32.4800 C.2    41  LEU41       0.2287
    141  O         21.5720   30.7260   32.9540 O.2    41  LEU41      -0.2864
    142  CB        21.4610   27.6060   33.5950 C.3    41  LEU41       0.0297
    143  CG        20.3670   26.5460   33.7240 C.3    41  LEU41       0.0022
    144  CD1       20.4690   25.8560   35.0740 C.3    41  LEU41       0.0001
    145  CD2       18.9840   27.1740   33.5420 C.3    41  LEU41       0.0001
    146  N         23.1670   31.5870   30.0600 N.3    43  VAL43      -0.1231
    147  CA        22.4700   32.4160   29.0810 C.3    43  VAL43       0.1692
    148  C         21.1160   32.8330   29.6340 C.2    43  VAL43       0.2592
    149  O         20.7760   34.0140   29.6700 O.2    43  VAL43      -0.2718
    150  CB        22.2530   31.6320   27.7600 C.3    43  VAL43       0.0266
    151  CG1       21.4840   32.4710   26.7470 C.3    43  VAL43       0.0020
    152  CG2       23.6050   31.1670   27.1970 C.3    43  VAL43       0.0020
    153  N         20.3470   31.8320   30.0610 N.am   44  HIS44      -0.1976
    154  CA        19.0040   32.0370   30.5850 C.3    44  HIS44       0.1656
    155  C         18.9870   33.0960   31.6860 C.2    44  HIS44       0.2291
    156  O         18.1290   33.9690   31.6880 O.2    44  HIS44      -0.2864
    157  CB        18.4760   30.7080   31.1270 C.3    44  HIS44       0.0771
    158  CG        17.1540   30.8080   31.8130 C.ar   44  HIS44       0.0820
    159  ND1       15.9750   31.0260   31.1380 N.ar   44  HIS44      -0.2267
    160  CD2       16.8170   30.6910   33.1250 C.ar   44  HIS44       0.1154
    161  CE1       14.9700   31.0510   31.9930 C.ar   44  HIS44       0.1986
    162  NE2       15.4570   30.8510   33.2080 N.ar   44  HIS44      -0.2212
    163  N         15.9410   31.2640   18.5630 N.3    77  LEU77      -0.1245
    164  CA        17.2580   31.2780   19.2010 C.3    77  LEU77       0.1561
    165  C         18.3140   31.9830   18.3580 C.2    77  LEU77       0.2260
    166  O         18.5610   31.6060   17.2040 O.2    77  LEU77      -0.2867
    167  CB        17.7340   29.8630   19.4840 C.3    77  LEU77       0.0270
    168  CG        19.1630   29.8100   20.0290 C.3    77  LEU77       0.0019
    169  CD1       19.2230   30.4260   21.4390 C.3    77  LEU77       0.0001
    170  CD2       19.6540   28.3830   20.0280 C.3    77  LEU77       0.0001
@<TRIPOS>BOND
     1   166   165    2
     2   165   164    1
     3   163   164    1
     4   164   167    1
     5   167   168    1
     6   170   168    1
     7   168   169    1
     8     7     6    1
     9    57    56    1
    10    15    13    1
    11    58    56    1
    12    31    29   ar
    13    56    53    1
    14    13    14    1
    15    13    10    1
    16     6     5    1
    17     6     8    1
    18    65    64    1
    19    65    59    1
    20    44    45    1
    21    44    41    1
    22     2     1    1
    23     2     5    1
    24     2     3    1
    25    29    30   ar
    26    29    28    1
    27    47    45   ar
    28    47    49   ar
    29    53    52    1
    30    53    54    1
    31     9     3   am
    32     9    10    1
    33    64    63    1
    34    52    42   am
    35    45    46   ar
    36    28    25    1
    37    43    42    2
    38    49    50   ar
    39    42    41    1
    40    12    11    2
    41     3     4    2
    42    83    84    1
    43    10    11    1
    44    86    85    2
    45    84    85    1
    46    84    87    1
    47    41    40    1
    48    59    54   am
    49    59    60    1
    50    11    16   am
    51    46    48   ar
    52    54    55    2
    53    85    90   am
    54    93    92    2
    55    50    48   ar
    56    50    51    1
    57    89    87    1
    58    92    91    1
    59    63    60    1
    60    77    76    2
    61    40    34   am
    62    19    18    2
    63    87    88    1
    64    62    61    2
    65    25    24    1
    66    25    26    1
    67    76    75    1
    68    60    61    1
    69    90    91    1
    70    24    18   am
    71    18    17    1
    72    16    17    1
    73    32    26   am
    74    32    33    1
    75    61    66   am
    76    26    27    2
    77    91    94    1
    78    81    80   ar
    79    34    33    1
    80    34    35    2
    81    17    20    1
    82    78    75    1
    83    78    79    1
    84    75    74    1
    85    33    36    1
    86    94    96    1
    87    94    95    1
    88    69    68    2
    89    74    68   am
    90    36    37    1
    91    80    79    1
    92    80    82   ar
    93    66    67    1
    94   151   150    1
    95    68    67    1
    96   152   150    1
    97    20    21    1
    98    67    70    1
    99    39    37   ar
   100    37    38   ar
   101   150   147    1
   102    95    97    1
   103    22    21    2
   104    21    23   am
   105   104   102    1
   106   135   134    1
   107   135   136    1
   108    98    99    1
   109   134   131    1
   110    99   102    1
   111    99   100    1
   112   131   130    1
   113   131   132    1
   114    70    71    1
   115   147   148    1
   116   147   146    1
   117   102   103    1
   118    71    72    1
   119   148   149    2
   120   148   153   am
   121   133   132    2
   122   136   137    1
   123   132   138   am
   124   100   101    2
   125   100   105   am
   126   114   115    1
   127   153   154    1
   128   154   157    1
   129   154   155    1
   130   115   116    1
   131   115   118    1
   132   105   106    1
   133   119   118    1
   134   157   158    1
   135   159   158   ar
   136   159   161   ar
   137   138   139    1
   138    72    73    1
   139   116   117    2
   140   116   121   am
   141   155   156    2
   142   118   120    1
   143   158   160   ar
   144   107   106    1
   145   107   108    2
   146   161   162   ar
   147   123   124    2
   148   123   122    1
   149   106   109    1
   150   121   122    1
   151   139   140    1
   152   139   142    1
   153   140   141    2
   154   122   125    1
   155   109   110    1
   156   160   162   ar
   157   145   143    1
   158   110   111    1
   159   142   143    1
   160   125   126    1
   161   143   144    1
   162   113   111   ar
   163   111   112   ar
   164   126   127    1
   165   127   128    2
   166   127   129   am
