@<TRIPOS>MOLECULE
tmp/3o2fA00.pdb
 171 156 0 0 0
SMALL
GASTEIGER

@<TRIPOS>ATOM
      1  N          6.7280   17.5860   12.3140 N.3    36  LEU36      -0.1245
      2  CA         5.6670   16.9580   11.5110 C.3    36  LEU36       0.1561
      3  C          4.4270   17.8170   11.4520 C.2    36  LEU36       0.2260
      4  O          3.8470   17.9730   10.3940 O.2    36  LEU36      -0.2867
      5  CB         5.3050   15.5480   11.9850 C.3    36  LEU36       0.0270
      6  CG         6.3560   14.4680   11.7810 C.3    36  LEU36       0.0019
      7  CD1        5.9940   13.1860   12.5330 C.3    36  LEU36       0.0001
      8  CD2        6.4330   14.1770   10.2980 C.3    36  LEU36       0.0001
      9  N          5.2210   21.0900    9.4350 N.3    39  ASN39      -0.1225
     10  CA         5.3740   20.8470    7.9880 C.3    39  ASN39       0.1785
     11  C          4.0280   20.5090    7.3450 C.2    39  ASN39       0.2597
     12  O          3.7460   20.8700    6.2000 O.2    39  ASN39      -0.2718
     13  CB         6.4610   19.8220    7.6490 C.3    39  ASN39       0.1169
     14  CG         7.8500   20.3180    8.0080 C.2    39  ASN39       0.2627
     15  OD1        8.2020   21.4670    7.7620 O.2    39  ASN39      -0.2716
     16  ND2        8.6440   19.4520    8.5870 N.am   39  ASN39      -0.0877
     17  N          3.2210   19.8180    8.1050 N.am   40  ALA40      -0.1979
     18  CA         1.8400   19.5550    7.7190 C.3    40  ALA40       0.1597
     19  C          1.0810   20.8740    7.5030 C.2    40  ALA40       0.2287
     20  O          0.4070   21.0260    6.4950 O.2    40  ALA40      -0.2864
     21  CB         1.1850   18.6670    8.7370 C.3    40  ALA40       0.0319
     22  N          2.4060   23.8270    6.8870 N.3    42  ASP42      -0.1225
     23  CA         2.9670   24.4640    5.7090 C.3    42  ASP42       0.1805
     24  C          2.4030   23.9110    4.4010 C.2    42  ASP42       0.2597
     25  O          2.1140   24.6820    3.4890 O.2    42  ASP42      -0.2718
     26  CB         4.5140   24.3770    5.7070 C.3    42  ASP42       0.1424
     27  CG         5.1610   25.2720    4.6490 C.2    42  ASP42       0.3668
     28  OD1        4.8040   26.4830    4.5120 O.co2  42  ASP42      -0.2456
     29  OD2        6.0610   24.7700    3.9470 O.co2  42  ASP42      -0.2456
     30  N          2.2920   22.5940    4.3050 N.am   43  ALA43      -0.1979
     31  CA         1.7380   21.9370    3.1190 C.3    43  ALA43       0.1597
     32  C          0.2920   22.3620    2.8890 C.2    43  ALA43       0.2287
     33  O         -0.0980   22.5780    1.7440 O.2    43  ALA43      -0.2864
     34  CB         1.8350   20.4200    3.2440 C.3    43  ALA43       0.0319
     35  N          0.2110   25.9260    1.6720 N.3    46  LYS46      -0.1245
     36  CA         0.6830   25.9360    0.2770 C.3    46  LYS46       0.1561
     37  C         -0.4690   25.6100   -0.6790 C.2    46  LYS46       0.2260
     38  O         -0.6920   26.3270   -1.6450 O.2    46  LYS46      -0.2867
     39  CB         1.8640   24.9840    0.0700 C.3    46  LYS46       0.0271
     40  CG         3.1740   25.5350    0.6630 C.3    46  LYS46       0.0035
     41  CD         4.4430   24.6530    0.3650 C.3    46  LYS46       0.0206
     42  CE         5.7470   25.4560    0.6300 C.3    46  LYS46       0.1093
     43  NZ         6.9290   24.7230    0.0240 N.3    46  LYS46      -0.1314
     44  N         -1.7910   14.7860    6.5390 N.3    81  ASP81      -0.1239
     45  CA        -2.2620   16.1020    6.1400 C.3    81  ASP81       0.1674
     46  C         -2.9170   16.0610    4.7910 C.2    81  ASP81       0.2266
     47  O         -2.7230   15.1110    4.0710 O.2    81  ASP81      -0.2867
     48  CB        -1.2330   17.1880    6.2430 C.3    81  ASP81       0.1410
     49  CG        -0.1130   17.0210    5.1880 C.2    81  ASP81       0.3668
     50  OD1       -0.4030   17.2830    3.9930 O.co2  81  ASP81      -0.2456
     51  OD2        1.0140   16.6240    5.5230 O.co2  81  ASP81      -0.2456
     52  N         -0.4370   20.1220    0.1440 N.3    84  VAL84      -0.1231
     53  CA        -0.0630   20.0870   -1.2760 C.3    84  VAL84       0.1692
     54  C          0.2940   18.6720   -1.7500 C.2    84  VAL84       0.2593
     55  O          0.1100   18.3520   -2.9400 O.2    84  VAL84      -0.2718
     56  CB         1.0080   21.1610   -1.5880 C.3    84  VAL84       0.0266
     57  CG1        2.3040   20.8650   -0.8260 C.3    84  VAL84       0.0020
     58  CG2        1.2510   21.3630   -3.1100 C.3    84  VAL84       0.0020
     59  N          0.8240   17.8320   -0.8500 N.am   85  GLY85      -0.1942
     60  CA         1.3430   16.5350   -1.2590 C.3    85  GLY85       0.2014
     61  C          2.6750   16.6560   -2.0130 C.2    85  GLY85       0.2638
     62  O          3.2580   17.7340   -2.0500 O.2    85  GLY85      -0.2714
     63  N          3.1710   15.5320   -2.5320 N.am   86  MET86      -0.1976
     64  CA         4.4500   15.4270   -3.2740 C.3    86  MET86       0.1605
     65  C          4.3640   14.4710   -4.4460 C.2    86  MET86       0.2287
     66  O          3.8440   13.3530   -4.3220 O.2    86  MET86      -0.2864
     67  CB         5.5980   14.9270   -2.3680 C.3    86  MET86       0.0413
     68  CG         6.0330   15.9380   -1.2560 C.3    86  MET86       0.0598
     69  SD         7.1980   15.1850   -0.0570 S.3    86  MET86      -0.1393
     70  CE         6.1280   14.6460    1.0580 C.3    86  MET86       0.0692
     71  N          9.5720   14.5470   -6.4280 N.3    90  GLU90      -0.1245
     72  CA         9.8450   15.2220   -5.1490 C.3    90  GLU90       0.1567
     73  C         10.1900   14.2600   -4.0160 C.2    90  GLU90       0.2260
     74  O         10.9810   14.6110   -3.1430 O.2    90  GLU90      -0.2867
     75  CB         8.6250   16.0060   -4.6540 C.3    90  GLU90       0.0388
     76  CG         8.3160   17.3200   -5.3140 C.3    90  GLU90       0.1160
     77  CD         7.0010   17.9030   -4.7320 C.2    90  GLU90       0.3649
     78  OE1        7.0210   18.4550   -3.6040 O.co2  90  GLU90      -0.2457
     79  OE2        5.9650   17.8220   -5.4140 O.co2  90  GLU90      -0.2457
     80  N         14.0490   15.2760   -3.3080 N.3    94  ASN94      -0.1225
     81  CA        14.0350   16.1710   -2.1560 C.3    94  ASN94       0.1785
     82  C         14.1180   15.5020   -0.7960 C.2    94  ASN94       0.2597
     83  O         14.7840   16.0350    0.1000 O.2    94  ASN94      -0.2718
     84  CB        12.7960   17.0670   -2.1470 C.3    94  ASN94       0.1169
     85  CG        12.7860   18.0800   -3.2650 C.2    94  ASN94       0.2627
     86  OD1       13.7690   18.2300   -4.0500 O.2    94  ASN94      -0.2716
     87  ND2       11.7070   18.8300   -3.3270 N.am   94  ASN94      -0.0877
     88  N         13.4490   14.3610   -0.6040 N.am   95  LEU95      -0.1980
     89  CA        13.8390   13.5180    0.5310 C.3    95  LEU95       0.1596
     90  C         15.2780   12.9930    0.4260 C.2    95  LEU95       0.2287
     91  O         16.0190   12.8800    1.4350 O.2    95  LEU95      -0.2864
     92  CB        12.9210   12.3460    0.5800 C.3    95  LEU95       0.0297
     93  CG        11.5590   12.9320    0.9970 C.3    95  LEU95       0.0022
     94  CD1       10.5660   11.7960    1.2600 C.3    95  LEU95       0.0001
     95  CD2       11.7250   13.8270    2.2060 C.3    95  LEU95       0.0001
     96  N         17.2880   15.8950    1.4950 N.3    98  ILE98      -0.1245
     97  CA        17.1200   16.2300    2.9120 C.3    98  ILE98       0.1561
     98  C         17.8880   15.2260    3.8340 C.2    98  ILE98       0.2260
     99  O         18.5500   15.6090    4.8050 O.2    98  ILE98      -0.2867
    100  CB        15.6070   16.3160    3.3040 C.3    98  ILE98       0.0252
    101  CG1       14.9760   17.5680    2.6760 C.3    98  ILE98       0.0019
    102  CG2       15.4910   16.4100    4.7940 C.3    98  ILE98       0.0019
    103  CD1       13.4160   17.4630    2.3570 C.3    98  ILE98       0.0001
    104  N         15.4430   24.0510    1.2040 N.3   123  LEU123     -0.1245
    105  CA        14.8040   22.7420    1.4070 C.3   123  LEU123      0.1561
    106  C         15.2850   22.1360    2.7430 C.2   123  LEU123      0.2260
    107  O         14.5220   21.7090    3.5640 O.2   123  LEU123     -0.2867
    108  CB        15.2270   21.8320    0.2590 C.3   123  LEU123      0.0270
    109  CG        14.6270   20.4460    0.2070 C.3   123  LEU123      0.0019
    110  CD1       13.0970   20.5250   -0.1910 C.3   123  LEU123      0.0001
    111  CD2       15.4570   19.7010   -0.8270 C.3   123  LEU123      0.0001
    112  N         13.1890   21.5490    6.2430 N.3   127  PHE127     -0.1241
    113  CA        12.7530   20.1800    6.5500 C.3   127  PHE127      0.1605
    114  C         13.8020   19.2990    7.2520 C.2   127  PHE127      0.2264
    115  O         13.4580   18.2100    7.7750 O.2   127  PHE127     -0.2867
    116  CB        12.2750   19.4890    5.2460 C.3   127  PHE127      0.0534
    117  CG        11.1450   20.2260    4.5430 C.ar  127  PHE127     -0.0203
    118  CD1       11.3680   20.9170    3.3450 C.ar  127  PHE127     -0.0042
    119  CD2        9.8670   20.2000    5.0780 C.ar  127  PHE127     -0.0042
    120  CE1       10.3170   21.6030    2.6940 C.ar  127  PHE127     -0.0003
    121  CE2        8.7900   20.8610    4.4410 C.ar  127  PHE127     -0.0003
    122  CZ         9.0130   21.5740    3.2440 C.ar  127  PHE127     -0.0000
    123  N         13.2730   18.3320   10.9290 N.3   130  GLY130     -0.1210
    124  CA        12.1710   17.3580   11.0060 C.3   130  GLY130      0.1956
    125  C         12.5590   15.9510   10.5750 C.2   130  GLY130      0.2611
    126  O         12.2300   14.9530   11.2520 O.2   130  GLY130     -0.2717
    127  N         13.2130   15.8490    9.4300 N.am  131  PHE131     -0.1976
    128  CA        13.6540   14.5510    8.9220 C.3   131  PHE131      0.1639
    129  C         14.6240   13.9020    9.9020 C.2   131  PHE131      0.2290
    130  O         14.5280   12.7060   10.1790 O.2   131  PHE131     -0.2864
    131  CB        14.4590   14.7310    7.6040 C.3   131  PHE131      0.0560
    132  CG        14.5930   13.4700    6.7880 C.ar  131  PHE131     -0.0200
    133  CD1       13.5550   13.0570    5.9370 C.ar  131  PHE131     -0.0042
    134  CD2       15.7580   12.7190    6.8360 C.ar  131  PHE131     -0.0042
    135  CE1       13.6640   11.9090    5.1790 C.ar  131  PHE131     -0.0003
    136  CE2       15.8810   11.5600    6.0650 C.ar  131  PHE131     -0.0003
    137  CZ        14.8550   11.1650    5.2280 C.ar  131  PHE131     -0.0000
    138  N         12.9780   12.7620   13.1630 N.3   134  ALA134     -0.1245
    139  CA        12.1190   11.5600   12.9690 C.3   134  ALA134      0.1562
    140  C         12.9370   10.2770   13.0410 C.2   134  ALA134      0.2260
    141  O         12.4820    9.2880   13.5750 O.2   134  ALA134     -0.2867
    142  CB        11.3740   11.6060   11.6490 C.3   134  ALA134      0.0290
    143  N         10.7730    5.2890    8.1490 N.3   141  VAL141     -0.1245
    144  CA         9.8480    6.3670    7.8180 C.3   141  VAL141      0.1561
    145  C          9.2330    5.9900    6.4940 C.2   141  VAL141      0.2260
    146  O          9.9370    5.7370    5.5180 O.2   141  VAL141     -0.2867
    147  CB        10.5320    7.7620    7.7440 C.3   141  VAL141      0.0252
    148  CG1        9.5770    8.8270    7.1300 C.3   141  VAL141      0.0019
    149  CG2       10.9900    8.2170    9.1410 C.3   141  VAL141      0.0019
    150  N          6.4780    7.3680    3.6880 N.3   143  VAL143     -0.1245
    151  CA         5.8570    8.6030    3.2540 C.3   143  VAL143      0.1561
    152  C          4.9640    8.2600    2.0780 C.2   143  VAL143      0.2260
    153  O          5.4540    7.9540    0.9830 O.2   143  VAL143     -0.2867
    154  CB         6.9010    9.6980    2.8410 C.3   143  VAL143      0.0252
    155  CG1        6.1620   10.9460    2.2680 C.3   143  VAL143      0.0019
    156  CG2        7.8060   10.0970    4.0410 C.3   143  VAL143      0.0019
    157  N         -0.5510   14.0760    2.4000 N.3   177  THR177     -0.1218
    158  CA         0.5830   13.2170    2.7670 C.3   177  THR177      0.1862
    159  C          0.3560   12.5290    4.1020 C.2   177  THR177      0.2287
    160  O         -0.1190   13.1590    5.0910 O.2   177  THR177     -0.2866
    161  CB         1.8860   14.0540    2.8770 C.3   177  THR177      0.1770
    162  OG1        2.1100   14.7570    1.6360 O.3   177  THR177     -0.2211
    163  CG2        3.1220   13.1460    3.1800 C.3   177  THR177      0.0375
    164  N          2.6510   10.5560    6.9260 N.3   179  ILE179     -0.1242
    165  CA         3.9560   10.1500    7.3720 C.3   179  ILE179      0.1601
    166  C          3.7240    9.0870    8.4090 C.2   179  ILE179      0.2264
    167  O          3.0500    9.3430    9.4290 O.2   179  ILE179     -0.2867
    168  CB         4.7620   11.3010    8.0140 C.3   179  ILE179      0.0472
    169  CG1        4.7120   12.6100    7.2010 C.2   179  ILE179     -0.0246
    170  CG2        6.2270   10.9040    8.4110 C.3   179  ILE179      0.0066
    171  CD1        5.5400   12.7020    6.1210 C.2   179  ILE179     -0.0049
@<TRIPOS>BOND
     1    71    72    1
     2    79    77   ar
     3    76    77    1
     4    76    75    1
     5    72    75    1
     6    72    73    1
     7    77    78   ar
     8    65    66    2
     9    65    64    1
    10    86    85    2
    11    73    74    2
    12    87    85   am
    13    80    81    1
    14    64    63    1
    15    64    67    1
    16    85    84    1
    17    58    56    1
    18    55    54    2
    19    63    61   am
    20    67    68    1
    21    81    84    1
    22    81    82    1
    23    62    61    2
    24    61    60    1
    25    54    53    1
    26    54    59   am
    27    38    37    2
    28    56    53    1
    29    56    57    1
    30    53    52    1
    31    60    59    1
    32    68    69    1
    33   111   109    1
    34    82    88   am
    35    82    83    2
    36    37    36    1
    37    88    89    1
    38   110   109    1
    39    69    70    1
    40    43    42    1
    41    39    36    1
    42    39    40    1
    43   109   108    1
    44   108   105    1
    45    36    35    1
    46    41    42    1
    47    41    40    1
    48    90    89    1
    49    90    91    2
    50    89    92    1
    51    92    93    1
    52   153   152    2
    53    93    94    1
    54    93    95    1
    55   104   105    1
    56   105   106    1
    57    96    97    1
    58   162   161    1
    59    33    32    2
    60   152   151    1
    61   155   154    1
    62   103   101    1
    63   157   158    1
    64   101   100    1
    65   120   122   ar
    66   120   118   ar
    67   106   107    2
    68   158   161    1
    69   158   159    1
    70   154   151    1
    71   154   156    1
    72   161   163    1
    73    32    31    1
    74    97   100    1
    75    97    98    1
    76    31    34    1
    77    31    30    1
    78   122   121   ar
    79   151   150    1
    80   100   102    1
    81   118   117   ar
    82    25    24    2
    83    98    99    2
    84    29    27   ar
    85    50    49   ar
    86    47    46    2
    87   159   160    2
    88    30    24   am
    89    24    23    1
    90   121   119   ar
    91    28    27   ar
    92   117   119   ar
    93   117   116    1
    94    27    26    1
    95    46    45    1
    96   135   137   ar
    97   135   133   ar
    98    49    51   ar
    99    49    48    1
   100   137   136   ar
   101   116   113    1
   102   146   145    2
   103    26    23    1
   104    23    22    1
   105   133   132   ar
   106   136   134   ar
   107   171   169    2
   108    45    48    1
   109    45    44    1
   110    12    11    2
   111   112   113    1
   112   145   144    1
   113    20    19    2
   114   113   114    1
   115   132   134   ar
   116   132   131    1
   117   164   165    1
   118   148   147    1
   119   169   168    1
   120   114   115    2
   121    11    10    1
   122    11    17   am
   123   165   168    1
   124   165   166    1
   125    19    18    1
   126   131   128    1
   127    13    10    1
   128    13    14    1
   129    18    17    1
   130    18    21    1
   131   147   144    1
   132   147   149    1
   133    15    14    2
   134   144   143    1
   135    10     9    1
   136    14    16   am
   137   168   170    1
   138   166   167    2
   139   128   127    1
   140   128   129    1
   141   127   125   am
   142   129   130    2
   143     8     6    1
   144     4     3    2
   145   125   124    1
   146   125   126    2
   147   123   124    1
   148     3     2    1
   149     2     5    1
   150     2     1    1
   151   142   139    1
   152     6     5    1
   153     6     7    1
   154   139   140    1
   155   139   138    1
   156   140   141    2
