@<TRIPOS>MOLECULE
tmp/3o2gA01.pdb
 135 132 0 0 0
SMALL
GASTEIGER

@<TRIPOS>ATOM
      1  N         26.2710   33.3120   93.4160 N.3   178  TYR178     -0.1241
      2  CA        26.3710   34.1410   92.1900 C.3   178  TYR178      0.1605
      3  C         26.2080   35.6250   92.5010 C.2   178  TYR178      0.2264
      4  O         26.3430   36.4700   91.6090 O.2   178  TYR178     -0.2867
      5  CB        25.3840   33.6630   91.1380 C.3   178  TYR178      0.0534
      6  CG        25.8000   32.3620   90.5510 C.ar  178  TYR178     -0.0201
      7  CD1       26.8160   32.3080   89.6170 C.ar  178  TYR178     -0.0009
      8  CD2       25.2360   31.1470   90.9860 C.ar  178  TYR178     -0.0009
      9  CE1       27.2440   31.0930   89.0950 C.ar  178  TYR178      0.0417
     10  CE2       25.6870   29.9170   90.4870 C.ar  178  TYR178      0.0417
     11  CZ        26.6840   29.9130   89.5220 C.ar  178  TYR178      0.1957
     12  OH        27.1220   28.7260   88.9890 O.3   178  TYR178     -0.2866
     13  N         23.1560   39.3450   89.8570 N.3   182  TRP182     -0.1241
     14  CA        24.0680   38.7430   88.8970 C.3   182  TRP182      0.1605
     15  C         23.7300   39.1960   87.4690 C.2   182  TRP182      0.2264
     16  O         22.5650   39.5630   87.1670 O.2   182  TRP182     -0.2867
     17  CB        24.0690   37.2200   89.0140 C.3   182  TRP182      0.0550
     18  CG        22.7730   36.6370   89.4780 C.ar  182  TRP182      0.0003
     19  CD1       22.4470   36.3710   90.7730 C.ar  182  TRP182      0.0946
     20  CD2       21.6180   36.2600   88.6890 C.ar  182  TRP182      0.0152
     21  NE1       21.1660   35.8480   90.8390 N.ar  182  TRP182     -0.2442
     22  CE2       20.6390   35.7630   89.5950 C.ar  182  TRP182      0.0810
     23  CE3       21.3210   36.2720   87.3300 C.ar  182  TRP182      0.0012
     24  CZ2       19.3970   35.2970   89.1820 C.ar  182  TRP182      0.0191
     25  CZ3       20.0760   35.8090   86.9080 C.ar  182  TRP182      0.0001
     26  CH2       19.1180   35.3300   87.8420 C.ar  182  TRP182      0.0015
     27  N         23.5530   38.4070   83.5490 N.3   184  VAL184     -0.1245
     28  CA        23.4220   37.3750   82.5480 C.3   184  VAL184      0.1561
     29  C         23.9160   37.9690   81.2410 C.2   184  VAL184      0.2260
     30  O         23.2340   38.7630   80.6220 O.2   184  VAL184     -0.2867
     31  CB        21.9770   36.8640   82.4200 C.3   184  VAL184      0.0252
     32  CG1       21.9370   35.7160   81.3800 C.3   184  VAL184      0.0019
     33  CG2       21.4290   36.4310   83.7960 C.3   184  VAL184      0.0019
     34  N         29.1150   29.2550   84.3100 N.3   192  ASN192     -0.1240
     35  CA        27.7400   28.7760   84.2880 C.3   192  ASN192      0.1653
     36  C         27.2190   28.8780   82.8400 C.2   192  ASN192      0.2266
     37  O         27.5680   29.8240   82.1360 O.2   192  ASN192     -0.2867
     38  CB        26.8720   29.6200   85.2590 C.3   192  ASN192      0.1155
     39  CG        25.4880   28.9930   85.5370 C.2   192  ASN192      0.2627
     40  OD1       24.6070   29.0310   84.6880 O.2   192  ASN192     -0.2716
     41  ND2       25.2920   28.4390   86.7570 N.am  192  ASN192     -0.0877
     42  N         24.4600   29.7150   81.7560 N.3   194  ALA194     -0.1231
     43  CA        23.7280   30.9900   81.6910 C.3   194  ALA194      0.1694
     44  C         24.5810   32.1270   81.0780 C.2   194  ALA194      0.2592
     45  O         24.0690   32.9890   80.3530 O.2   194  ALA194     -0.2718
     46  CB        23.2560   31.4050   83.0960 C.3   194  ALA194      0.0304
     47  N         25.8760   32.1380   81.3930 N.am  195  TYR195     -0.1976
     48  CA        26.7700   33.2250   81.0210 C.3   195  TYR195      0.1639
     49  C         27.4670   32.9250   79.6870 C.2   195  TYR195      0.2290
     50  O         28.6450   33.1930   79.5290 O.2   195  TYR195     -0.2864
     51  CB        27.7780   33.4780   82.1250 C.3   195  TYR195      0.0560
     52  CG        27.1590   33.8170   83.4790 C.ar  195  TYR195     -0.0198
     53  CD1       25.9120   34.4630   83.5860 C.ar  195  TYR195     -0.0009
     54  CD2       27.8200   33.5060   84.6560 C.ar  195  TYR195     -0.0009
     55  CE1       25.3520   34.7600   84.8310 C.ar  195  TYR195      0.0417
     56  CE2       27.2460   33.7890   85.9080 C.ar  195  TYR195      0.0417
     57  CZ        26.0400   34.4510   85.9730 C.ar  195  TYR195      0.1957
     58  OH        25.4350   34.7920   87.1720 O.3   195  TYR195     -0.2866
     59  N         14.2220   25.1020   82.6070 N.3   203  HIS203     -0.1241
     60  CA        14.8620   24.8050   83.8740 C.3   203  HIS203      0.1621
     61  C         14.2270   25.6300   84.9830 C.2   203  HIS203      0.2264
     62  O         13.5850   26.6320   84.7160 O.2   203  HIS203     -0.2867
     63  CB        16.3680   25.0900   83.8580 C.3   203  HIS203      0.0745
     64  CG        16.7250   26.5260   83.6650 C.ar  203  HIS203      0.0817
     65  ND1       16.6160   27.1540   82.4480 N.ar  203  HIS203     -0.2268
     66  CD2       17.1740   27.4670   84.5360 C.ar  203  HIS203      0.1154
     67  CE1       17.0050   28.4160   82.5710 C.ar  203  HIS203      0.1986
     68  NE2       17.3350   28.6390   83.8300 N.ar  203  HIS203     -0.2212
     69  N         15.9560   27.5960   88.3970 N.3   205  ASP205     -0.1225
     70  CA        17.2360   28.0730   88.8300 C.3   205  ASP205      0.1805
     71  C         17.6010   27.4230   90.1430 C.2   205  ASP205      0.2598
     72  O         16.8110   27.3260   91.0810 O.2   205  ASP205     -0.2718
     73  CB        17.2500   29.6020   88.9870 C.3   205  ASP205      0.1424
     74  CG        17.6840   30.3130   87.7430 C.2   205  ASP205      0.3668
     75  OD1       17.3970   29.7850   86.6790 O.co2 205  ASP205     -0.2456
     76  OD2       18.3490   31.3730   87.8610 O.co2 205  ASP205     -0.2456
     77  N         18.8360   26.9590   90.1950 N.am  206  TYR206     -0.1963
     78  CA        19.5110   26.6020   91.4360 C.3   206  TYR206      0.1756
     79  C         18.9920   25.3420   92.1720 C.2   206  TYR206      0.2461
     80  O         18.9640   25.3040   93.3880 O.2   206  TYR206     -0.2730
     81  CB        19.6110   27.8420   92.3850 C.3   206  TYR206      0.0574
     82  CG        21.0270   28.2800   92.7480 C.ar  206  TYR206     -0.0198
     83  CD1       21.3260   29.6440   92.9060 C.ar  206  TYR206     -0.0009
     84  CD2       22.0640   27.3510   92.9650 C.ar  206  TYR206     -0.0009
     85  CE1       22.5540   30.0500   93.2690 C.ar  206  TYR206      0.0417
     86  CE2       23.3420   27.7800   93.3090 C.ar  206  TYR206      0.0417
     87  CZ        23.5690   29.1440   93.4630 C.ar  206  TYR206      0.1957
     88  OH        24.8220   29.6140   93.8530 O.3   206  TYR206     -0.2866
     89  N         18.6790   24.2560   91.4350 N.am  207  PRO207     -0.2716
     90  CA        18.4120   23.0060   92.1400 C.3   207  PRO207      0.1536
     91  C         19.6800   22.4590   92.8260 C.2   207  PRO207      0.2598
     92  O         19.5890   21.5780   93.6610 O.2   207  PRO207     -0.2715
     93  CB        17.9180   22.0760   91.0240 C.3   207  PRO207      0.0310
     94  CG        18.5620   22.6060   89.8110 C.3   207  PRO207      0.0237
     95  CD        18.5450   24.0990   89.9750 C.3   207  PRO207      0.0939
     96  N         20.8650   23.0070   92.5460 N.am  208  ALA208     -0.1978
     97  CA        22.0560   22.6320   93.3050 C.3   208  ALA208      0.1597
     98  C         21.9680   23.0240   94.7800 C.2   208  ALA208      0.2287
     99  O         22.7640   22.5790   95.6040 O.2   208  ALA208     -0.2864
    100  CB        23.3660   23.2000   92.6320 C.3   208  ALA208      0.0319
    101  N         27.3400   22.1390   91.5410 N.3   262  ASP262     -0.1239
    102  CA        27.8520   23.3950   90.9850 C.3   262  ASP262      0.1674
    103  C         29.2000   23.6860   91.6430 C.2   262  ASP262      0.2266
    104  O         29.2790   23.8650   92.8640 O.2   262  ASP262     -0.2867
    105  CB        26.8610   24.5300   91.2290 C.3   262  ASP262      0.1410
    106  CG        27.0800   25.7260   90.3440 C.2   262  ASP262      0.3668
    107  OD1       27.7430   25.6300   89.2920 O.co2 262  ASP262     -0.2456
    108  OD2       26.5500   26.7910   90.7120 O.co2 262  ASP262     -0.2456
    109  N         17.3760   21.5330   86.4940 N.3   293  ASN293     -0.1240
    110  CA        18.2030   22.2830   85.5670 C.3   293  ASN293      0.1653
    111  C         19.1370   21.2520   84.9120 C.2   293  ASN293      0.2266
    112  O         19.9300   20.6100   85.6200 O.2   293  ASN293     -0.2867
    113  CB        19.0080   23.3390   86.2900 C.3   293  ASN293      0.1155
    114  CG        19.8780   24.2010   85.3390 C.2   293  ASN293      0.2627
    115  OD1       20.0680   23.8690   84.1610 O.2   293  ASN293     -0.2716
    116  ND2       20.3850   25.3080   85.8510 N.am  293  ASN293     -0.0877
    117  N         23.0170   21.5720   85.4510 N.3   296  THR296     -0.1218
    118  CA        23.6300   21.3480   86.7750 C.3   296  THR296      0.1862
    119  C         23.2970   19.9830   87.3650 C.2   296  THR296      0.2287
    120  O         23.8170   19.5910   88.4180 O.2   296  THR296     -0.2866
    121  CB        23.2910   22.4660   87.7770 C.3   296  THR296      0.1770
    122  OG1       21.8930   22.4340   88.0600 O.3   296  THR296     -0.2211
    123  CG2       23.7090   23.8420   87.2520 C.3   296  THR296      0.0375
    124  N         17.2780   36.9090   93.3820 N.3   367  TYR367     -0.1241
    125  CA        16.3410   35.9780   93.9860 C.3   367  TYR367      0.1605
    126  C         15.7610   36.5440   95.2790 C.2   367  TYR367      0.2264
    127  O         16.3470   37.4160   95.9180 O.2   367  TYR367     -0.2867
    128  CB        17.0560   34.6620   94.3150 C.3   367  TYR367      0.0534
    129  CG        17.7310   33.9400   93.1430 C.ar  367  TYR367     -0.0201
    130  CD1       16.9950   33.4530   92.0600 C.ar  367  TYR367     -0.0009
    131  CD2       19.1010   33.6790   93.1630 C.ar  367  TYR367     -0.0009
    132  CE1       17.6110   32.7590   91.0120 C.ar  367  TYR367      0.0417
    133  CE2       19.7270   32.9800   92.1350 C.ar  367  TYR367      0.0417
    134  CZ        18.9660   32.5070   91.0530 C.ar  367  TYR367      0.1957
    135  OH        19.5760   31.8430   89.9940 O.3   367  TYR367     -0.2866
@<TRIPOS>BOND
     1    50    49    2
     2    49    48    1
     3    45    44    2
     4    30    29    2
     5    48    47    1
     6    48    51    1
     7    44    47   am
     8    44    43    1
     9    29    28    1
    10    32    31    1
    11    43    42    1
    12    43    46    1
    13    51    52    1
    14    37    36    2
    15    31    28    1
    16    31    33    1
    17    65    67   ar
    18    65    64   ar
    19    28    27    1
    20    67    68   ar
    21    59    60    1
    22    36    35    1
    23    52    53   ar
    24    52    54   ar
    25    53    55   ar
    26    64    63    1
    27    64    66   ar
    28    68    66   ar
    29    63    60    1
    30    60    61    1
    31   115   114    2
    32    35    34    1
    33    35    38    1
    34    54    56   ar
    35    40    39    2
    36    62    61    2
    37    55    57   ar
    38   111   110    1
    39   111   112    2
    40    38    39    1
    41   114   116   am
    42   114   113    1
    43   117   118    1
    44    39    41   am
    45   110   113    1
    46   110   109    1
    47    56    57   ar
    48    57    58    1
    49    75    74   ar
    50   118   119    1
    51   118   121    1
    52    25    23   ar
    53    25    26   ar
    54    16    15    2
    55   123   121    1
    56    23    20   ar
    57   119   120    2
    58    15    14    1
    59    74    76   ar
    60    74    73    1
    61   121   122    1
    62    26    24   ar
    63    69    70    1
    64    20    18   ar
    65    20    22   ar
    66    70    73    1
    67    70    71    1
    68    14    17    1
    69    14    13    1
    70    12    11    1
    71    17    18    1
    72     9    11   ar
    73     9     7   ar
    74    24    22   ar
    75   107   106   ar
    76    18    19   ar
    77    11    10   ar
    78    22    21   ar
    79     7     6   ar
    80    94    95    1
    81    94    93    1
    82    95    89    1
    83   135   134    1
    84    71    77   am
    85    71    72    2
    86    77    78    1
    87   106   108   ar
    88   106   105    1
    89    10     8   ar
    90     6     8   ar
    91     6     5    1
    92    19    21   ar
    93   102   105    1
    94   102   101    1
    95   102   103    1
    96   132   134   ar
    97   132   130   ar
    98    93    90    1
    99   134   133   ar
   100     5     2    1
   101    89    90    1
   102    89    79   am
   103    78    79    1
   104    78    81    1
   105     4     3    2
   106   103   104    2
   107   130   129   ar
   108   133   131   ar
   109    90    91    1
   110    79    80    2
   111     2     3    1
   112     2     1    1
   113    81    82    1
   114    96    91   am
   115    96    97    1
   116   100    97    1
   117    82    83   ar
   118    82    84   ar
   119    91    92    2
   120    83    85   ar
   121    84    86   ar
   122   129   131   ar
   123   129   128    1
   124    85    87   ar
   125    97    98    1
   126    86    87   ar
   127   124   125    1
   128    87    88    1
   129   125   128    1
   130   125   126    1
   131    98    99    2
   132   126   127    2
