@<TRIPOS>MOLECULE
tmp/3o2gA00.pdb
 139 131 0 0 0
SMALL
GASTEIGER

@<TRIPOS>ATOM
      1  N         23.1560   39.3450   89.8570 N.3   182  TRP182     -0.1241
      2  CA        24.0680   38.7430   88.8970 C.3   182  TRP182      0.1605
      3  C         23.7300   39.1960   87.4690 C.2   182  TRP182      0.2264
      4  O         22.5650   39.5630   87.1670 O.2   182  TRP182     -0.2867
      5  CB        24.0690   37.2200   89.0140 C.3   182  TRP182      0.0550
      6  CG        22.7730   36.6370   89.4780 C.ar  182  TRP182      0.0003
      7  CD1       22.4470   36.3710   90.7730 C.ar  182  TRP182      0.0946
      8  CD2       21.6180   36.2600   88.6890 C.ar  182  TRP182      0.0152
      9  NE1       21.1660   35.8480   90.8390 N.ar  182  TRP182     -0.2442
     10  CE2       20.6390   35.7630   89.5950 C.ar  182  TRP182      0.0810
     11  CE3       21.3210   36.2720   87.3300 C.ar  182  TRP182      0.0012
     12  CZ2       19.3970   35.2970   89.1820 C.ar  182  TRP182      0.0191
     13  CZ3       20.0760   35.8090   86.9080 C.ar  182  TRP182      0.0001
     14  CH2       19.1180   35.3300   87.8420 C.ar  182  TRP182      0.0015
     15  N         23.5530   38.4070   83.5490 N.3   184  VAL184     -0.1245
     16  CA        23.4220   37.3750   82.5480 C.3   184  VAL184      0.1561
     17  C         23.9160   37.9690   81.2410 C.2   184  VAL184      0.2260
     18  O         23.2340   38.7630   80.6220 O.2   184  VAL184     -0.2867
     19  CB        21.9770   36.8640   82.4200 C.3   184  VAL184      0.0252
     20  CG1       21.9370   35.7160   81.3800 C.3   184  VAL184      0.0019
     21  CG2       21.4290   36.4310   83.7960 C.3   184  VAL184      0.0019
     22  N         24.4600   29.7150   81.7560 N.3   194  ALA194     -0.1231
     23  CA        23.7280   30.9900   81.6910 C.3   194  ALA194      0.1694
     24  C         24.5810   32.1270   81.0780 C.2   194  ALA194      0.2592
     25  O         24.0690   32.9890   80.3530 O.2   194  ALA194     -0.2718
     26  CB        23.2560   31.4050   83.0960 C.3   194  ALA194      0.0304
     27  N         25.8760   32.1380   81.3930 N.am  195  TYR195     -0.1976
     28  CA        26.7700   33.2250   81.0210 C.3   195  TYR195      0.1639
     29  C         27.4670   32.9250   79.6870 C.2   195  TYR195      0.2290
     30  O         28.6450   33.1930   79.5290 O.2   195  TYR195     -0.2864
     31  CB        27.7780   33.4780   82.1250 C.3   195  TYR195      0.0560
     32  CG        27.1590   33.8170   83.4790 C.ar  195  TYR195     -0.0198
     33  CD1       25.9120   34.4630   83.5860 C.ar  195  TYR195     -0.0009
     34  CD2       27.8200   33.5060   84.6560 C.ar  195  TYR195     -0.0009
     35  CE1       25.3520   34.7600   84.8310 C.ar  195  TYR195      0.0417
     36  CE2       27.2460   33.7890   85.9080 C.ar  195  TYR195      0.0417
     37  CZ        26.0400   34.4510   85.9730 C.ar  195  TYR195      0.1957
     38  OH        25.4350   34.7920   87.1720 O.3   195  TYR195     -0.2866
     39  N         19.1180   27.9440   76.6020 N.3   200  LEU200     -0.1245
     40  CA        18.7840   27.3400   77.8730 C.3   200  LEU200      0.1561
     41  C         17.4200   26.7250   77.6570 C.2   200  LEU200      0.2260
     42  O         16.4430   27.4440   77.3040 O.2   200  LEU200     -0.2867
     43  CB        18.7520   28.3980   78.9670 C.3   200  LEU200      0.0270
     44  CG        20.0340   29.2320   79.1910 C.3   200  LEU200      0.0019
     45  CD1       19.8500   30.1680   80.3860 C.3   200  LEU200      0.0001
     46  CD2       21.2490   28.2720   79.3710 C.3   200  LEU200      0.0001
     47  N         14.2220   25.1020   82.6070 N.3   203  HIS203     -0.1241
     48  CA        14.8620   24.8050   83.8740 C.3   203  HIS203      0.1621
     49  C         14.2270   25.6300   84.9830 C.2   203  HIS203      0.2264
     50  O         13.5850   26.6320   84.7160 O.2   203  HIS203     -0.2867
     51  CB        16.3680   25.0900   83.8580 C.3   203  HIS203      0.0745
     52  CG        16.7250   26.5260   83.6650 C.ar  203  HIS203      0.0817
     53  ND1       16.6160   27.1540   82.4480 N.ar  203  HIS203     -0.2268
     54  CD2       17.1740   27.4670   84.5360 C.ar  203  HIS203      0.1154
     55  CE1       17.0050   28.4160   82.5710 C.ar  203  HIS203      0.1986
     56  NE2       17.3350   28.6390   83.8300 N.ar  203  HIS203     -0.2212
     57  N         15.9560   27.5960   88.3970 N.3   205  ASP205     -0.1239
     58  CA        17.2360   28.0730   88.8300 C.3   205  ASP205      0.1674
     59  C         17.6010   27.4230   90.1430 C.2   205  ASP205      0.2266
     60  O         16.8110   27.3260   91.0810 O.2   205  ASP205     -0.2867
     61  CB        17.2500   29.6020   88.9870 C.3   205  ASP205      0.1410
     62  CG        17.6840   30.3130   87.7430 C.2   205  ASP205      0.3668
     63  OD1       17.3970   29.7850   86.6790 O.co2 205  ASP205     -0.2456
     64  OD2       18.3490   31.3730   87.8610 O.co2 205  ASP205     -0.2456
     65  N         12.2470   34.5820   91.4460 N.3   216  GLN216     -0.1245
     66  CA        13.3120   35.1000   90.6140 C.3   216  GLN216      0.1566
     67  C         12.8810   36.4470   90.0050 C.2   216  GLN216      0.2260
     68  O         11.7390   36.6180   89.5760 O.2   216  GLN216     -0.2867
     69  CB        13.6480   34.0960   89.5060 C.3   216  GLN216      0.0367
     70  CG        14.8130   34.5300   88.6790 C.3   216  GLN216      0.0905
     71  CD        15.1690   33.5580   87.5830 C.2   216  GLN216      0.2608
     72  OE1       15.7140   33.9840   86.5780 O.2   216  GLN216     -0.2717
     73  NE2       14.9180   32.2450   87.7920 N.am  216  GLN216     -0.0878
     74  N         14.2010   39.1180   86.9760 N.3   218  LEU218     -0.1245
     75  CA        15.0940   39.2340   85.8100 C.3   218  LEU218      0.1561
     76  C         14.7520   40.4960   85.0410 C.2   218  LEU218      0.2260
     77  O         13.6370   40.6680   84.5470 O.2   218  LEU218     -0.2867
     78  CB        14.9820   38.0420   84.8710 C.3   218  LEU218      0.0270
     79  CG        15.7880   36.7470   85.0130 C.3   218  LEU218      0.0019
     80  CD1       15.4110   35.7940   83.8360 C.3   218  LEU218      0.0001
     81  CD2       17.2920   36.9220   85.0840 C.3   218  LEU218      0.0001
     82  N         12.5380   34.6710   75.3920 N.3   230  SER230     -0.1217
     83  CA        12.2530   33.9910   76.6470 C.3   230  SER230      0.1889
     84  C         11.1120   32.9890   76.4130 C.2   230  SER230      0.2288
     85  O         10.2690   33.1770   75.5450 O.2   230  SER230     -0.2866
     86  CB        11.8240   35.0190   77.6930 C.3   230  SER230      0.2089
     87  OG        12.8540   35.9370   78.0020 O.3   230  SER230     -0.2183
     88  N         11.9000   39.8280   75.9090 N.3   333  MET333     -0.1245
     89  CA        12.1220   40.9820   76.8040 C.3   333  MET333      0.1570
     90  C         12.7490   42.1400   76.0560 C.2   333  MET333      0.2261
     91  O         13.6270   41.9270   75.2070 O.2   333  MET333     -0.2867
     92  CB        13.0180   40.5970   77.9820 C.3   333  MET333      0.0387
     93  CG        12.4430   39.4710   78.8500 C.3   333  MET333      0.0595
     94  SD        13.2850   39.2630   80.4170 S.3   333  MET333     -0.1393
     95  CE        12.7320   40.7050   81.3050 C.3   333  MET333      0.0692
     96  N         11.6550   28.0180   82.9770 N.3   348  HIS348     -0.1226
     97  CA        11.9590   29.1180   82.0480 C.3   348  HIS348      0.1752
     98  C         13.1530   28.7430   81.1960 C.2   348  HIS348      0.2597
     99  O         13.9140   27.8040   81.5170 O.2   348  HIS348     -0.2718
    100  CB        12.1820   30.4380   82.7830 C.3   348  HIS348      0.0759
    101  CG        13.3340   30.4180   83.7220 C.ar  348  HIS348      0.0818
    102  ND1       13.3200   29.6920   84.8990 N.ar  348  HIS348     -0.2268
    103  CD2       14.5810   30.9460   83.6130 C.ar  348  HIS348      0.1154
    104  CE1       14.4980   29.8240   85.4960 C.ar  348  HIS348      0.1986
    105  NE2       15.2810   30.5710   84.7350 N.ar  348  HIS348     -0.2212
    106  N         13.2720   29.4310   80.0780 N.am  349  GLY349     -0.1942
    107  CA        14.3540   29.1530   79.1480 C.3   349  GLY349      0.2014
    108  C         14.6150   30.3450   78.2590 C.2   349  GLY349      0.2638
    109  O         13.8910   31.3740   78.2950 O.2   349  GLY349     -0.2714
    110  N         15.6480   30.2010   77.4370 N.am  350  ARG350     -0.1977
    111  CA        15.9520   31.2360   76.4870 C.3   350  ARG350      0.1597
    112  C         16.5520   30.6620   75.2120 C.2   350  ARG350      0.2287
    113  O         17.2520   29.6730   75.2490 O.2   350  ARG350     -0.2864
    114  CB        16.8710   32.2820   77.0770 C.3   350  ARG350      0.0334
    115  CG        18.2390   31.8440   77.3950 C.3   350  ARG350      0.0492
    116  CD        19.3090   32.8820   76.9290 C.3   350  ARG350      0.2205
    117  NE        20.5700   32.1760   76.9790 N.pl3 350  ARG350     -0.0865
    118  CZ        21.5430   32.2990   77.9010 C.cat 350  ARG350      0.5346
    119  NH1       21.5100   33.1800   78.8980 N.pl3 350  ARG350      0.1354
    120  NH2       22.6000   31.5140   77.7840 N.pl3 350  ARG350      0.1354
    121  N         23.7440   41.6960   74.8100 N.3   361  ARG361     -0.1245
    122  CA        22.6260   41.2180   75.6400 C.3   361  ARG361      0.1563
    123  C         23.0890   41.1350   77.0910 C.2   361  ARG361      0.2260
    124  O         24.1700   40.6160   77.3660 O.2   361  ARG361     -0.2867
    125  CB        22.1150   39.8370   75.1580 C.3   361  ARG361      0.0307
    126  CG        20.7850   39.4200   75.7710 C.3   361  ARG361      0.0489
    127  CD        20.4010   38.0400   75.2590 C.3   361  ARG361      0.2205
    128  NE        19.0740   37.5810   75.6700 N.pl3 361  ARG361     -0.0865
    129  CZ        18.7690   36.9460   76.8040 C.cat 361  ARG361      0.5346
    130  NH1       19.6670   36.7180   77.7530 N.pl3 361  ARG361      0.1354
    131  NH2       17.5130   36.5640   77.0060 N.pl3 361  ARG361      0.1354
    132  N         21.0760   40.8470   81.0410 N.3   363  LEU363     -0.1245
    133  CA        20.0490   40.8790   82.0410 C.3   363  LEU363      0.1561
    134  C         20.7020   40.9750   83.4430 C.2   363  LEU363      0.2260
    135  O         21.7870   40.4160   83.6680 O.2   363  LEU363     -0.2867
    136  CB        19.1750   39.6280   81.9560 C.3   363  LEU363      0.0270
    137  CG        18.8220   39.1020   80.5800 C.3   363  LEU363      0.0019
    138  CD1       17.9670   37.8040   80.7650 C.3   363  LEU363      0.0001
    139  CD2       18.1150   40.1600   79.7440 C.3   363  LEU363      0.0001
@<TRIPOS>BOND
     1   121   122    1
     2   125   122    1
     3   125   126    1
     4    91    90    2
     5   112   113    2
     6   112   111    1
     7   127   128    1
     8   127   126    1
     9    82    83    1
    10    85    84    2
    11   122   123    1
    12   128   129    2
    13    88    89    1
    14    90    89    1
    15    84    83    1
    16   111   114    1
    17   111   110    1
    18    39    40    1
    19    83    86    1
    20    89    92    1
    21   129   131    1
    22   129   130    1
    23   116   117    1
    24   116   115    1
    25   117   118    2
    26   114   115    1
    27   123   124    2
    28    42    41    2
    29   110   108   am
    30    41    40    1
    31    86    87    1
    32   120   118    1
    33    40    43    1
    34   118   119    1
    35    92    93    1
    36   108   109    2
    37   108   107    1
    38    93    94    1
    39    43    44    1
    40   107   106    1
    41    44    46    1
    42    44    45    1
    43    30    29    2
    44    29    28    1
    45   139   137    1
    46   106    98   am
    47    25    24    2
    48    94    95    1
    49   137   138    1
    50   137   136    1
    51    18    17    2
    52    28    27    1
    53    28    31    1
    54   132   133    1
    55    24    27   am
    56    24    23    1
    57    98    99    2
    58    98    97    1
    59    17    16    1
    60    20    19    1
    61    23    22    1
    62    23    26    1
    63   136   133    1
    64   133   134    1
    65    97   100    1
    66    97    96    1
    67    31    32    1
    68    19    16    1
    69    19    21    1
    70    53    55   ar
    71    53    52   ar
    72    16    15    1
    73    55    56   ar
    74    47    48    1
    75   100   101    1
    76   134   135    2
    77    32    33   ar
    78    32    34   ar
    79    33    35   ar
    80   103   101   ar
    81   103   105   ar
    82    52    51    1
    83    52    54   ar
    84   101   102   ar
    85    56    54   ar
    86    80    79    1
    87    51    48    1
    88    48    49    1
    89    77    76    2
    90    34    36   ar
    91    50    49    2
    92   105   104   ar
    93    35    37   ar
    94    78    79    1
    95    78    75    1
    96   102   104   ar
    97    79    81    1
    98    76    75    1
    99    75    74    1
   100    36    37   ar
   101    37    38    1
   102    72    71    2
   103    63    62   ar
   104    13    11   ar
   105    13    14   ar
   106     4     3    2
   107    11     8   ar
   108     3     2    1
   109    71    73   am
   110    71    70    1
   111    62    64   ar
   112    62    61    1
   113    14    12   ar
   114    57    58    1
   115    70    69    1
   116     8     6   ar
   117     8    10   ar
   118    58    61    1
   119    58    59    1
   120     2     5    1
   121     2     1    1
   122     5     6    1
   123    12    10   ar
   124     6     7   ar
   125    69    66    1
   126    68    67    2
   127    10     9   ar
   128    67    66    1
   129    59    60    2
   130    66    65    1
   131     7     9   ar
