@<TRIPOS>MOLECULE
tmp/3o2kA01.pdb
 176 172 0 0 0
SMALL
GASTEIGER

@<TRIPOS>ATOM
      1  N        -12.7560   24.5360    5.1120 N.3    91  GLY91      -0.1210
      2  CA       -14.1420   24.9320    4.8880 C.3    91  GLY91       0.1956
      3  C        -15.0280   23.7720    4.4660 C.2    91  GLY91       0.2612
      4  O        -16.1910   23.9710    4.1290 O.2    91  GLY91      -0.2717
      5  N        -14.4770   22.5620    4.4810 N.am   92  MET92      -0.1965
      6  CA       -15.2230   21.3640    4.1260 C.3    92  MET92       0.1736
      7  C        -16.0620   20.8260    5.2910 C.2    92  MET92       0.2616
      8  O        -17.1240   20.2420    5.0660 O.2    92  MET92      -0.2715
      9  CB       -14.2570   20.2830    3.6500 C.3    92  MET92       0.0427
     10  CG       -14.9330   19.1190    2.9620 C.3    92  MET92       0.0599
     11  SD       -13.7320   17.9470    2.3330 S.3    92  MET92      -0.1393
     12  CE       -12.9290   17.4470    3.8600 C.3    92  MET92       0.0692
     13  N        -15.5800   21.0050    6.5220 N.am   93  VAL93      -0.1963
     14  CA       -16.2630   20.4890    7.7100 C.3    93  VAL93       0.1727
     15  C        -16.2290   21.5090    8.8440 C.2    93  VAL93       0.2616
     16  O        -15.2020   22.1450    9.0830 O.2    93  VAL93      -0.2715
     17  CB       -15.6090   19.1840    8.2260 C.3    93  VAL93       0.0290
     18  CG1      -16.5690   18.4430    9.1490 C.3    93  VAL93       0.0023
     19  CG2      -15.1820   18.2880    7.0670 C.3    93  VAL93       0.0023
     20  N        -17.3410   21.6310    9.5650 N.am   94  LEU94      -0.1977
     21  CA       -17.4640   22.6080   10.6530 C.3    94  LEU94       0.1596
     22  C        -16.4860   22.3730   11.8160 C.2    94  LEU94       0.2287
     23  O        -16.2690   23.2690   12.6350 O.2    94  LEU94      -0.2864
     24  CB       -18.9080   22.6560   11.1690 C.3    94  LEU94       0.0297
     25  CG       -19.9100   23.3160   10.2130 C.3    94  LEU94       0.0022
     26  CD1      -21.3440   22.9830   10.6010 C.3    94  LEU94       0.0001
     27  CD2      -19.7060   24.8280   10.1640 C.3    94  LEU94       0.0001
     28  N        -13.3230   13.9960    5.3140 N.3   100  GLU100     -0.1245
     29  CA       -14.6990   13.6360    5.6380 C.3   100  GLU100      0.1567
     30  C        -15.1690   12.4880    4.7470 C.2   100  GLU100      0.2260
     31  O        -15.0930   12.5760    3.5080 O.2   100  GLU100     -0.2867
     32  CB       -15.6330   14.8320    5.4410 C.3   100  GLU100      0.0388
     33  CG       -17.0650   14.5860    5.9280 C.3   100  GLU100      0.1160
     34  CD       -18.0310   15.6760    5.5020 C.2   100  GLU100      0.3649
     35  OE1      -18.1960   15.8820    4.2790 O.co2 100  GLU100     -0.2457
     36  OE2      -18.6370   16.3200    6.3900 O.co2 100  GLU100     -0.2457
     37  N        -18.4460   10.6930    3.5530 N.3   102  SER102     -0.1217
     38  CA       -19.8950   10.8260    3.4720 C.3   102  SER102      0.1889
     39  C        -20.5120    9.5130    3.0050 C.2   102  SER102      0.2288
     40  O        -19.8980    8.7640    2.2390 O.2   102  SER102     -0.2866
     41  CB       -20.2780   11.9610    2.5200 C.3   102  SER102      0.2089
     42  OG       -19.7300   11.7560    1.2330 O.3   102  SER102     -0.2183
     43  N        -14.3130   12.9910    0.8300 N.3   113  GLY113     -0.1225
     44  CA       -14.0840   14.4270    0.7380 C.3   113  GLY113      0.1811
     45  C        -12.7320   14.7820    1.3300 C.2   113  GLY113      0.2280
     46  O        -12.4450   14.4400    2.4780 O.2   113  GLY113     -0.2866
     47  N        -13.4340   31.0140    6.6590 N.3   180  TRP180     -0.1241
     48  CA       -13.5690   30.0380    5.5790 C.3   180  TRP180      0.1605
     49  C        -12.7230   30.4570    4.3760 C.2   180  TRP180      0.2264
     50  O        -13.1830   31.2080    3.5110 O.2   180  TRP180     -0.2867
     51  CB       -15.0450   29.8760    5.1810 C.3   180  TRP180      0.0550
     52  CG       -15.8250   29.0470    6.1550 C.ar  180  TRP180      0.0003
     53  CD1      -16.1100   27.7190    6.0480 C.ar  180  TRP180      0.0946
     54  CD2      -16.4000   29.4810    7.3960 C.ar  180  TRP180      0.0152
     55  NE1      -16.8320   27.2970    7.1380 N.ar  180  TRP180     -0.2442
     56  CE2      -17.0240   28.3590    7.9820 C.ar  180  TRP180      0.0810
     57  CE3      -16.4520   30.7100    8.0680 C.ar  180  TRP180      0.0012
     58  CZ2      -17.6950   28.4270    9.2060 C.ar  180  TRP180      0.0191
     59  CZ3      -17.1180   30.7770    9.2860 C.ar  180  TRP180      0.0001
     60  CH2      -17.7300   29.6420    9.8420 C.ar  180  TRP180      0.0015
     61  N        -12.0500   22.5470   -2.9440 N.3   185  LEU185     -0.1231
     62  CA       -12.2270   21.2780   -2.2590 C.3   185  LEU185      0.1693
     63  C        -12.3580   20.1480   -3.2760 C.2   185  LEU185      0.2593
     64  O        -12.5960   20.3890   -4.4650 O.2   185  LEU185     -0.2718
     65  CB       -13.4550   21.3300   -1.3510 C.3   185  LEU185      0.0284
     66  CG       -13.4020   22.3960   -0.2530 C.3   185  LEU185      0.0019
     67  CD1      -14.6550   22.3480    0.5990 C.3   185  LEU185      0.0001
     68  CD2      -12.1620   22.2100    0.6000 C.3   185  LEU185      0.0001
     69  N        -12.1840   18.9150   -2.8010 N.am  186  THR186     -0.1939
     70  CA       -12.2110   17.7360   -3.6610 C.3   186  THR186      0.2028
     71  C        -13.0870   16.6330   -3.0890 C.2   186  THR186      0.2642
     72  O        -13.3220   16.5720   -1.8760 O.2   186  THR186     -0.2714
     73  CB       -10.7940   17.1480   -3.8710 C.3   186  THR186      0.1808
     74  OG1      -10.3190   16.5720   -2.6460 O.3   186  THR186     -0.2208
     75  CG2       -9.8200   18.2190   -4.3500 C.3   186  THR186      0.0379
     76  N        -13.5550   15.7590   -3.9730 N.am  187  ALA187     -0.1977
     77  CA       -14.2910   14.5640   -3.5730 C.3   187  ALA187      0.1597
     78  C        -14.0350   13.4200   -4.5460 C.2   187  ALA187      0.2287
     79  O        -13.9560   13.6310   -5.7530 O.2   187  ALA187     -0.2864
     80  CB       -15.7790   14.8580   -3.4890 C.3   187  ALA187      0.0319
     81  N        -14.6410   21.3580   -6.2360 N.3   201  TYR201     -0.1241
     82  CA       -15.5470   22.4040   -5.7690 C.3   201  TYR201      0.1605
     83  C        -14.7910   23.7200   -5.7150 C.2   201  TYR201      0.2264
     84  O        -13.6400   23.7520   -5.2810 O.2   201  TYR201     -0.2867
     85  CB       -16.0740   22.0910   -4.3720 C.3   201  TYR201      0.0534
     86  CG       -16.8270   20.7860   -4.2460 C.ar  201  TYR201     -0.0201
     87  CD1      -18.1990   20.7720   -4.0200 C.ar  201  TYR201     -0.0009
     88  CD2      -16.1640   19.5660   -4.3280 C.ar  201  TYR201     -0.0009
     89  CE1      -18.8920   19.5780   -3.8900 C.ar  201  TYR201      0.0417
     90  CE2      -16.8480   18.3700   -4.1980 C.ar  201  TYR201      0.0417
     91  CZ       -18.2110   18.3810   -3.9810 C.ar  201  TYR201      0.1957
     92  OH       -18.8840   17.1870   -3.8560 O.3   201  TYR201     -0.2866
     93  N        -14.9380   27.6650   -4.3210 N.3   203  TYR203     -0.1241
     94  CA       -15.4980   28.7050   -3.4580 C.3   203  TYR203      0.1605
     95  C        -14.8020   30.0350   -3.7720 C.2   203  TYR203      0.2264
     96  O        -13.6890   30.2680   -3.3050 O.2   203  TYR203     -0.2867
     97  CB       -15.2780   28.3420   -1.9840 C.3   203  TYR203      0.0534
     98  CG       -16.0680   27.1400   -1.4990 C.ar  203  TYR203     -0.0201
     99  CD1      -17.1780   27.3000   -0.6710 C.ar  203  TYR203     -0.0009
    100  CD2      -15.7040   25.8460   -1.8610 C.ar  203  TYR203     -0.0009
    101  CE1      -17.9050   26.2030   -0.2200 C.ar  203  TYR203      0.0417
    102  CE2      -16.4260   24.7410   -1.4150 C.ar  203  TYR203      0.0417
    103  CZ       -17.5260   24.9260   -0.5950 C.ar  203  TYR203      0.1957
    104  OH       -18.2490   23.8370   -0.1460 O.3   203  TYR203     -0.2866
    105  N        -23.3330   30.6530   -3.4960 N.3   254  HIS254     -0.1226
    106  CA       -22.2120   30.3390   -2.6120 C.3   254  HIS254      0.1752
    107  C        -21.0120   29.7440   -3.3570 C.2   254  HIS254      0.2596
    108  O        -19.9070   30.2860   -3.3030 O.2   254  HIS254     -0.2718
    109  CB       -22.6950   29.3710   -1.5270 C.3   254  HIS254      0.0759
    110  CG       -21.8390   29.3530   -0.2990 C.ar  254  HIS254      0.0818
    111  ND1      -20.4620   29.3730   -0.3470 N.ar  254  HIS254     -0.2268
    112  CD2      -22.1690   29.2920    1.0130 C.ar  254  HIS254      0.1154
    113  CE1      -19.9800   29.3400    0.8830 C.ar  254  HIS254      0.1986
    114  NE2      -20.9950   29.2910    1.7270 N.ar  254  HIS254     -0.2212
    115  N        -21.2300   28.6250   -4.0390 N.am  255  PHE255     -0.1976
    116  CA       -20.1580   27.9460   -4.7650 C.3   255  PHE255      0.1639
    117  C        -20.7000   27.0280   -5.8590 C.2   255  PHE255      0.2290
    118  O        -21.9130   26.9400   -6.0670 O.2   255  PHE255     -0.2864
    119  CB       -19.2650   27.1590   -3.7940 C.3   255  PHE255      0.0560
    120  CG       -19.9730   26.0560   -3.0550 C.ar  255  PHE255     -0.0200
    121  CD1      -19.8350   24.7340   -3.4500 C.ar  255  PHE255     -0.0042
    122  CD2      -20.7510   26.3380   -1.9420 C.ar  255  PHE255     -0.0042
    123  CE1      -20.4750   23.7150   -2.7540 C.ar  255  PHE255     -0.0003
    124  CE2      -21.3960   25.3300   -1.2440 C.ar  255  PHE255     -0.0003
    125  CZ       -21.2580   24.0160   -1.6490 C.ar  255  PHE255     -0.0000
    126  N        -22.0390   31.0140   10.5880 N.3   321  PRO321     -0.2116
    127  CA       -21.4730   31.0740   11.9450 C.3   321  PRO321      0.1372
    128  C        -20.3030   32.0500   12.0980 C.2   321  PRO321      0.2244
    129  O        -19.6300   32.3770   11.1170 O.2   321  PRO321     -0.2868
    130  CB       -20.9960   29.6360   12.2010 C.3   321  PRO321      0.0268
    131  CG       -21.6770   28.7980   11.1860 C.3   321  PRO321      0.0207
    132  CD       -21.8970   29.6700    9.9970 C.3   321  PRO321      0.0892
    133  N        -26.8050   27.0700   11.6670 N.3   334  ALA334     -0.1231
    134  CA       -26.2160   27.5570   10.4220 C.3   334  ALA334      0.1679
    135  C        -27.2100   27.4080    9.2690 C.2   334  ALA334      0.2434
    136  O        -28.1880   26.6640    9.3850 O.2   334  ALA334     -0.2733
    137  CB       -24.9310   26.8000   10.1150 C.3   334  ALA334      0.0304
    138  N        -26.9580   28.1050    8.1440 N.am  335  PRO335     -0.2729
    139  CA       -27.9410   28.1100    7.0640 C.3   335  PRO335      0.1401
    140  C        -27.9960   26.7760    6.3290 C.2   335  PRO335      0.2269
    141  O        -26.9940   26.0570    6.2840 O.2   335  PRO335     -0.2865
    142  CB       -27.4430   29.2240    6.1250 C.3   335  PRO335      0.0296
    143  CG       -26.1630   29.7530    6.7280 C.3   335  PRO335      0.0237
    144  CD       -25.7050   28.7600    7.7360 C.3   335  PRO335      0.0939
    145  N        -28.5960   24.5690    2.7220 N.3   337  MET337     -0.1245
    146  CA       -28.0500   24.7460    1.3810 C.3   337  MET337      0.1570
    147  C        -28.8070   23.9490    0.3300 C.2   337  MET337      0.2261
    148  O        -29.4780   22.9670    0.6360 O.2   337  MET337     -0.2867
    149  CB       -26.5650   24.3670    1.3610 C.3   337  MET337      0.0387
    150  CG       -25.6290   25.5620    1.4930 C.3   337  MET337      0.0595
    151  SD       -23.9290   25.1470    1.9340 S.3   337  MET337     -0.1393
    152  CE       -23.7460   23.5240    1.2100 C.3   337  MET337      0.0692
    153  N        -23.9630   17.4940    7.9580 N.3   408  TYR408     -0.1241
    154  CA       -25.0040   17.7630    6.9680 C.3   408  TYR408      0.1605
    155  C        -25.7190   16.4780    6.5760 C.2   408  TYR408      0.2264
    156  O        -25.1260   15.3990    6.5910 O.2   408  TYR408     -0.2867
    157  CB       -24.4020   18.4050    5.7100 C.3   408  TYR408      0.0534
    158  CG       -24.0220   19.8580    5.8770 C.ar  408  TYR408     -0.0201
    159  CD1      -24.9300   20.8720    5.5770 C.ar  408  TYR408     -0.0009
    160  CD2      -22.7580   20.2230    6.3380 C.ar  408  TYR408     -0.0009
    161  CE1      -24.5930   22.2070    5.7300 C.ar  408  TYR408      0.0417
    162  CE2      -22.4100   21.5630    6.4960 C.ar  408  TYR408      0.0417
    163  CZ       -23.3350   22.5480    6.1920 C.ar  408  TYR408      0.1957
    164  OH       -23.0070   23.8770    6.3460 O.3   408  TYR408     -0.2866
    165  N        -23.1860   13.3510    5.8030 N.3   423  TYR423     -0.1241
    166  CA       -21.8210   13.8590    5.8310 C.3   423  TYR423      0.1605
    167  C        -21.3260   13.8300    7.2750 C.2   423  TYR423      0.2264
    168  O        -21.7080   14.6720    8.0860 O.2   423  TYR423     -0.2867
    169  CB       -21.7870   15.2660    5.2430 C.3   423  TYR423      0.0534
    170  CG       -22.2200   15.2940    3.7910 C.ar  423  TYR423     -0.0201
    171  CD1      -21.2890   15.1940    2.7660 C.ar  423  TYR423     -0.0009
    172  CD2      -23.5640   15.3920    3.4450 C.ar  423  TYR423     -0.0009
    173  CE1      -21.6790   15.2090    1.4390 C.ar  423  TYR423      0.0417
    174  CE2      -23.9640   15.4030    2.1180 C.ar  423  TYR423      0.0417
    175  CZ       -23.0180   15.3110    1.1210 C.ar  423  TYR423      0.1957
    176  OH       -23.4050   15.3250   -0.1990 O.3   423  TYR423     -0.2866
@<TRIPOS>BOND
     1    81    82    1
     2   118   117    2
     3   117   116    1
     4    82    83    1
     5    82    85    1
     6    79    78    2
     7    83    84    2
     8   116   115    1
     9   116   119    1
    10    78    77    1
    11    64    63    2
    12    85    86    1
    13    75    73    1
    14    88    86   ar
    15    88    90   ar
    16    93    94    1
    17    86    87   ar
    18    90    91   ar
    19   115   107   am
    20    87    89   ar
    21    91    89   ar
    22    91    92    1
    23    76    77    1
    24    76    71   am
    25    73    70    1
    26    73    74    1
    27   119   120    1
    28    95    94    1
    29    95    96    2
    30    70    71    1
    31    70    69    1
    32    77    80    1
    33   105   106    1
    34    94    97    1
    35   121   120   ar
    36   121   123   ar
    37   107   108    2
    38   107   106    1
    39    63    69   am
    40    63    62    1
    41    71    72    2
    42   120   122   ar
    43    61    62    1
    44   123   125   ar
    45   106   109    1
    46    62    65    1
    47    97    98    1
    48   122   124   ar
    49   100    98   ar
    50   100   102   ar
    51   125   124   ar
    52   109   110    1
    53    98    99   ar
    54   102   103   ar
    55    65    66    1
    56    99   101   ar
    57   103   101   ar
    58   103   104    1
    59   111   110   ar
    60   111   113   ar
    61   110   112   ar
    62    66    67    1
    63    66    68    1
    64   176   175    1
    65   147   148    2
    66   147   146    1
    67    44    43    1
    68    44    45    1
    69   113   114   ar
    70   112   114   ar
    71   175   173   ar
    72   175   174   ar
    73   152   151    1
    74    42    41    1
    75    45    46    2
    76   149   146    1
    77   149   150    1
    78   146   145    1
    79   173   171   ar
    80   150   151    1
    81   174   172   ar
    82    40    39    2
    83    11    10    1
    84    11    12    1
    85    41    38    1
    86   171   170   ar
    87    10     9    1
    88    39    38    1
    89   172   170   ar
    90    38    37    1
    91    31    30    2
    92    50    49    2
    93     9     6    1
    94   170   169    1
    95     6     5    1
    96     6     7    1
    97     4     3    2
    98    35    34   ar
    99    49    48    1
   100     3     5   am
   101     3     2    1
   102    30    29    1
   103     2     1    1
   104     8     7    2
   105    51    48    1
   106    51    52    1
   107   169   166    1
   108     7    13   am
   109    28    29    1
   110    32    29    1
   111    32    33    1
   112    34    33    1
   113    34    36   ar
   114   159   161   ar
   115   159   158   ar
   116    48    47    1
   117   157   158    1
   118   157   154    1
   119   161   163   ar
   120   165   166    1
   121   166   167    1
   122   158   160   ar
   123    53    52   ar
   124    53    55   ar
   125   142   143    1
   126   142   139    1
   127    52    54   ar
   128   163   164    1
   129   163   162   ar
   130   141   140    2
   131   140   139    1
   132   160   162   ar
   133    13    14    1
   134   155   156    2
   135   155   154    1
   136   143   144    1
   137   154   153    1
   138   139   138    1
   139    19    17    1
   140    55    56   ar
   141   167   168    2
   142    54    56   ar
   143    54    57   ar
   144    14    17    1
   145    14    15    1
   146   144   138    1
   147    56    58   ar
   148    57    59   ar
   149   138   135   am
   150    17    18    1
   151    15    16    2
   152    15    20   am
   153    58    60   ar
   154   135   136    2
   155   135   134    1
   156    59    60   ar
   157    20    21    1
   158   132   126    1
   159   132   131    1
   160   137   134    1
   161    27    25    1
   162    25    26    1
   163    25    24    1
   164   134   133    1
   165   126   127    1
   166    21    24    1
   167    21    22    1
   168   129   128    2
   169   131   130    1
   170    22    23    2
   171   127   128    1
   172   127   130    1
