@<TRIPOS>MOLECULE
tmp/3o2kA00.pdb
 170 161 0 0 0
SMALL
GASTEIGER

@<TRIPOS>ATOM
      1  N        -18.4460   10.6930    3.5530 N.3   102  SER102     -0.1217
      2  CA       -19.8950   10.8260    3.4720 C.3   102  SER102      0.1889
      3  C        -20.5120    9.5130    3.0050 C.2   102  SER102      0.2288
      4  O        -19.8980    8.7640    2.2390 O.2   102  SER102     -0.2866
      5  CB       -20.2780   11.9610    2.5200 C.3   102  SER102      0.2089
      6  OG       -19.7300   11.7560    1.2330 O.3   102  SER102     -0.2183
      7  N        -18.1230    8.2190   -0.2660 N.3   111  ARG111     -0.1245
      8  CA       -17.3140    9.2320   -0.9440 C.3   111  ARG111      0.1563
      9  C        -16.2750    9.8090    0.0080 C.2   111  ARG111      0.2260
     10  O        -16.5610   10.0220    1.1850 O.2   111  ARG111     -0.2867
     11  CB       -18.1880   10.3690   -1.4700 C.3   111  ARG111      0.0307
     12  CG       -19.4240    9.9230   -2.2230 C.3   111  ARG111      0.0489
     13  CD       -20.6410    9.7580   -1.3250 C.3   111  ARG111      0.2205
     14  NE       -21.8740    9.8000   -2.1030 N.pl3 111  ARG111     -0.0865
     15  CZ       -22.4270   10.9120   -2.5920 C.cat 111  ARG111      0.5346
     16  NH1      -23.5590   10.8320   -3.2870 N.pl3 111  ARG111      0.1354
     17  NH2      -21.8630   12.1050   -2.4030 N.pl3 111  ARG111      0.1354
     18  N        -15.8070    9.8670   -5.5230 N.3   189  ASP189     -0.1239
     19  CA       -16.9150    8.9180   -5.4340 C.3   189  ASP189      0.1674
     20  C        -16.3910    7.5090   -5.6570 C.2   189  ASP189      0.2266
     21  O        -15.8130    7.2220   -6.7000 O.2   189  ASP189     -0.2867
     22  CB       -17.9860    9.2230   -6.4900 C.3   189  ASP189      0.1410
     23  CG       -18.8510   10.4220   -6.1320 C.2   189  ASP189      0.3668
     24  OD1      -18.5930   11.0840   -5.0990 O.co2 189  ASP189     -0.2456
     25  OD2      -19.8070   10.6930   -6.8900 O.co2 189  ASP189     -0.2456
     26  N        -14.4000   14.8400   -8.2570 N.3   199  LYS199     -0.1245
     27  CA       -15.1090   16.1120   -8.3650 C.3   199  LYS199      0.1561
     28  C        -14.3110   17.2340   -7.7110 C.2   199  LYS199      0.2260
     29  O        -13.6300   17.0170   -6.7030 O.2   199  LYS199     -0.2867
     30  CB       -16.4830   16.0180   -7.6970 C.3   199  LYS199      0.0271
     31  CG       -17.2940   14.7910   -8.1000 C.3   199  LYS199      0.0035
     32  CD       -18.7710   14.9660   -7.7720 C.3   199  LYS199      0.0206
     33  CE       -19.6130   13.7980   -8.2750 C.3   199  LYS199      0.1093
     34  NZ       -20.9830   14.2300   -8.6870 N.3   199  LYS199     -0.1314
     35  N        -14.6410   21.3580   -6.2360 N.3   201  TYR201     -0.1241
     36  CA       -15.5470   22.4040   -5.7690 C.3   201  TYR201      0.1605
     37  C        -14.7910   23.7200   -5.7150 C.2   201  TYR201      0.2264
     38  O        -13.6400   23.7520   -5.2810 O.2   201  TYR201     -0.2867
     39  CB       -16.0740   22.0910   -4.3720 C.3   201  TYR201      0.0534
     40  CG       -16.8270   20.7860   -4.2460 C.ar  201  TYR201     -0.0201
     41  CD1      -18.1990   20.7720   -4.0200 C.ar  201  TYR201     -0.0009
     42  CD2      -16.1640   19.5660   -4.3280 C.ar  201  TYR201     -0.0009
     43  CE1      -18.8920   19.5780   -3.8900 C.ar  201  TYR201      0.0417
     44  CE2      -16.8480   18.3700   -4.1980 C.ar  201  TYR201      0.0417
     45  CZ       -18.2110   18.3810   -3.9810 C.ar  201  TYR201      0.1957
     46  OH       -18.8840   17.1870   -3.8560 O.3   201  TYR201     -0.2866
     47  N        -14.9380   27.6650   -4.3210 N.3   203  TYR203     -0.1241
     48  CA       -15.4980   28.7050   -3.4580 C.3   203  TYR203      0.1605
     49  C        -14.8020   30.0350   -3.7720 C.2   203  TYR203      0.2264
     50  O        -13.6890   30.2680   -3.3050 O.2   203  TYR203     -0.2867
     51  CB       -15.2780   28.3420   -1.9840 C.3   203  TYR203      0.0534
     52  CG       -16.0680   27.1400   -1.4990 C.ar  203  TYR203     -0.0201
     53  CD1      -17.1780   27.3000   -0.6710 C.ar  203  TYR203     -0.0009
     54  CD2      -15.7040   25.8460   -1.8610 C.ar  203  TYR203     -0.0009
     55  CE1      -17.9050   26.2030   -0.2200 C.ar  203  TYR203      0.0417
     56  CE2      -16.4260   24.7410   -1.4150 C.ar  203  TYR203      0.0417
     57  CZ       -17.5260   24.9260   -0.5950 C.ar  203  TYR203      0.1957
     58  OH       -18.2490   23.8370   -0.1460 O.3   203  TYR203     -0.2866
     59  N        -21.2300   28.6250   -4.0390 N.3   255  PHE255     -0.1241
     60  CA       -20.1580   27.9460   -4.7650 C.3   255  PHE255      0.1605
     61  C        -20.7000   27.0280   -5.8590 C.2   255  PHE255      0.2264
     62  O        -21.9130   26.9400   -6.0670 O.2   255  PHE255     -0.2867
     63  CB       -19.2650   27.1590   -3.7940 C.3   255  PHE255      0.0534
     64  CG       -19.9730   26.0560   -3.0550 C.ar  255  PHE255     -0.0203
     65  CD1      -19.8350   24.7340   -3.4500 C.ar  255  PHE255     -0.0042
     66  CD2      -20.7510   26.3380   -1.9420 C.ar  255  PHE255     -0.0042
     67  CE1      -20.4750   23.7150   -2.7540 C.ar  255  PHE255     -0.0003
     68  CE2      -21.3960   25.3300   -1.2440 C.ar  255  PHE255     -0.0003
     69  CZ       -21.2580   24.0160   -1.6490 C.ar  255  PHE255     -0.0000
     70  N        -19.6260   23.0800   -8.1720 N.3   257  SER257     -0.1217
     71  CA       -18.7810   21.9040   -8.3240 C.3   257  SER257      0.1889
     72  C        -18.8990   21.3580   -9.7390 C.2   257  SER257      0.2288
     73  O        -19.8620   21.6530  -10.4490 O.2   257  SER257     -0.2866
     74  CB       -19.1590   20.8260   -7.3090 C.3   257  SER257      0.2089
     75  OG       -20.3330   20.1390   -7.7000 O.3   257  SER257     -0.2183
     76  N        -22.8580   21.6870  -10.8750 N.3   269  LYS269     -0.1245
     77  CA       -23.8280   21.9450   -9.8180 C.3   269  LYS269      0.1561
     78  C        -23.6090   23.3380   -9.2450 C.2   269  LYS269      0.2260
     79  O        -22.4830   23.7080   -8.9220 O.2   269  LYS269     -0.2867
     80  CB       -23.7000   20.9090   -8.7090 C.3   269  LYS269      0.0271
     81  CG       -24.0470   19.5040   -9.1510 C.3   269  LYS269      0.0035
     82  CD       -24.0120   18.5350   -7.9810 C.3   269  LYS269      0.0206
     83  CE       -24.5020   17.1590   -8.3890 C.3   269  LYS269      0.1093
     84  NZ       -23.4340   16.3800   -9.0750 N.3   269  LYS269     -0.1314
     85  N        -24.3900   25.8320   -6.1940 N.3   271  TYR271     -0.1241
     86  CA       -24.8050   25.8030   -4.7890 C.3   271  TYR271      0.1605
     87  C        -25.1810   27.1930   -4.2850 C.2   271  TYR271      0.2264
     88  O        -24.5250   28.1850   -4.6130 O.2   271  TYR271     -0.2867
     89  CB       -23.7060   25.2150   -3.9070 C.3   271  TYR271      0.0534
     90  CG       -23.3490   23.7800   -4.2270 C.ar  271  TYR271     -0.0201
     91  CD1      -22.6020   23.4670   -5.3550 C.ar  271  TYR271     -0.0009
     92  CD2      -23.7370   22.7400   -3.3900 C.ar  271  TYR271     -0.0009
     93  CE1      -22.2600   22.1570   -5.6500 C.ar  271  TYR271      0.0417
     94  CE2      -23.3930   21.4250   -3.6700 C.ar  271  TYR271      0.0417
     95  CZ       -22.6560   21.1400   -4.8040 C.ar  271  TYR271      0.1957
     96  OH       -22.3130   19.8370   -5.0960 O.3   271  TYR271     -0.2866
     97  N        -28.5960   24.5690    2.7220 N.3   337  MET337     -0.1245
     98  CA       -28.0500   24.7460    1.3810 C.3   337  MET337      0.1570
     99  C        -28.8070   23.9490    0.3300 C.2   337  MET337      0.2261
    100  O        -29.4780   22.9670    0.6360 O.2   337  MET337     -0.2867
    101  CB       -26.5650   24.3670    1.3610 C.3   337  MET337      0.0387
    102  CG       -25.6290   25.5620    1.4930 C.3   337  MET337      0.0595
    103  SD       -23.9290   25.1470    1.9340 S.3   337  MET337     -0.1393
    104  CE       -23.7460   23.5240    1.2100 C.3   337  MET337      0.0692
    105  N        -31.3530   19.8220   -5.0610 N.3   353  GLN353     -0.1245
    106  CA       -31.0130   18.9160   -3.9680 C.3   353  GLN353      0.1566
    107  C        -30.7930   19.7390   -2.7040 C.2   353  GLN353      0.2260
    108  O        -30.0560   20.7210   -2.7230 O.2   353  GLN353     -0.2867
    109  CB       -29.7590   18.1090   -4.3110 C.3   353  GLN353      0.0367
    110  CG       -29.3840   17.0450   -3.2790 C.3   353  GLN353      0.0905
    111  CD       -28.4410   15.9860   -3.8330 C.2   353  GLN353      0.2608
    112  OE1      -28.7570   15.2990   -4.8070 O.2   353  GLN353     -0.2717
    113  NE2      -27.2750   15.8550   -3.2150 N.am  353  GLN353     -0.0878
    114  N        -29.6120   20.4380    1.2300 N.3   355  TYR355     -0.1241
    115  CA       -28.6770   20.0920    2.2950 C.3   355  TYR355      0.1605
    116  C        -29.1150   20.8240    3.5530 C.2   355  TYR355      0.2264
    117  O        -29.2870   22.0410    3.5260 O.2   355  TYR355     -0.2867
    118  CB       -27.2550   20.5240    1.9300 C.3   355  TYR355      0.0534
    119  CG       -26.7440   19.9380    0.6330 C.ar  355  TYR355     -0.0201
    120  CD1      -27.1150   20.4800   -0.5920 C.ar  355  TYR355     -0.0009
    121  CD2      -25.8860   18.8440    0.6320 C.ar  355  TYR355     -0.0009
    122  CE1      -26.6510   19.9430   -1.7870 C.ar  355  TYR355      0.0417
    123  CE2      -25.4130   18.3020   -0.5570 C.ar  355  TYR355      0.0417
    124  CZ       -25.8000   18.8560   -1.7610 C.ar  355  TYR355      0.1957
    125  OH       -25.3320   18.3210   -2.9330 O.3   355  TYR355     -0.2866
    126  N        -23.9630   17.4940    7.9580 N.3   408  TYR408     -0.1241
    127  CA       -25.0040   17.7630    6.9680 C.3   408  TYR408      0.1605
    128  C        -25.7190   16.4780    6.5760 C.2   408  TYR408      0.2264
    129  O        -25.1260   15.3990    6.5910 O.2   408  TYR408     -0.2867
    130  CB       -24.4020   18.4050    5.7100 C.3   408  TYR408      0.0534
    131  CG       -24.0220   19.8580    5.8770 C.ar  408  TYR408     -0.0201
    132  CD1      -24.9300   20.8720    5.5770 C.ar  408  TYR408     -0.0009
    133  CD2      -22.7580   20.2230    6.3380 C.ar  408  TYR408     -0.0009
    134  CE1      -24.5930   22.2070    5.7300 C.ar  408  TYR408      0.0417
    135  CE2      -22.4100   21.5630    6.4960 C.ar  408  TYR408      0.0417
    136  CZ       -23.3350   22.5480    6.1920 C.ar  408  TYR408      0.1957
    137  OH       -23.0070   23.8770    6.3460 O.3   408  TYR408     -0.2866
    138  N        -34.5040   11.2340   -7.0510 N.3   414  LYS414     -0.1245
    139  CA       -33.8850   10.7110   -8.2700 C.3   414  LYS414      0.1561
    140  C        -34.5230    9.3870   -8.6780 C.2   414  LYS414      0.2260
    141  O        -34.6480    8.4770   -7.8570 O.2   414  LYS414     -0.2867
    142  CB       -32.3840   10.4950   -8.0550 C.3   414  LYS414      0.0271
    143  CG       -31.5550   11.7710   -8.0120 C.3   414  LYS414      0.0035
    144  CD       -30.0660   11.4540   -8.0760 C.3   414  LYS414      0.0206
    145  CE       -29.2190   12.7140   -8.1430 C.3   414  LYS414      0.1093
    146  NZ       -27.7650   12.3990   -8.2700 N.3   414  LYS414     -0.1314
    147  N        -33.1540   10.0990   -2.3230 N.3   419  TYR419     -0.1241
    148  CA       -31.7000   10.0490   -2.4420 C.3   419  TYR419      0.1605
    149  C        -31.1130   10.8060   -1.2500 C.2   419  TYR419      0.2264
    150  O        -31.1950   12.0320   -1.1930 O.2   419  TYR419     -0.2867
    151  CB       -31.2870   10.6850   -3.7700 C.3   419  TYR419      0.0534
    152  CG       -29.8040   10.7020   -4.0760 C.ar  419  TYR419     -0.0201
    153  CD1      -29.2150    9.6940   -4.8420 C.ar  419  TYR419     -0.0009
    154  CD2      -28.9970   11.7540   -3.6410 C.ar  419  TYR419     -0.0009
    155  CE1      -27.8510    9.7220   -5.1440 C.ar  419  TYR419      0.0417
    156  CE2      -27.6360   11.7900   -3.9340 C.ar  419  TYR419      0.0417
    157  CZ       -27.0670   10.7740   -4.6850 C.ar  419  TYR419      0.1957
    158  OH       -25.7170   10.8190   -4.9720 O.3   419  TYR419     -0.2866
    159  N        -23.1860   13.3510    5.8030 N.3   423  TYR423     -0.1241
    160  CA       -21.8210   13.8590    5.8310 C.3   423  TYR423      0.1605
    161  C        -21.3260   13.8300    7.2750 C.2   423  TYR423      0.2264
    162  O        -21.7080   14.6720    8.0860 O.2   423  TYR423     -0.2867
    163  CB       -21.7870   15.2660    5.2430 C.3   423  TYR423      0.0534
    164  CG       -22.2200   15.2940    3.7910 C.ar  423  TYR423     -0.0201
    165  CD1      -21.2890   15.1940    2.7660 C.ar  423  TYR423     -0.0009
    166  CD2      -23.5640   15.3920    3.4450 C.ar  423  TYR423     -0.0009
    167  CE1      -21.6790   15.2090    1.4390 C.ar  423  TYR423      0.0417
    168  CE2      -23.9640   15.4030    2.1180 C.ar  423  TYR423      0.0417
    169  CZ       -23.0180   15.3110    1.1210 C.ar  423  TYR423      0.1957
    170  OH       -23.4050   15.3250   -0.1990 O.3   423  TYR423     -0.2866
@<TRIPOS>BOND
     1    76    77    1
     2    73    72    2
     3    77    78    1
     4    77    80    1
     5    72    71    1
     6    78    79    2
     7    81    80    1
     8    81    82    1
     9    84    83    1
    10    34    33    1
    11   140   139    1
    12   140   141    2
    13    83    82    1
    14    27    26    1
    15    27    28    1
    16    27    30    1
    17    71    70    1
    18    71    74    1
    19    33    32    1
    20   139   142    1
    21   139   138    1
    22   146   145    1
    23   145   144    1
    24    31    32    1
    25    31    30    1
    26   144   143    1
    27   142   143    1
    28    28    29    2
    29    75    74    1
    30    25    23   ar
    31    21    20    2
    32    22    23    1
    33    22    19    1
    34    35    36    1
    35    85    86    1
    36    23    24   ar
    37    62    61    2
    38    61    60    1
    39    36    37    1
    40    36    39    1
    41    37    38    2
    42    20    19    1
    43    93    91   ar
    44    93    95   ar
    45    18    19    1
    46    91    90   ar
    47   155   153   ar
    48   155   157   ar
    49    96    95    1
    50   105   106    1
    51   158   157    1
    52   153   152   ar
    53   112   111    2
    54    95    94   ar
    55    86    87    1
    56    86    89    1
    57    60    59    1
    58    60    63    1
    59   157   156   ar
    60    88    87    2
    61    39    40    1
    62    42    40   ar
    63    42    44   ar
    64    47    48    1
    65   109   106    1
    66   109   110    1
    67    40    41   ar
    68    90    89    1
    69    90    92   ar
    70    44    45   ar
    71   152   151    1
    72   152   154   ar
    73    41    43   ar
    74    45    43   ar
    75    45    46    1
    76   106   107    1
    77   156   154   ar
    78   111   110    1
    79   111   113   am
    80    63    64    1
    81    49    48    1
    82    49    50    2
    83   151   148    1
    84    94    92   ar
    85    48    51    1
    86    65    64   ar
    87    65    67   ar
    88    16    15    1
    89    64    66   ar
    90   125   124    1
    91    67    69   ar
    92   108   107    2
    93    15    17    1
    94    15    14    2
    95   148   147    1
    96   148   149    1
    97    12    11    1
    98    12    13    1
    99    14    13    1
   100    51    52    1
   101    66    68   ar
   102    54    52   ar
   103    54    56   ar
   104   122   124   ar
   105   122   120   ar
   106   124   123   ar
   107    69    68   ar
   108    52    53   ar
   109    11     8    1
   110    56    57   ar
   111   149   150    2
   112     8     7    1
   113     8     9    1
   114    53    55   ar
   115    57    55   ar
   116    57    58    1
   117   120   119   ar
   118   123   121   ar
   119   170   169    1
   120     9    10    2
   121    99   100    2
   122    99    98    1
   123   121   119   ar
   124   119   118    1
   125   169   167   ar
   126   169   168   ar
   127   104   103    1
   128   114   115    1
   129     6     5    1
   130   101    98    1
   131   101   102    1
   132    98    97    1
   133   167   165   ar
   134   102   103    1
   135   118   115    1
   136   168   166   ar
   137     4     3    2
   138   115   116    1
   139     5     2    1
   140   165   164   ar
   141     3     2    1
   142   166   164   ar
   143     2     1    1
   144   117   116    2
   145   164   163    1
   146   163   160    1
   147   132   134   ar
   148   132   131   ar
   149   130   131    1
   150   130   127    1
   151   134   136   ar
   152   159   160    1
   153   160   161    1
   154   131   133   ar
   155   136   137    1
   156   136   135   ar
   157   133   135   ar
   158   128   129    2
   159   128   127    1
   160   127   126    1
   161   161   162    2
