@<TRIPOS>MOLECULE
tmp/3o2mC01.pdb
 86 85 0 0 0
SMALL
GASTEIGER

@<TRIPOS>ATOM
      1  N         44.3280   84.7750   35.6960 N.3   174  PHE174     -0.1227
      2  CA        43.0560   84.1030   35.8960 C.3   174  PHE174      0.1736
      3  C         42.9720   82.9730   34.8860 C.2   174  PHE174      0.2595
      4  O         42.9030   83.2050   33.6880 O.2   174  PHE174     -0.2718
      5  CB        41.8760   85.0440   35.6940 C.3   174  PHE174      0.0547
      6  CG        40.5500   84.3220   35.6260 C.ar  174  PHE174     -0.0202
      7  CD1       39.8520   84.2120   34.4090 C.ar  174  PHE174     -0.0042
      8  CD2       40.0200   83.6990   36.7700 C.ar  174  PHE174     -0.0042
      9  CE1       38.6480   83.4900   34.3370 C.ar  174  PHE174     -0.0003
     10  CE2       38.8180   82.9740   36.7050 C.ar  174  PHE174     -0.0003
     11  CZ        38.1340   82.8710   35.4900 C.ar  174  PHE174     -0.0000
     12  N         42.9860   81.7430   35.3730 N.am  175  MET175     -0.1965
     13  CA        42.9410   80.6050   34.4790 C.3   175  MET175      0.1736
     14  C         41.8970   79.6160   34.9370 C.2   175  MET175      0.2616
     15  O         41.7130   79.3770   36.1280 O.2   175  MET175     -0.2715
     16  CB        44.3060   79.9040   34.4160 C.3   175  MET175      0.0427
     17  CG        44.6160   79.0400   35.6270 C.3   175  MET175      0.0599
     18  SD        45.9050   77.7630   35.3210 S.3   175  MET175     -0.1393
     19  CE        47.3910   78.5110   36.2070 C.3   175  MET175      0.0692
     20  N         41.2030   79.0580   33.9570 N.am  176  MET176     -0.1963
     21  CA        40.1890   78.0610   34.2010 C.3   176  MET176      0.1736
     22  C         40.9330   76.7980   34.7000 C.2   176  MET176      0.2616
     23  O         42.1460   76.6270   34.4480 O.2   176  MET176     -0.2715
     24  CB        39.4710   77.7850   32.8820 C.3   176  MET176      0.0427
     25  CG        37.9470   77.7940   32.9640 C.3   176  MET176      0.0599
     26  SD        37.3060   79.3600   33.6250 S.3   176  MET176     -0.1393
     27  CE        37.2550   80.3890   32.0790 C.3   176  MET176      0.0692
     28  N         40.2000   75.9450   35.4220 N.am  177  GLU177     -0.1964
     29  CA        40.6760   74.6770   35.9780 C.3   177  GLU177      0.1718
     30  C         42.1080   74.6710   36.4780 C.2   177  GLU177      0.2458
     31  O         42.9110   73.8460   36.0840 O.2   177  GLU177     -0.2730
     32  CB        40.4620   73.5730   34.9410 C.3   177  GLU177      0.0428
     33  CG        39.0900   73.7060   34.2640 C.3   177  GLU177      0.1163
     34  CD        38.7080   72.5710   33.2990 C.2   177  GLU177      0.3649
     35  OE1       39.5840   72.0810   32.5330 O.co2 177  GLU177     -0.2457
     36  OE2       37.5080   72.1930   33.3000 O.co2 177  GLU177     -0.2457
     37  N         42.4340   75.5830   37.3870 N.am  178  PRO178     -0.2716
     38  CA        43.7440   75.7640   38.0100 C.3   178  PRO178      0.1536
     39  C         44.3190   74.4570   38.5620 C.2   178  PRO178      0.2598
     40  O         45.5220   74.3640   38.8220 O.2   178  PRO178     -0.2715
     41  CB        43.4420   76.7290   39.1430 C.3   178  PRO178      0.0310
     42  CG        42.3140   77.4930   38.6300 C.3   178  PRO178      0.0237
     43  CD        41.4450   76.4500   38.0340 C.3   178  PRO178      0.0939
     44  N         43.4490   73.4700   38.7720 N.am  179  GLU179     -0.1978
     45  CA        43.8660   72.1860   39.3090 C.3   179  GLU179      0.1602
     46  C         44.9100   71.5640   38.4330 C.2   179  GLU179      0.2287
     47  O         45.8720   70.9870   38.9310 O.2   179  GLU179     -0.2864
     48  CB        42.7090   71.1930   39.3920 C.3   179  GLU179      0.0415
     49  CG        41.4700   71.7060   40.0780 C.3   179  GLU179      0.1163
     50  CD        40.6230   72.5640   39.1700 C.2   179  GLU179      0.3649
     51  OE1       39.9950   71.9860   38.2540 O.co2 179  GLU179     -0.2457
     52  OE2       40.6000   73.8040   39.3750 O.co2 179  GLU179     -0.2457
     53  N         45.7330   77.6330   49.0050 N.3   225  ILE225     -0.1245
     54  CA        46.0230   78.7690   49.8710 C.3   225  ILE225      0.1561
     55  C         47.2490   78.5810   50.7710 C.2   225  ILE225      0.2260
     56  O         48.0390   79.5000   50.9500 O.2   225  ILE225     -0.2867
     57  CB        44.7750   79.0970   50.7460 C.3   225  ILE225      0.0252
     58  CG1       43.6200   79.5370   49.8500 C.3   225  ILE225      0.0019
     59  CG2       45.0830   80.1770   51.7440 C.3   225  ILE225      0.0019
     60  CD1       42.3310   79.8650   50.5980 C.3   225  ILE225      0.0001
     61  N         40.9700   92.3620   47.2070 N.3   249  THR249     -0.1203
     62  CA        40.5450   91.2130   47.9800 C.3   249  THR249      0.1994
     63  C         41.7250   90.4350   48.5500 C.2   249  THR249      0.2617
     64  O         41.7540   90.1210   49.7370 O.2   249  THR249     -0.2717
     65  CB        39.7420   90.2590   47.1220 C.3   249  THR249      0.1784
     66  OG1       39.7270   90.7410   45.7750 O.3   249  THR249     -0.2211
     67  CG2       38.3520   90.1600   47.6330 C.3   249  THR249      0.0376
     68  N         42.6960   90.1430   47.6930 N.am  250  VAL250     -0.1979
     69  CA        43.8850   89.3810   48.0580 C.3   250  VAL250      0.1595
     70  C         44.8900   90.1160   48.9490 C.2   250  VAL250      0.2287
     71  O         45.4000   89.5490   49.9040 O.2   250  VAL250     -0.2864
     72  CB        44.6190   88.9210   46.7860 C.3   250  VAL250      0.0276
     73  CG1       45.6690   87.9070   47.1200 C.3   250  VAL250      0.0022
     74  CG2       43.6400   88.3620   45.8110 C.3   250  VAL250      0.0022
     75  N         44.0520   89.9160   52.5380 N.3   253  TYR253     -0.1241
     76  CA        44.3770   88.6390   53.1480 C.3   253  TYR253      0.1605
     77  C         45.8730   88.4630   53.4150 C.2   253  TYR253      0.2264
     78  O         46.2650   88.0400   54.4970 O.2   253  TYR253     -0.2867
     79  CB        43.8940   87.5010   52.2500 C.3   253  TYR253      0.0534
     80  CG        44.2850   86.1360   52.7470 C.ar  253  TYR253     -0.0201
     81  CD1       43.7250   85.6260   53.8890 C.ar  253  TYR253     -0.0009
     82  CD2       45.2530   85.3870   52.1050 C.ar  253  TYR253     -0.0009
     83  CE1       44.1080   84.4200   54.3860 C.ar  253  TYR253      0.0417
     84  CE2       45.6480   84.1590   52.6000 C.ar  253  TYR253      0.0417
     85  CZ        45.0620   83.6860   53.7490 C.ar  253  TYR253      0.1957
     86  OH        45.3940   82.4690   54.2870 O.3   253  TYR253     -0.2866
@<TRIPOS>BOND
     1    27    26    1
     2    35    34   ar
     3    24    25    1
     4    24    21    1
     5    25    26    1
     6    34    36   ar
     7    34    33    1
     8     4     3    2
     9    20    21    1
    10    20    14   am
    11    21    22    1
    12    33    32    1
    13     9     7   ar
    14     9    11   ar
    15     7     6   ar
    16    16    13    1
    17    16    17    1
    18    23    22    2
    19    13    14    1
    20    13    12    1
    21    22    28   am
    22     3    12   am
    23     3     2    1
    24    14    15    2
    25    32    29    1
    26    18    17    1
    27    18    19    1
    28    28    29    1
    29    11    10   ar
    30     6     5    1
    31     6     8   ar
    32     5     2    1
    33     1     2    1
    34    29    30    1
    35    31    30    2
    36    30    37   am
    37    10     8   ar
    38    37    38    1
    39    37    43    1
    40    38    39    1
    41    38    41    1
    42    43    42    1
    43    51    50   ar
    44    46    47    2
    45    46    45    1
    46    39    44   am
    47    39    40    2
    48    42    41    1
    49    44    45    1
    50    50    52   ar
    51    50    49    1
    52    45    48    1
    53    48    49    1
    54    66    65    1
    55    74    72    1
    56    72    73    1
    57    72    69    1
    58    65    67    1
    59    65    62    1
    60    61    62    1
    61    68    69    1
    62    68    63   am
    63    62    63    1
    64    69    70    1
    65    63    64    2
    66    70    71    2
    67    53    54    1
    68    58    60    1
    69    58    57    1
    70    54    57    1
    71    54    55    1
    72    57    59    1
    73    55    56    2
    74    82    84   ar
    75    82    80   ar
    76    79    80    1
    77    79    76    1
    78    75    76    1
    79    84    85   ar
    80    80    81   ar
    81    76    77    1
    82    77    78    2
    83    85    86    1
    84    85    83   ar
    85    81    83   ar
