@<TRIPOS>MOLECULE
tmp/3o2mC02.pdb
 120 118 0 0 0
SMALL
GASTEIGER

@<TRIPOS>ATOM
      1  N         46.7690   87.7960   31.7890 N.3   172  THR172     -0.1203
      2  CA        46.0700   87.6290   33.0700 C.3   172  THR172      0.1994
      3  C         46.4540   86.2780   33.6640 C.2   172  THR172      0.2619
      4  O         46.7460   85.3340   32.9160 O.2   172  THR172     -0.2717
      5  CB        44.5400   87.5530   32.8920 C.3   172  THR172      0.1784
      6  OG1       43.9770   86.8750   34.0200 O.3   172  THR172     -0.2211
      7  CG2       44.1780   86.7450   31.6470 C.3   172  THR172      0.0376
      8  N         46.4560   86.1520   34.9870 N.am  173  SER173     -0.1937
      9  CA        46.7780   84.8370   35.5290 C.3   173  SER173      0.2055
     10  C         45.4620   84.0690   35.7650 C.2   173  SER173      0.2643
     11  O         45.4750   82.8390   35.9700 O.2   173  SER173     -0.2714
     12  CB        47.6550   84.9130   36.8120 C.3   173  SER173      0.2130
     13  OG        46.9590   85.3390   37.9630 O.3   173  SER173     -0.2179
     14  N         44.3280   84.7750   35.6960 N.am  174  PHE174     -0.1973
     15  CA        43.0560   84.1030   35.8960 C.3   174  PHE174      0.1639
     16  C         42.9720   82.9730   34.8860 C.2   174  PHE174      0.2290
     17  O         42.9030   83.2050   33.6880 O.2   174  PHE174     -0.2864
     18  CB        41.8760   85.0440   35.6940 C.3   174  PHE174      0.0560
     19  CG        40.5500   84.3220   35.6260 C.ar  174  PHE174     -0.0200
     20  CD1       39.8520   84.2120   34.4090 C.ar  174  PHE174     -0.0042
     21  CD2       40.0200   83.6990   36.7700 C.ar  174  PHE174     -0.0042
     22  CE1       38.6480   83.4900   34.3370 C.ar  174  PHE174     -0.0003
     23  CE2       38.8180   82.9740   36.7050 C.ar  174  PHE174     -0.0003
     24  CZ        38.1340   82.8710   35.4900 C.ar  174  PHE174     -0.0000
     25  N         42.4340   75.5830   37.3870 N.3   178  PRO178     -0.2116
     26  CA        43.7440   75.7640   38.0100 C.3   178  PRO178      0.1372
     27  C         44.3190   74.4570   38.5620 C.2   178  PRO178      0.2244
     28  O         45.5220   74.3640   38.8220 O.2   178  PRO178     -0.2868
     29  CB        43.4420   76.7290   39.1430 C.3   178  PRO178      0.0268
     30  CG        42.3140   77.4930   38.6300 C.3   178  PRO178      0.0207
     31  CD        41.4450   76.4500   38.0340 C.3   178  PRO178      0.0892
     32  N         49.6790   82.3190   42.1290 N.3   191  ILE191     -0.1231
     33  CA        48.8840   82.0230   43.3220 C.3   191  ILE191      0.1692
     34  C         47.9670   83.1750   43.6990 C.2   191  ILE191      0.2592
     35  O         46.7790   82.9900   43.9440 O.2   191  ILE191     -0.2718
     36  CB        49.7730   81.7670   44.5620 C.3   191  ILE191      0.0266
     37  CG1       50.7380   80.6140   44.3200 C.3   191  ILE191      0.0019
     38  CG2       48.9060   81.4610   45.7580 C.3   191  ILE191      0.0020
     39  CD1       51.6890   80.3840   45.4690 C.3   191  ILE191      0.0001
     40  N         48.5460   84.3700   43.7550 N.am  192  LEU192     -0.1966
     41  CA        47.8290   85.5790   44.1390 C.3   192  LEU192      0.1728
     42  C         47.1480   86.3190   42.9790 C.2   192  LEU192      0.2616
     43  O         46.8350   87.4970   43.0840 O.2   192  LEU192     -0.2715
     44  CB        48.7970   86.5060   44.8740 C.3   192  LEU192      0.0311
     45  CG        49.5630   85.8530   46.0310 C.3   192  LEU192      0.0022
     46  CD1       50.6110   86.7860   46.5170 C.3   192  LEU192      0.0001
     47  CD2       48.6400   85.5120   47.1570 C.3   192  LEU192      0.0001
     48  N         46.9120   85.6270   41.8710 N.am  193  GLY193     -0.1955
     49  CA        46.2360   86.2540   40.7500 C.3   193  GLY193      0.1869
     50  C         46.7450   87.5820   40.2270 C.2   193  GLY193      0.2309
     51  O         45.9710   88.4510   39.8560 O.2   193  GLY193     -0.2863
     52  N         45.6840   74.9750   47.8810 N.3   224  TYR224     -0.1227
     53  CA        45.9720   76.1640   47.0950 C.3   224  TYR224      0.1736
     54  C         46.4260   77.3640   47.9070 C.2   224  TYR224      0.2595
     55  O         47.3830   78.0230   47.5440 O.2   224  TYR224     -0.2718
     56  CB        44.7490   76.5530   46.2670 C.3   224  TYR224      0.0548
     57  CG        45.0470   77.5740   45.1930 C.ar  224  TYR224     -0.0200
     58  CD1       45.0780   77.2170   43.8570 C.ar  224  TYR224     -0.0009
     59  CD2       45.3150   78.8990   45.5180 C.ar  224  TYR224     -0.0009
     60  CE1       45.3530   78.1350   42.8790 C.ar  224  TYR224      0.0417
     61  CE2       45.6020   79.8220   44.5470 C.ar  224  TYR224      0.0417
     62  CZ        45.6140   79.4360   43.2290 C.ar  224  TYR224      0.1957
     63  OH        45.8510   80.3620   42.2500 O.3   224  TYR224     -0.2866
     64  N         45.7330   77.6330   49.0050 N.am  225  ILE225     -0.1980
     65  CA        46.0230   78.7690   49.8710 C.3   225  ILE225      0.1595
     66  C         47.2490   78.5810   50.7710 C.2   225  ILE225      0.2287
     67  O         48.0390   79.5000   50.9500 O.2   225  ILE225     -0.2864
     68  CB        44.7750   79.0970   50.7460 C.3   225  ILE225      0.0276
     69  CG1       43.6200   79.5370   49.8500 C.3   225  ILE225      0.0022
     70  CG2       45.0830   80.1770   51.7440 C.3   225  ILE225      0.0022
     71  CD1       42.3310   79.8650   50.5980 C.3   225  ILE225      0.0001
     72  N         50.8470   79.5080   49.7960 N.3   228  TRP228     -0.1241
     73  CA        51.4010   80.8240   50.0480 C.3   228  TRP228      0.1605
     74  C         52.0260   80.8500   51.4190 C.2   228  TRP228      0.2264
     75  O         53.0060   81.5340   51.6410 O.2   228  TRP228     -0.2867
     76  CB        50.3220   81.8930   49.9520 C.3   228  TRP228      0.0550
     77  CG        50.8230   83.2660   50.3070 C.ar  228  TRP228      0.0003
     78  CD1       50.4560   84.0210   51.3770 C.ar  228  TRP228      0.0946
     79  CD2       51.7710   84.0430   49.5750 C.ar  228  TRP228      0.0152
     80  NE1       51.1080   85.2170   51.3530 N.ar  228  TRP228     -0.2442
     81  CE2       51.9230   85.2570   50.2530 C.ar  228  TRP228      0.0810
     82  CE3       52.5010   83.8300   48.4140 C.ar  228  TRP228      0.0012
     83  CZ2       52.7790   86.2540   49.8060 C.ar  228  TRP228      0.0191
     84  CZ3       53.3470   84.8160   47.9760 C.ar  228  TRP228      0.0001
     85  CH2       53.4800   86.0120   48.6650 C.ar  228  TRP228      0.0015
     86  N         45.5170   92.4710   44.1460 N.3   247  GLN247     -0.1245
     87  CA        44.1200   92.8390   44.0360 C.3   247  GLN247      0.1566
     88  C         43.6100   93.1500   45.4520 C.2   247  GLN247      0.2260
     89  O         44.0380   92.5320   46.4320 O.2   247  GLN247     -0.2867
     90  CB        43.3350   91.6770   43.4460 C.3   247  GLN247      0.0367
     91  CG        43.4000   91.6040   41.9500 C.3   247  GLN247      0.0905
     92  CD        42.0830   91.9870   41.2780 C.2   247  GLN247      0.2608
     93  OE1       41.9970   92.0210   40.0400 O.2   247  GLN247     -0.2717
     94  NE2       41.0430   92.2670   42.0910 N.am  247  GLN247     -0.0878
     95  N         40.9700   92.3620   47.2070 N.3   249  THR249     -0.1203
     96  CA        40.5450   91.2130   47.9800 C.3   249  THR249      0.1994
     97  C         41.7250   90.4350   48.5500 C.2   249  THR249      0.2617
     98  O         41.7540   90.1210   49.7370 O.2   249  THR249     -0.2717
     99  CB        39.7420   90.2590   47.1220 C.3   249  THR249      0.1784
    100  OG1       39.7270   90.7410   45.7750 O.3   249  THR249     -0.2211
    101  CG2       38.3520   90.1600   47.6330 C.3   249  THR249      0.0376
    102  N         42.6960   90.1430   47.6930 N.am  250  VAL250     -0.1979
    103  CA        43.8850   89.3810   48.0580 C.3   250  VAL250      0.1595
    104  C         44.8900   90.1160   48.9490 C.2   250  VAL250      0.2287
    105  O         45.4000   89.5490   49.9040 O.2   250  VAL250     -0.2864
    106  CB        44.6190   88.9210   46.7860 C.3   250  VAL250      0.0276
    107  CG1       45.6690   87.9070   47.1200 C.3   250  VAL250      0.0022
    108  CG2       43.6400   88.3620   45.8110 C.3   250  VAL250      0.0022
    109  N         44.0520   89.9160   52.5380 N.3   253  TYR253     -0.1241
    110  CA        44.3770   88.6390   53.1480 C.3   253  TYR253      0.1605
    111  C         45.8730   88.4630   53.4150 C.2   253  TYR253      0.2264
    112  O         46.2650   88.0400   54.4970 O.2   253  TYR253     -0.2867
    113  CB        43.8940   87.5010   52.2500 C.3   253  TYR253      0.0534
    114  CG        44.2850   86.1360   52.7470 C.ar  253  TYR253     -0.0201
    115  CD1       43.7250   85.6260   53.8890 C.ar  253  TYR253     -0.0009
    116  CD2       45.2530   85.3870   52.1050 C.ar  253  TYR253     -0.0009
    117  CE1       44.1080   84.4200   54.3860 C.ar  253  TYR253      0.0417
    118  CE2       45.6480   84.1590   52.6000 C.ar  253  TYR253      0.0417
    119  CZ        45.0620   83.6860   53.7490 C.ar  253  TYR253      0.1957
    120  OH        45.3940   82.4690   54.2870 O.3   253  TYR253     -0.2866
@<TRIPOS>BOND
     1     7     5    1
     2     1     2    1
     3     5     2    1
     4     5     6    1
     5     4     3    2
     6     2     3    1
     7     3     8   am
     8    17    16    2
     9    22    20   ar
    10    22    24   ar
    11    20    19   ar
    12    16    15    1
    13     8     9    1
    14    24    23   ar
    15     9    10    1
    16     9    12    1
    17    19    18    1
    18    19    21   ar
    19    18    15    1
    20    14    10   am
    21    14    15    1
    22    10    11    2
    23    23    21   ar
    24    12    13    1
    25    25    26    1
    26    25    31    1
    27    26    27    1
    28    26    29    1
    29    31    30    1
    30    27    28    2
    31    30    29    1
    32    51    50    2
    33    93    92    2
    34    50    49    1
    35    49    48    1
    36    92    91    1
    37    92    94   am
    38    48    42   am
    39    91    90    1
    40    32    33    1
    41    63    62    1
    42    60    62   ar
    43    60    58   ar
    44    42    43    2
    45    42    41    1
    46    62    61   ar
    47    33    34    1
    48    33    36    1
    49    90    87    1
    50    34    40   am
    51    34    35    2
    52    40    41    1
    53    58    57   ar
    54    87    86    1
    55    87    88    1
    56    41    44    1
    57    37    36    1
    58    37    39    1
    59    61    59   ar
    60    36    38    1
    61    44    45    1
    62    57    59   ar
    63    57    56    1
    64    88    89    2
    65   100    99    1
    66   108   106    1
    67    45    46    1
    68    45    47    1
    69    56    53    1
    70   106   107    1
    71   106   103    1
    72    53    52    1
    73    53    54    1
    74    99   101    1
    75    99    96    1
    76    95    96    1
    77    55    54    2
    78   102   103    1
    79   102    97   am
    80    54    64   am
    81    84    82   ar
    82    84    85   ar
    83    96    97    1
    84   103   104    1
    85    82    79   ar
    86    97    98    2
    87    85    83   ar
    88   104   105    2
    89    64    65    1
    90    79    81   ar
    91    79    77   ar
    92    72    73    1
    93    83    81   ar
    94    69    71    1
    95    69    68    1
    96    65    68    1
    97    65    66    1
    98    76    73    1
    99    76    77    1
   100    73    74    1
   101    81    80   ar
   102    77    78   ar
   103    68    70    1
   104    66    67    2
   105    80    78   ar
   106    74    75    2
   107   116   118   ar
   108   116   114   ar
   109   113   114    1
   110   113   110    1
   111   109   110    1
   112   118   119   ar
   113   114   115   ar
   114   110   111    1
   115   111   112    2
   116   119   120    1
   117   119   117   ar
   118   115   117   ar
