@<TRIPOS>MOLECULE
tmp/3o2qD00.pdb
 169 166 0 0 0
SMALL
GASTEIGER

@<TRIPOS>ATOM
      1  N          1.6770   18.5020   37.2840 N.3    10  SER10      -0.1202
      2  CA         1.3160   19.5380   36.3110 C.3    10  SER10       0.2020
      3  C          2.2870   19.3190   35.1720 C.2    10  SER10       0.2619
      4  O          2.8250   18.2250   35.0250 O.2    10  SER10      -0.2717
      5  CB         1.4830   20.9360   36.9130 C.3    10  SER10       0.2103
      6  OG         2.7990   21.1010   37.4620 O.3    10  SER10      -0.2182
      7  N          2.5480   20.3180   34.3500 N.am   11  SER11      -0.1937
      8  CA         3.4690   20.0480   33.2130 C.3    11  SER11       0.2055
      9  C          4.9100   20.4250   33.4660 C.2    11  SER11       0.2644
     10  O          5.8170   19.6320   33.2310 O.2    11  SER11      -0.2714
     11  CB         2.9530   20.5560   31.8720 C.3    11  SER11       0.2130
     12  OG         3.2150   21.9070   31.6980 O.3    11  SER11      -0.2179
     13  N          5.1280   21.6110   33.9820 N.am   12  SER12      -0.1935
     14  CA         6.4700   22.0300   34.3090 C.3    12  SER12       0.2055
     15  C          6.8840   21.8630   35.7720 C.2    12  SER12       0.2643
     16  O          8.0640   22.0960   36.0620 O.2    12  SER12      -0.2714
     17  CB         6.6320   23.4920   33.9320 C.3    12  SER12       0.2130
     18  OG         7.0250   23.6090   32.5810 O.3    12  SER12      -0.2179
     19  N          5.9490   21.5350   36.6880 N.am   13  ASN13      -0.1957
     20  CA         6.2120   21.4540   38.1520 C.3    13  ASN13       0.1819
     21  C          6.5910   22.8040   38.7770 C.2    13  ASN13       0.2621
     22  O          7.5050   22.8770   39.6050 O.2    13  ASN13      -0.2715
     23  CB         7.2690   20.3610   38.4660 C.3    13  ASN13       0.1195
     24  CG         7.2980   19.9120   39.9530 C.2    13  ASN13       0.2630
     25  OD1        6.3400   20.1030   40.7370 O.2    13  ASN13      -0.2716
     26  ND2        8.3980   19.2910   40.3320 N.am   13  ASN13      -0.0877
     27  N          5.9010   23.8650   38.3740 N.am   14  GLN14      -0.1963
     28  CA         6.1790   25.2290   38.8420 C.3    14  GLN14       0.1733
     29  C          4.9850   25.8670   39.5130 C.2    14  GLN14       0.2616
     30  O          5.1210   26.5500   40.5180 O.2    14  GLN14      -0.2715
     31  CB         6.5580   26.1490   37.6710 C.3    14  GLN14       0.0408
     32  CG         7.8370   25.7550   36.9470 C.3    14  GLN14       0.0908
     33  CD         9.0460   26.0920   37.7520 C.2    14  GLN14       0.2608
     34  OE1        8.9950   26.9570   38.5970 O.2    14  GLN14      -0.2717
     35  NE2       10.1300   25.3800   37.5360 N.am   14  GLN14      -0.0878
     36  N          3.8120   25.6850   38.9270 N.am   15  ASN15      -0.1958
     37  CA         2.6940   26.5150   39.3140 C.3    15  ASN15       0.1819
     38  C          1.5950   25.6580   39.9210 C.2    15  ASN15       0.2621
     39  O          1.5260   25.5450   41.1500 O.2    15  ASN15      -0.2715
     40  CB         2.2210   27.3690   38.1150 C.3    15  ASN15       0.1195
     41  CG         0.9600   28.1900   38.4190 C.2    15  ASN15       0.2630
     42  OD1        0.0860   28.3220   37.5540 O.2    15  ASN15      -0.2716
     43  ND2        0.8340   28.6870   39.6290 N.am   15  ASN15      -0.0877
     44  N          0.7650   25.0270   39.0960 N.am   16  ARG16      -0.1977
     45  CA        -0.3690   24.2550   39.6510 C.3    16  ARG16       0.1597
     46  C          0.0320   23.1270   40.6150 C.2    16  ARG16       0.2287
     47  O         -0.5220   23.0240   41.7190 O.2    16  ARG16      -0.2864
     48  CB        -1.3030   23.7420   38.5620 C.3    16  ARG16       0.0334
     49  CG        -1.8710   24.8420   37.6950 C.3    16  ARG16       0.0492
     50  CD        -2.3590   24.2720   36.3600 C.3    16  ARG16       0.2205
     51  NE        -1.2460   23.7730   35.5720 N.pl3  16  ARG16      -0.0865
     52  CZ        -1.3340   23.2210   34.3620 C.cat  16  ARG16       0.5346
     53  NH1       -2.5190   23.0580   33.7520 N.pl3  16  ARG16       0.1354
     54  NH2       -0.2220   22.8330   33.7580 N.pl3  16  ARG16       0.1354
     55  N          9.2750   25.0600   31.5240 N.3    41  LYS41      -0.1231
     56  CA         8.9950   26.2450   30.7130 C.3    41  LYS41       0.1693
     57  C          8.2660   27.3200   31.4960 C.2    41  LYS41       0.2592
     58  O          7.1830   27.1160   32.0290 O.2    41  LYS41      -0.2718
     59  CB         8.2740   25.9020   29.3990 C.3    41  LYS41       0.0285
     60  CG         9.0160   24.8770   28.5560 C.3    41  LYS41       0.0035
     61  CD         8.3950   24.7080   27.1690 C.3    41  LYS41       0.0206
     62  CE         8.5480   23.2640   26.6890 C.3    41  LYS41       0.1093
     63  NZ         8.0870   23.0820   25.2670 N.3    41  LYS41      -0.1314
     64  N          8.9010   28.4770   31.5260 N.am   42  LEU42      -0.1966
     65  CA         8.4720   29.6290   32.2850 C.3    42  LEU42       0.1713
     66  C          8.2340   30.7500   31.2920 C.2    42  LEU42       0.2458
     67  O          9.0320   30.8870   30.3490 O.2    42  LEU42      -0.2730
     68  CB         9.6150   30.0360   33.2020 C.3    42  LEU42       0.0310
     69  CG         9.5440   29.8320   34.7010 C.3    42  LEU42       0.0022
     70  CD1        8.5680   28.7330   35.0760 C.3    42  LEU42       0.0001
     71  CD2       10.9810   29.6620   35.3170 C.3    42  LEU42       0.0001
     72  N          7.1580   31.5570   31.4830 N.am   43  PRO43      -0.2716
     73  CA         6.8900   32.6860   30.5630 C.3    43  PRO43       0.1536
     74  C          8.0440   33.6850   30.5130 C.2    43  PRO43       0.2599
     75  O          8.7540   33.8430   31.5090 O.2    43  PRO43      -0.2715
     76  CB         5.6560   33.3790   31.1540 C.3    43  PRO43       0.0310
     77  CG         5.5400   32.8860   32.5620 C.3    43  PRO43       0.0237
     78  CD         6.1590   31.4740   32.5590 C.3    43  PRO43       0.0939
     79  N          8.2200   34.3180   29.3540 N.am   44  GLY44      -0.1941
     80  CA         9.2190   35.3460   29.1550 C.3    44  GLY44       0.1998
     81  C          8.6090   36.6830   28.7640 C.2    44  GLY44       0.2481
     82  O          7.4290   36.9580   29.0800 O.2    44  GLY44      -0.2729
     83  N          9.3920   37.5270   28.0460 N.am   45  PRO45      -0.2715
     84  CA         8.8830   38.8930   27.7270 C.3    45  PRO45       0.1536
     85  C          7.8460   38.9010   26.5970 C.2    45  PRO45       0.2598
     86  O          7.2050   39.9100   26.3410 O.2    45  PRO45      -0.2715
     87  CB        10.1510   39.6730   27.3400 C.3    45  PRO45       0.0310
     88  CG        11.1990   38.6040   26.9700 C.3    45  PRO45       0.0237
     89  CD        10.7540   37.2690   27.5110 C.3    45  PRO45       0.0939
     90  N          7.6810   37.7610   25.9490 N.am   46  ALA46      -0.1964
     91  CA         6.8170   37.6110   24.7830 C.3    46  ALA46       0.1713
     92  C          6.3700   36.1470   24.8320 C.2    46  ALA46       0.2458
     93  O          7.0760   35.3460   25.4090 O.2    46  ALA46      -0.2730
     94  CB         7.6040   37.9040   23.5110 C.3    46  ALA46       0.0333
     95  N          5.2190   35.7940   24.2190 N.am   47  PRO47      -0.2727
     96  CA         4.7310   34.4100   24.3110 C.3    47  PRO47       0.1402
     97  C          5.5530   33.4080   23.4910 C.2    47  PRO47       0.2269
     98  O          5.3880   32.2080   23.6390 O.2    47  PRO47      -0.2865
     99  CB         3.2820   34.4960   23.7670 C.3    47  PRO47       0.0296
    100  CG         2.9740   35.9610   23.5990 C.3    47  PRO47       0.0237
    101  CD         4.3210   36.6190   23.3910 C.3    47  PRO47       0.0939
    102  N          9.8420   31.9570   25.6420 N.3    50  PRO50      -0.2116
    103  CA         9.7780   31.3450   26.9610 C.3    50  PRO50       0.1372
    104  C         11.1860   31.0940   27.4840 C.2    50  PRO50       0.2244
    105  O         12.1170   30.9980   26.6950 O.2    50  PRO50      -0.2868
    106  CB         9.0720   30.0210   26.6900 C.3    50  PRO50       0.0268
    107  CG         9.3280   29.7090   25.2840 C.3    50  PRO50       0.0207
    108  CD         9.5980   30.9720   24.5680 C.3    50  PRO50       0.0892
    109  N         10.3560   42.7440   35.0370 N.3    73  LEU73      -0.1245
    110  CA         9.3510   41.8760   34.4550 C.3    73  LEU73       0.1561
    111  C          8.9890   40.7390   35.4120 C.2    73  LEU73       0.2260
    112  O          7.8100   40.4310   35.6140 O.2    73  LEU73      -0.2867
    113  CB         9.8500   41.3460   33.1070 C.3    73  LEU73       0.0270
    114  CG         9.0150   40.3200   32.3490 C.3    73  LEU73       0.0019
    115  CD1        7.6460   40.8720   32.0040 C.3    73  LEU73       0.0001
    116  CD2        9.7600   39.8720   31.0890 C.3    73  LEU73       0.0001
    117  N          6.6690   35.7900   39.1010 N.3    79  ILE79      -0.1245
    118  CA         7.4620   34.5850   38.9040 C.3    79  ILE79       0.1561
    119  C          8.6320   34.4670   39.8490 C.2    79  ILE79       0.2260
    120  O          8.8780   33.3910   40.3450 O.2    79  ILE79      -0.2867
    121  CB         7.8010   34.3770   37.4240 C.3    79  ILE79       0.0252
    122  CG1        6.5760   33.7210   36.7870 C.3    79  ILE79       0.0019
    123  CG2        9.0630   33.4540   37.2240 C.3    79  ILE79       0.0019
    124  CD1        6.3190   34.1750   35.4640 C.3    79  ILE79       0.0001
    125  N          7.0730   33.2400   42.8670 N.3    82  MET82      -0.1245
    126  CA         6.6780   31.8280   42.7320 C.3    82  MET82       0.1570
    127  C          7.8710   30.8530   42.8410 C.2    82  MET82       0.2261
    128  O          7.7620   29.7810   43.4470 O.2    82  MET82      -0.2867
    129  CB         5.9190   31.6210   41.4180 C.3    82  MET82       0.0387
    130  CG         5.7100   30.1580   41.0260 C.3    82  MET82       0.0595
    131  SD         5.4500   29.8630   39.2450 S.3    82  MET82      -0.1393
    132  CE         3.7470   30.3280   39.1940 C.3    82  MET82       0.0692
    133  N         -3.9670   16.8550   29.2230 N.3   112  ARG112     -0.1245
    134  CA        -2.7160   16.4030   28.5850 C.3   112  ARG112      0.1563
    135  C         -1.7450   15.7690   29.6090 C.2   112  ARG112      0.2260
    136  O         -1.0690   14.7700   29.2850 O.2   112  ARG112     -0.2867
    137  CB        -2.0400   17.4360   27.6500 C.3   112  ARG112      0.0307
    138  CG        -0.9220   16.7590   26.7400 C.3   112  ARG112      0.0489
    139  CD        -0.2520   17.6430   25.6090 C.3   112  ARG112      0.2205
    140  NE         0.8290   18.5390   26.0930 N.pl3 112  ARG112     -0.0865
    141  CZ         2.0870   18.5830   25.6160 C.cat 112  ARG112      0.5346
    142  NH1        2.4780   17.7780   24.6290 N.pl3 112  ARG112      0.1354
    143  NH2        2.9600   19.4490   26.1240 N.pl3 112  ARG112      0.1354
    144  N         -3.8500   27.6350   33.7030 N.3   141  ASP141     -0.1225
    145  CA        -2.4980   28.0250   34.0570 C.3   141  ASP141      0.1805
    146  C         -2.3010   29.5300   34.3210 C.2   141  ASP141      0.2598
    147  O         -1.7090   30.2480   33.5210 O.2   141  ASP141     -0.2718
    148  CB        -1.4740   27.4590   33.0590 C.3   141  ASP141      0.1424
    149  CG        -0.2280   26.8240   33.7770 C.2   141  ASP141      0.3668
    150  OD1        0.2460   25.7770   33.2480 O.co2 141  ASP141     -0.2456
    151  OD2        0.2720   27.3250   34.8560 O.co2 141  ASP141     -0.2456
    152  N         -2.8140   29.9930   35.4560 N.am  142  ASN142     -0.1960
    153  CA        -2.4290   31.2700   36.0440 C.3   142  ASN142      0.1819
    154  C         -2.3720   31.0650   37.5690 C.2   142  ASN142      0.2621
    155  O         -2.7550   30.0060   38.0410 O.2   142  ASN142     -0.2715
    156  CB        -3.4280   32.3470   35.6350 C.3   142  ASN142      0.1195
    157  CG        -4.8140   32.0600   36.1350 C.2   142  ASN142      0.2630
    158  OD1       -5.0340   32.0340   37.3570 O.2   142  ASN142     -0.2716
    159  ND2       -5.7660   31.8310   35.2130 N.am  142  ASN142     -0.0877
    160  N         -1.9010   32.0470   38.3390 N.am  143  HIS143     -0.1973
    161  CA        -1.7220   31.8790   39.8180 C.3   143  HIS143      0.1656
    162  C         -3.0140   31.6800   40.6320 C.2   143  HIS143      0.2291
    163  O         -3.0340   30.8840   41.5740 O.2   143  HIS143     -0.2864
    164  CB        -0.8920   33.0130   40.4450 C.3   143  HIS143      0.0771
    165  CG         0.4710   33.1660   39.8430 C.ar  143  HIS143      0.0820
    166  ND1        0.9030   34.3380   39.2550 N.ar  143  HIS143     -0.2267
    167  CD2        1.4980   32.2910   39.7270 C.ar  143  HIS143      0.1154
    168  CE1        2.1380   34.1780   38.8090 C.ar  143  HIS143      0.1986
    169  NE2        2.5220   32.9440   39.0820 N.ar  143  HIS143     -0.2212
@<TRIPOS>BOND
     1   101   100    1
     2   101    95    1
     3    97    98    2
     4    97    96    1
     5    94    91    1
     6   100    99    1
     7    99    96    1
     8    95    96    1
     9    95    92   am
    10   108   107    1
    11   108   102    1
    12   142   141    1
    13    91    92    1
    14    91    90    1
    15    92    93    2
    16    63    62    1
    17   107   106    1
    18   139   140    1
    19   139   138    1
    20   141   140    2
    21   141   143    1
    22   102   103    1
    23    90    85   am
    24    86    85    2
    25    85    84    1
    26    62    61    1
    27   106   103    1
    28   105   104    2
    29   138   137    1
    30   103   104    1
    31    88    87    1
    32    88    89    1
    33    61    60    1
    34    87    84    1
    35    89    83    1
    36   137   134    1
    37    84    83    1
    38    83    81   am
    39    60    59    1
    40   134   133    1
    41   134   135    1
    42    81    82    2
    43    81    80    1
    44    80    79    1
    45   136   135    2
    46    79    74   am
    47    59    56    1
    48    67    66    2
    49    74    73    1
    50    74    75    2
    51    73    76    1
    52    73    72    1
    53    56    57    1
    54    56    55    1
    55   116   114    1
    56    76    77    1
    57    66    72   am
    58    66    65    1
    59    72    78    1
    60    57    64   am
    61    57    58    2
    62    64    65    1
    63    12    11    1
    64    11     8    1
    65   115   114    1
    66    65    68    1
    67   114   113    1
    68    78    77    1
    69    18    17    1
    70   148   149    1
    71   148   145    1
    72   113   110    1
    73    68    69    1
    74     8     9    1
    75     8     7    1
    76    10     9    2
    77   150   149   ar
    78     9    13   am
    79   147   146    2
    80   144   145    1
    81    53    52    1
    82    54    52    1
    83   149   151   ar
    84    17    14    1
    85    13    14    1
    86   145   146    1
    87    14    15    1
    88   146   152   am
    89     7     3   am
    90    52    51    2
    91   110   109    1
    92   110   111    1
    93    69    70    1
    94    69    71    1
    95     4     3    2
    96     3     2    1
    97   159   157   am
    98   111   112    2
    99   152   153    1
   100   124   122    1
   101    51    50    1
   102   156   153    1
   103   156   157    1
   104    15    16    2
   105    15    19   am
   106   153   154    1
   107   157   158    2
   108     2     5    1
   109     2     1    1
   110    50    49    1
   111    19    20    1
   112   122   121    1
   113     5     6    1
   114    32    31    1
   115    32    33    1
   116   123   121    1
   117   121   118    1
   118    35    33   am
   119    42    41    2
   120   154   155    2
   121   154   160   am
   122    31    28    1
   123    49    48    1
   124    33    34    2
   125    40    41    1
   126    40    37    1
   127    20    23    1
   128    20    21    1
   129   160   161    1
   130    27    21   am
   131    27    28    1
   132    41    43   am
   133    23    24    1
   134    48    45    1
   135    21    22    2
   136   168   169   ar
   137   168   166   ar
   138    28    29    1
   139   118   117    1
   140   118   119    1
   141    36    37    1
   142    36    29   am
   143   169   167   ar
   144    44    45    1
   145    44    38   am
   146   132   131    1
   147   131   130    1
   148   166   165   ar
   149    37    38    1
   150    29    30    2
   151    45    46    1
   152   167   165   ar
   153   161   164    1
   154   161   162    1
   155   165   164    1
   156   119   120    2
   157    38    39    2
   158    24    26   am
   159    24    25    2
   160    46    47    2
   161   162   163    2
   162   130   129    1
   163   129   126    1
   164   126   127    1
   165   126   125    1
   166   127   128    2
