@<TRIPOS>MOLECULE
tmp/3o2xB00.pdb
 225 228 0 0 0
SMALL
GASTEIGER

@<TRIPOS>ATOM
      1  N          5.3100   79.8300   66.2980 N.3    80  GLY80      -0.1210
      2  CA         5.9550   78.6510   66.8720 C.3    80  GLY80       0.1956
      3  C          7.0980   79.0390   67.7900 C.2    80  GLY80       0.2612
      4  O          6.9040   79.8230   68.7190 O.2    80  GLY80      -0.2717
      5  N          8.2890   78.4960   67.5340 N.am   81  LEU81      -0.1965
      6  CA         9.4650   78.8120   68.3430 C.3    81  LEU81       0.1728
      7  C          9.8480   80.2700   68.1190 C.2    81  LEU81       0.2616
      8  O         10.0040   80.6910   66.9760 O.2    81  LEU81      -0.2715
      9  CB        10.6590   77.9240   67.9710 C.3    81  LEU81       0.0311
     10  CG        10.5450   76.4010   68.0900 C.3    81  LEU81       0.0022
     11  CD1       11.7670   75.7450   67.4420 C.3    81  LEU81       0.0001
     12  CD2       10.4030   75.9650   69.5350 C.3    81  LEU81       0.0001
     13  N         10.0010   81.0230   69.2060 N.am   82  LEU82      -0.1963
     14  CA        10.3540   82.4470   69.1360 C.3    82  LEU82       0.1728
     15  C         11.8320   82.6790   69.4330 C.2    82  LEU82       0.2616
     16  O         12.4670   83.5480   68.8340 O.2    82  LEU82      -0.2715
     17  CB         9.5040   83.2530   70.1280 C.3    82  LEU82       0.0311
     18  CG         7.9830   83.0860   70.0280 C.3    82  LEU82       0.0022
     19  CD1        7.2840   83.7830   71.1940 C.3    82  LEU82       0.0001
     20  CD2        7.4750   83.6110   68.6910 C.3    82  LEU82       0.0001
     21  N         12.3720   81.9090   70.3730 N.am   83  ALA83      -0.1963
     22  CA        13.7370   82.0980   70.8360 C.3    83  ALA83       0.1728
     23  C         14.1540   80.9520   71.7450 C.2    83  ALA83       0.2616
     24  O         13.3190   80.1780   72.2190 O.2    83  ALA83      -0.2715
     25  CB        13.8660   83.4320   71.5810 C.3    83  ALA83       0.0334
     26  N         15.4530   80.8360   71.9790 N.am   84  HIS84      -0.1973
     27  CA        15.9510   79.9400   73.0130 C.3    84  HIS84       0.1656
     28  C         17.2810   80.4300   73.5310 C.2    84  HIS84       0.2291
     29  O         17.9520   81.2260   72.8830 O.2    84  HIS84      -0.2864
     30  CB        16.0560   78.4860   72.5290 C.3    84  HIS84       0.0771
     31  CG        16.8590   78.3040   71.2770 C.ar   84  HIS84       0.0820
     32  ND1       16.3780   77.6020   70.1930 N.ar   84  HIS84      -0.2267
     33  CD2       18.1040   78.7180   70.9340 C.ar   84  HIS84       0.1154
     34  CE1       17.2890   77.5920   69.2370 C.ar   84  HIS84       0.1986
     35  NE2       18.3480   78.2570   69.6620 N.ar   84  HIS84      -0.2212
     36  N          9.8040   91.3820   76.2670 N.3   115  LEU115     -0.1231
     37  CA         9.2040   90.3100   77.0660 C.3   115  LEU115      0.1693
     38  C          9.8490   88.9640   76.7880 C.2   115  LEU115      0.2591
     39  O         10.1370   88.2030   77.7140 O.2   115  LEU115     -0.2718
     40  CB         7.7020   90.2120   76.8080 C.3   115  LEU115      0.0284
     41  CG         6.8620   91.3690   77.3370 C.3   115  LEU115      0.0019
     42  CD1        5.4680   91.3040   76.7530 C.3   115  LEU115      0.0001
     43  CD2        6.8130   91.3550   78.8620 C.3   115  LEU115      0.0001
     44  N         10.0600   88.6650   75.5110 N.am  116  VAL116     -0.1980
     45  CA        10.7220   87.4250   75.1260 C.3   116  VAL116      0.1595
     46  C         12.1630   87.4100   75.6410 C.2   116  VAL116      0.2287
     47  O         12.6120   86.4020   76.1870 O.2   116  VAL116     -0.2864
     48  CB        10.6810   87.1950   73.5940 C.3   116  VAL116      0.0276
     49  CG1       11.5190   85.9790   73.2100 C.3   116  VAL116      0.0022
     50  CG2        9.2360   87.0040   73.1260 C.3   116  VAL116      0.0022
     51  N         12.4660   86.7640   79.4620 N.3   119  HIS119     -0.1226
     52  CA        12.3100   85.3190   79.6330 C.3   119  HIS119      0.1752
     53  C         13.6000   84.5780   79.2590 C.2   119  HIS119      0.2595
     54  O         14.1010   83.7620   80.0380 O.2   119  HIS119     -0.2718
     55  CB        11.1300   84.8280   78.7850 C.3   119  HIS119      0.0759
     56  CG        10.9730   83.3400   78.7470 C.ar  119  HIS119      0.0818
     57  ND1        9.9900   82.6800   79.4500 N.ar  119  HIS119     -0.2268
     58  CD2       11.6540   82.3860   78.0670 C.ar  119  HIS119      0.1154
     59  CE1       10.0780   81.3830   79.2130 C.ar  119  HIS119      0.1986
     60  NE2       11.0760   81.1790   78.3730 N.ar  119  HIS119     -0.2212
     61  N         14.1400   84.8710   78.0760 N.am  120  GLU120     -0.1979
     62  CA        15.3380   84.1740   77.5940 C.3   120  GLU120      0.1602
     63  C         16.5360   84.3950   78.5110 C.2   120  GLU120      0.2287
     64  O         17.2700   83.4530   78.8210 O.2   120  GLU120     -0.2864
     65  CB        15.6850   84.5880   76.1590 C.3   120  GLU120      0.0415
     66  CG        14.6430   84.1620   75.1220 C.3   120  GLU120      0.1163
     67  CD        14.3460   82.6750   75.1730 C.2   120  GLU120      0.3649
     68  OE1       15.3050   81.8870   75.3190 O.co2 120  GLU120     -0.2457
     69  OE2       13.1580   82.3000   75.0800 O.co2 120  GLU120     -0.2457
     70  N         16.7710   82.1250   81.2900 N.3   123  HIS123     -0.1241
     71  CA        17.4980   80.9070   80.9180 C.3   123  HIS123      0.1621
     72  C         19.0090   81.1470   80.9650 C.2   123  HIS123      0.2264
     73  O         19.7480   80.3250   81.4930 O.2   123  HIS123     -0.2867
     74  CB        17.1300   80.3950   79.5160 C.3   123  HIS123      0.0745
     75  CG        15.7110   79.9340   79.3640 C.ar  123  HIS123      0.0817
     76  ND1       15.0610   79.1760   80.3130 N.ar  123  HIS123     -0.2268
     77  CD2       14.8370   80.0790   78.3380 C.ar  123  HIS123      0.1154
     78  CE1       13.8410   78.8960   79.8920 C.ar  123  HIS123      0.1986
     79  NE2       13.6770   79.4340   78.6970 N.ar  123  HIS123     -0.2212
     80  N         12.1120   76.3850   82.7770 N.3   129  HIS129     -0.1241
     81  CA        10.7280   76.8430   82.7220 C.3   129  HIS129      0.1621
     82  C          9.9640   76.6230   84.0190 C.2   129  HIS129      0.2264
     83  O         10.1870   75.6470   84.7360 O.2   129  HIS129     -0.2867
     84  CB         9.9840   76.1880   81.5610 C.3   129  HIS129      0.0745
     85  CG        10.4480   76.6590   80.2220 C.ar  129  HIS129      0.0817
     86  ND1       10.8450   75.7990   79.2230 N.ar  129  HIS129     -0.2268
     87  CD2       10.6040   77.9090   79.7270 C.ar  129  HIS129      0.1154
     88  CE1       11.2130   76.4980   78.1650 C.ar  129  HIS129      0.1986
     89  NE2       11.0830   77.7820   78.4480 N.ar  129  HIS129     -0.2212
     90  N          1.5390   82.3620   85.6800 N.3   134  GLY134     -0.1210
     91  CA         1.7990   83.7950   85.8280 C.3   134  GLY134      0.1956
     92  C          3.2710   84.1840   85.8330 C.2   134  GLY134      0.2612
     93  O          3.5940   85.3670   85.9350 O.2   134  GLY134     -0.2717
     94  N          4.1630   83.2000   85.7320 N.am  135  ALA135     -0.1965
     95  CA         5.6040   83.4540   85.7740 C.3   135  ALA135      0.1728
     96  C          6.1480   83.9070   84.4210 C.2   135  ALA135      0.2616
     97  O          5.6830   83.4680   83.3660 O.2   135  ALA135     -0.2715
     98  CB         6.3460   82.2100   86.2390 C.3   135  ALA135      0.0334
     99  N          7.1430   84.7890   84.4630 N.am  136  LEU136     -0.1977
    100  CA         7.9010   85.1670   83.2730 C.3   136  LEU136      0.1596
    101  C          8.5240   83.9400   82.6030 C.2   136  LEU136      0.2287
    102  O          8.5880   83.8620   81.3780 O.2   136  LEU136     -0.2864
    103  CB         8.9960   86.1670   83.6480 C.3   136  LEU136      0.0297
    104  CG         9.9520   86.6440   82.5540 C.3   136  LEU136      0.0022
    105  CD1        9.1990   87.2730   81.3850 C.3   136  LEU136      0.0001
    106  CD2       10.9430   87.6260   83.1550 C.3   136  LEU136      0.0001
    107  N          7.2940   81.0330   82.3920 N.3   138  PHE138     -0.1228
    108  CA         6.2940   80.1420   81.8090 C.3   138  PHE138      0.1721
    109  C          6.4840   80.1180   80.2840 C.2   138  PHE138      0.2437
    110  O          6.6640   81.1700   79.6730 O.2   138  PHE138     -0.2733
    111  CB         4.8900   80.6180   82.1790 C.3   138  PHE138      0.0547
    112  CG         3.8210   79.5880   81.9670 C.ar  138  PHE138     -0.0202
    113  CD1        3.7820   78.4380   82.7460 C.ar  138  PHE138     -0.0042
    114  CD2        2.8330   79.7790   81.0100 C.ar  138  PHE138     -0.0042
    115  CE1        2.7840   77.4870   82.5660 C.ar  138  PHE138     -0.0003
    116  CE2        1.8320   78.8310   80.8230 C.ar  138  PHE138     -0.0003
    117  CZ         1.8100   77.6850   81.6000 C.ar  138  PHE138     -0.0000
    118  N          6.4590   78.9220   79.6620 N.am  139  PRO139     -0.2718
    119  CA         6.8330   78.8100   78.2460 C.3   139  PRO139      0.1535
    120  C          5.7200   79.0930   77.2100 C.2   139  PRO139      0.2598
    121  O          5.7620   78.5450   76.1130 O.2   139  PRO139     -0.2715
    122  CB         7.3160   77.3580   78.1420 C.3   139  PRO139      0.0310
    123  CG         6.5260   76.6310   79.1430 C.3   139  PRO139      0.0237
    124  CD         6.2640   77.5950   80.2760 C.3   139  PRO139      0.0939
    125  N          4.7520   79.9420   77.5470 N.am  140  ILE140     -0.1964
    126  CA         3.6910   80.3260   76.6130 C.3   140  ILE140      0.1727
    127  C          3.6230   81.8500   76.5310 C.2   140  ILE140      0.2616
    128  O          3.5510   82.5270   77.5590 O.2   140  ILE140     -0.2715
    129  CB         2.3150   79.7790   77.0540 C.3   140  ILE140      0.0290
    130  CG1        2.3180   78.2450   77.0730 C.3   140  ILE140      0.0022
    131  CG2        1.2180   80.2860   76.1240 C.3   140  ILE140      0.0023
    132  CD1        1.0350   77.6300   77.6160 C.3   140  ILE140      0.0001
    133  N          3.6540   82.3890   75.3140 N.am  141  TYR141     -0.1960
    134  CA         3.6420   83.8410   75.1280 C.3   141  TYR141      0.1771
    135  C          2.2320   84.4360   75.2300 C.2   141  TYR141      0.2620
    136  O          1.3240   84.0500   74.4930 O.2   141  TYR141     -0.2715
    137  CB         4.2720   84.2300   73.7870 C.3   141  TYR141      0.0574
    138  CG         4.3350   85.7280   73.5670 C.ar  141  TYR141     -0.0198
    139  CD1        5.4690   86.4590   73.9150 C.ar  141  TYR141     -0.0009
    140  CD2        3.2570   86.4160   73.0120 C.ar  141  TYR141     -0.0009
    141  CE1        5.5260   87.8390   73.7140 C.ar  141  TYR141      0.0417
    142  CE2        3.3030   87.7900   72.8120 C.ar  141  TYR141      0.0417
    143  CZ         4.4360   88.4950   73.1630 C.ar  141  TYR141      0.1957
    144  OH         4.4770   89.8550   72.9560 O.3   141  TYR141     -0.2866
    145  N          2.0750   85.3750   76.1570 N.am  142  THR142     -0.1937
    146  CA         0.8780   86.2150   76.2700 C.3   142  THR142      0.2028
    147  C          1.3790   87.6320   76.5090 C.2   142  THR142      0.2642
    148  O          2.3720   87.8100   77.2100 O.2   142  THR142     -0.2714
    149  CB        -0.0310   85.7670   77.4280 C.3   142  THR142      0.1808
    150  OG1        0.7580   85.5320   78.6050 O.3   142  THR142     -0.2208
    151  CG2       -0.7770   84.4930   77.0550 C.3   142  THR142      0.0379
    152  N          0.7270   88.6380   75.9260 N.am  143  TYR143     -0.1959
    153  CA         1.3580   89.9670   75.8460 C.3   143  TYR143      0.1771
    154  C          1.7690   90.5640   77.2110 C.2   143  TYR143      0.2620
    155  O          2.9620   90.7620   77.4290 O.2   143  TYR143     -0.2715
    156  CB         0.5600   90.9630   74.9860 C.3   143  TYR143      0.0574
    157  CG         1.1620   92.3510   74.9910 C.ar  143  TYR143     -0.0198
    158  CD1        0.4130   93.4540   75.3750 C.ar  143  TYR143     -0.0009
    159  CD2        2.4980   92.5530   74.6410 C.ar  143  TYR143     -0.0009
    160  CE1        0.9650   94.7240   75.3930 C.ar  143  TYR143      0.0417
    161  CE2        3.0610   93.8230   74.6600 C.ar  143  TYR143      0.0417
    162  CZ         2.2860   94.9020   75.0370 C.ar  143  TYR143      0.1957
    163  OH         2.8270   96.1650   75.0580 O.3   143  TYR143     -0.2866
    164  N          0.8500   90.8290   78.1390 N.am  144  THR144     -0.1937
    165  CA        -0.5920   90.6660   77.9760 C.3   144  THR144      0.2028
    166  C         -1.4620   91.9510   77.9430 C.2   144  THR144      0.2643
    167  O         -2.5240   91.9030   77.3240 O.2   144  THR144     -0.2714
    168  CB        -1.1600   89.7370   79.0780 C.3   144  THR144      0.1808
    169  OG1       -0.1870   88.7420   79.4220 O.3   144  THR144     -0.2208
    170  CG2       -2.4440   89.0500   78.5980 C.3   144  THR144      0.0379
    171  N         -1.0830   93.0940   78.5350 N.am  145  GLY145     -0.1939
    172  CA         0.2410   93.4260   79.0760 C.3   145  GLY145      0.2014
    173  C          0.6360   92.8690   80.4370 C.2   145  GLY145      0.2639
    174  O          1.5680   92.0670   80.5070 O.2   145  GLY145     -0.2714
    175  N         -0.0300   93.2720   81.5240 N.am  146  LYS146     -0.1963
    176  CA        -1.2200   94.1410   81.5160 C.3   146  LYS146      0.1728
    177  C         -0.9240   95.6480   81.6030 C.2   146  LYS146      0.2617
    178  O         -1.7420   96.4610   81.1580 O.2   146  LYS146     -0.2715
    179  CB        -2.1480   93.7510   82.6700 C.3   146  LYS146      0.0311
    180  CG        -2.7430   92.3440   82.6900 C.3   146  LYS146      0.0038
    181  CD        -3.6430   92.3170   81.4690 C.3   146  LYS146      0.0206
    182  CE        -4.7470   91.3510   81.7120 C.3   146  LYS146      0.1093
    183  NZ        -5.6390   91.1280   80.5350 N.3   146  LYS146     -0.1314
    184  N          0.2190   96.0180   82.1870 N.am  147  SER147     -0.1936
    185  CA         0.6030   97.4320   82.3520 C.3   147  SER147      0.2055
    186  C          2.1300   97.6040   82.2290 C.2   147  SER147      0.2643
    187  O          2.7070   97.2410   81.1990 O.2   147  SER147     -0.2714
    188  CB         0.0790   97.9650   83.6930 C.3   147  SER147      0.2130
    189  OG        -1.3210   97.7880   83.8030 O.3   147  SER147     -0.2179
    190  N          2.7740   98.1730   83.2520 N.am  148  HIS148     -0.1959
    191  CA         4.2410   98.1940   83.3400 C.3   148  HIS148      0.1787
    192  C          4.7290   96.9350   84.0650 C.2   148  HIS148      0.2620
    193  O          3.9220   96.1800   84.6190 O.2   148  HIS148     -0.2715
    194  CB         4.7510   99.4720   84.0290 C.3   148  HIS148      0.0785
    195  CG         4.1940   99.6990   85.4020 C.ar  148  HIS148      0.0821
    196  ND1        4.8190   99.2480   86.5450 N.ar  148  HIS148     -0.2267
    197  CD2        3.0780  100.3470   85.8140 C.ar  148  HIS148      0.1154
    198  CE1        4.1080   99.6020   87.6020 C.ar  148  HIS148      0.1986
    199  NE2        3.0460  100.2680   87.1860 N.ar  148  HIS148     -0.2212
    200  N          6.0420   96.7150   84.0650 N.am  149  PHE149     -0.1960
    201  CA         6.6010   95.4190   84.4600 C.3   149  PHE149      0.1771
    202  C          6.9480   95.2790   85.9440 C.2   149  PHE149      0.2619
    203  O          7.5570   96.1700   86.5410 O.2   149  PHE149     -0.2715
    204  CB         7.8460   95.1050   83.6330 C.3   149  PHE149      0.0574
    205  CG         8.2930   93.6780   83.7470 C.ar  149  PHE149     -0.0200
    206  CD1        7.7610   92.7050   82.9140 C.ar  149  PHE149     -0.0042
    207  CD2        9.2310   93.3040   84.6980 C.ar  149  PHE149     -0.0042
    208  CE1        8.1630   91.3860   83.0180 C.ar  149  PHE149     -0.0003
    209  CE2        9.6370   91.9850   84.8100 C.ar  149  PHE149     -0.0003
    210  CZ         9.1020   91.0240   83.9660 C.ar  149  PHE149     -0.0000
    211  N          6.5480   94.1440   86.5170 N.am  150  MET150     -0.1977
    212  CA         7.0120   93.6910   87.8280 C.3   150  MET150      0.1605
    213  C          7.2690   92.1890   87.7240 C.2   150  MET150      0.2287
    214  O          6.4110   91.4500   87.2410 O.2   150  MET150     -0.2864
    215  CB         5.9620   93.9520   88.9090 C.3   150  MET150      0.0413
    216  CG         6.3900   93.5210   90.3160 C.3   150  MET150      0.0598
    217  SD         5.0070   93.3860   91.4720 S.3   150  MET150     -0.1393
    218  CE         5.8760   93.1480   93.0200 C.3   150  MET150      0.0692
    219  N          7.2090   88.5020   88.5880 N.3   152  PRO152     -0.2116
    220  CA         6.3780   87.6580   89.4530 C.3   152  PRO152      0.1372
    221  C          7.1680   86.9090   90.5260 C.2   152  PRO152      0.2244
    222  O          8.3580   86.6480   90.3480 O.2   152  PRO152     -0.2868
    223  CB         5.7410   86.6680   88.4710 C.3   152  PRO152      0.0268
    224  CG         5.7630   87.3610   87.1670 C.3   152  PRO152      0.0207
    225  CD         7.0110   88.1730   87.1640 C.3   152  PRO152      0.0892
@<TRIPOS>BOND
     1     1     2    1
     2     2     3    1
     3     8     7    2
     4    11    10    1
     5     5     3   am
     6     5     6    1
     7     3     4    2
     8     9    10    1
     9     9     6    1
    10    10    12    1
    11     7     6    1
    12     7    13   am
    13    20    18    1
    14    16    15    2
    15    14    13    1
    16    14    15    1
    17    14    17    1
    18    34    35   ar
    19    34    32   ar
    20    15    21   am
    21    35    33   ar
    22    18    17    1
    23    18    19    1
    24    32    31   ar
    25    21    22    1
    26    22    25    1
    27    22    23    1
    28    33    31   ar
    29    31    30    1
    30    23    26   am
    31    23    24    2
    32    26    27    1
    33    30    27    1
    34   142   140   ar
    35   142   143   ar
    36    29    28    2
    37   144   143    1
    38   140   138   ar
    39    27    28    1
    40    50    48    1
    41   143   141   ar
    42    49    48    1
    43   138   137    1
    44   138   139   ar
    45    48    45    1
    46   141   139   ar
    47   137   134    1
    48   136   135    2
    49   159   161   ar
    50   159   157   ar
    51   161   162   ar
    52   156   157    1
    53   156   153    1
    54   157   158   ar
    55   162   163    1
    56   162   160   ar
    57    69    67   ar
    58    66    67    1
    59    66    65    1
    60    45    44    1
    61    45    46    1
    62   134   135    1
    63   134   133    1
    64    67    68   ar
    65   135   145   am
    66   133   127   am
    67   158   160   ar
    68    44    38   am
    69    46    47    2
    70   153   152    1
    71   153   154    1
    72   152   147   am
    73   121   120    2
    74   131   129    1
    75   145   146    1
    76    65    62    1
    77    36    37    1
    78   146   147    1
    79   146   149    1
    80   147   148    2
    81   127   126    1
    82   127   128    2
    83   126   129    1
    84   126   125    1
    85    42    41    1
    86    38    37    1
    87    38    39    2
    88    40    37    1
    89    40    41    1
    90   129   130    1
    91   151   149    1
    92   130   132    1
    93   120   125   am
    94   120   119    1
    95   154   155    2
    96   154   164   am
    97   167   166    2
    98    41    43    1
    99   149   150    1
   100    62    61    1
   101    62    63    1
   102   166   165    1
   103   166   171   am
   104   165   164    1
   105   165   168    1
   106    58    60   ar
   107    58    56   ar
   108    61    53   am
   109   122   119    1
   110   122   123    1
   111    88    89   ar
   112    88    86   ar
   113   119   118    1
   114    77    79   ar
   115    77    75   ar
   116    60    59   ar
   117    89    87   ar
   118    63    64    2
   119   171   172    1
   120   170   168    1
   121    79    78   ar
   122    56    55    1
   123    56    57   ar
   124    55    52    1
   125   172   173    1
   126   168   169    1
   127   123   124    1
   128    59    57   ar
   129    86    85   ar
   130    53    52    1
   131    53    54    2
   132    75    74    1
   133    75    76   ar
   134    51    52    1
   135    74    71    1
   136   118   124    1
   137   118   109   am
   138   110   109    2
   139    87    85   ar
   140    78    76   ar
   141    85    84    1
   142   109   108    1
   143   173   174    2
   144   173   175   am
   145   183   182    1
   146   116   114   ar
   147   116   117   ar
   148    71    72    1
   149    71    70    1
   150    72    73    2
   151   114   112   ar
   152   178   177    2
   153   187   186    2
   154   102   101    2
   155   105   104    1
   156   181   182    1
   157   181   180    1
   158   176   175    1
   159   176   177    1
   160   176   179    1
   161    84    81    1
   162   117   115   ar
   163   177   184   am
   164   108   111    1
   165   108   107    1
   166   112   111    1
   167   112   113   ar
   168   184   185    1
   169   186   185    1
   170   186   190   am
   171   185   188    1
   172   104   106    1
   173   104   103    1
   174   115   113   ar
   175   101   100    1
   176   179   180    1
   177    81    80    1
   178    81    82    1
   179   206   208   ar
   180   206   205   ar
   181   208   210   ar
   182   190   191    1
   183   100   103    1
   184   100    99    1
   185   191   194    1
   186   191   192    1
   187    97    96    2
   188   204   205    1
   189   204   201    1
   190   188   189    1
   191   205   207   ar
   192   210   209   ar
   193    82    83    2
   194   194   195    1
   195   192   200   am
   196   192   193    2
   197   200   201    1
   198    96    99   am
   199    96    95    1
   200   201   202    1
   201   207   209   ar
   202   195   197   ar
   203   195   196   ar
   204    90    91    1
   205    94    95    1
   206    94    92   am
   207    95    98    1
   208   197   199   ar
   209    91    92    1
   210    92    93    2
   211   202   211   am
   212   202   203    2
   213   211   212    1
   214   196   198   ar
   215   225   224    1
   216   225   219    1
   217   224   223    1
   218   199   198   ar
   219   214   213    2
   220   213   212    1
   221   212   215    1
   222   223   220    1
   223   219   220    1
   224   215   216    1
   225   220   221    1
   226   216   217    1
   227   222   221    2
   228   217   218    1
