@<TRIPOS>MOLECULE
tmp/3o2yA01.pdb
 191 182 0 0 0
SMALL
GASTEIGER

@<TRIPOS>ATOM
      1  N         -5.4430  -25.8480   -8.5960 N.3    23  ASN23      -0.1225
      2  CA        -6.4200  -26.5810   -9.4330 C.3    23  ASN23       0.1785
      3  C         -7.8090  -26.7860   -8.7960 C.2    23  ASN23       0.2597
      4  O         -8.7310  -27.2960   -9.4850 O.2    23  ASN23      -0.2718
      5  CB        -5.8100  -27.9260   -9.8510 C.3    23  ASN23       0.1169
      6  CG        -5.5900  -28.8720   -8.7100 C.2    23  ASN23       0.2627
      7  OD1       -5.7040  -28.5170   -7.5500 O.2    23  ASN23      -0.2716
      8  ND2       -5.2190  -30.1220   -9.0470 N.am   23  ASN23      -0.0877
      9  N         -7.9520  -26.3640   -7.5340 N.am   24  SER24      -0.1952
     10  CA        -9.2290  -26.3760   -6.8060 C.3    24  SER24       0.1924
     11  C         -9.8910  -24.9930   -6.9610 C.2    24  SER24       0.2314
     12  O         -9.3900  -24.0440   -6.3330 O.2    24  SER24      -0.2863
     13  CB        -8.9850  -26.6450   -5.3290 C.3    24  SER24       0.2116
     14  OG       -10.1970  -26.5150   -4.6470 O.3    24  SER24      -0.2180
     15  N        -12.7690  -24.3100   -5.7960 N.3    26  TRP26      -0.1227
     16  CA       -13.3410  -24.0710   -4.4550 C.3    26  TRP26       0.1737
     17  C        -12.3340  -23.3880   -3.5160 C.2    26  TRP26       0.2595
     18  O        -12.6590  -22.3810   -2.8810 O.2    26  TRP26      -0.2718
     19  CB       -13.7970  -25.3760   -3.8380 C.3    26  TRP26       0.0564
     20  CG       -14.3980  -25.2090   -2.5150 C.ar   26  TRP26       0.0003
     21  CD1      -15.6630  -24.8530   -2.2640 C.ar   26  TRP26       0.0946
     22  CD2      -13.7650  -25.4130   -1.2600 C.ar   26  TRP26       0.0152
     23  NE1      -15.8910  -24.8510   -0.8850 N.ar   26  TRP26      -0.2442
     24  CE2      -14.7350  -25.1650   -0.2570 C.ar   26  TRP26       0.0810
     25  CE3      -12.4810  -25.8120   -0.8740 C.ar   26  TRP26       0.0012
     26  CZ2      -14.4610  -25.3020    1.1130 C.ar   26  TRP26       0.0191
     27  CZ3      -12.1890  -25.9140    0.5050 C.ar   26  TRP26       0.0001
     28  CH2      -13.2020  -25.6450    1.4690 C.ar   26  TRP26       0.0015
     29  N        -11.1080  -23.9250   -3.4440 N.am   27  LEU27      -0.1980
     30  CA       -10.0760  -23.3180   -2.5810 C.3    27  LEU27       0.1596
     31  C         -9.7530  -21.8990   -3.0060 C.2    27  LEU27       0.2287
     32  O         -9.6910  -21.0180   -2.1250 O.2    27  LEU27      -0.2864
     33  CB        -8.7780  -24.1390   -2.5190 C.3    27  LEU27       0.0297
     34  CG        -7.7490  -23.5930   -1.5230 C.3    27  LEU27       0.0022
     35  CD1       -8.4060  -23.6780   -0.2300 C.3    27  LEU27       0.0001
     36  CD2       -6.5940  -24.4350   -1.4740 C.3    27  LEU27       0.0001
     37  N        -10.5050  -18.7000   -0.4610 N.3    31  LYS31      -0.1245
     38  CA        -9.3590  -17.8700   -0.0870 C.3    31  LYS31       0.1561
     39  C         -9.5460  -16.4140   -0.5450 C.2    31  LYS31       0.2260
     40  O         -9.2130  -15.4520    0.2130 O.2    31  LYS31      -0.2867
     41  CB        -8.0250  -18.4050   -0.6160 C.3    31  LYS31       0.0271
     42  CG        -7.7060  -19.8030   -0.1310 C.3    31  LYS31       0.0035
     43  CD        -6.7280  -19.8030    0.9420 C.3    31  LYS31       0.0206
     44  CE        -6.3620  -21.2290    1.3560 C.3    31  LYS31       0.1093
     45  NZ        -5.7840  -21.0840    2.7340 N.3    31  LYS31      -0.1314
     46  N          3.6160  -22.6950   10.3570 N.3    51  LEU51      -0.1245
     47  CA         3.2220  -21.6190    9.4490 C.3    51  LEU51       0.1561
     48  C          1.8560  -21.0830    9.8780 C.2    51  LEU51       0.2260
     49  O          0.8540  -21.8270    9.7790 O.2    51  LEU51      -0.2867
     50  CB         3.1590  -22.1410    8.0360 C.3    51  LEU51       0.0270
     51  CG         2.5140  -21.2430    6.9640 C.3    51  LEU51       0.0019
     52  CD1        3.3780  -19.9580    6.7870 C.3    51  LEU51       0.0001
     53  CD2        2.4320  -21.9860    5.6220 C.3    51  LEU51       0.0001
     54  N         -1.1600  -18.2490    9.7030 N.3    53  SER53      -0.1217
     55  CA        -1.7300  -17.2300    8.8580 C.3    53  SER53       0.1889
     56  C         -2.8430  -16.5450    9.7050 C.2    53  SER53       0.2288
     57  O         -3.7060  -17.2110   10.2440 O.2    53  SER53      -0.2866
     58  CB        -2.3400  -17.8960    7.6800 C.3    53  SER53       0.2089
     59  OG        -2.9700  -16.9020    6.8570 O.3    53  SER53      -0.2183
     60  N         -0.4200  -24.1990   10.5590 N.3    66  MET66      -0.1245
     61  CA        -0.1090  -25.4730    9.9250 C.3    66  MET66       0.1570
     62  C          1.2640  -25.9280   10.3690 C.2    66  MET66       0.2261
     63  O          2.2360  -25.2020   10.2370 O.2    66  MET66      -0.2867
     64  CB        -0.1320  -25.2730    8.4060 C.3    66  MET66       0.0387
     65  CG        -1.5670  -24.8000    7.9990 C.3    66  MET66       0.0595
     66  SD        -1.6460  -24.5380    6.2610 S.3    66  MET66      -0.1393
     67  CE        -1.9650  -26.1930    5.7040 C.3    66  MET66       0.0692
     68  N          4.3780  -27.8900    9.5440 N.3    68  LEU68      -0.1245
     69  CA         5.0440  -28.4150    8.3480 C.3    68  LEU68       0.1561
     70  C          6.1670  -29.3120    8.9010 C.2    68  LEU68       0.2260
     71  O          7.2100  -28.8140    9.3830 O.2    68  LEU68      -0.2867
     72  CB         5.6330  -27.2980    7.4630 C.3    68  LEU68       0.0270
     73  CG         4.5640  -26.3440    6.9250 C.3    68  LEU68       0.0019
     74  CD1        5.2390  -25.2460    6.1090 C.3    68  LEU68       0.0001
     75  CD2        3.4880  -27.0940    6.1290 C.3    68  LEU68       0.0001
     76  N          2.3390  -31.9410    5.4150 N.3    79  TYR79      -0.1241
     77  CA         1.2870  -31.4260    6.2920 C.3    79  TYR79       0.1605
     78  C          0.1720  -32.4660    6.3070 C.2    79  TYR79       0.2264
     79  O         -0.2720  -32.9230    5.2450 O.2    79  TYR79      -0.2867
     80  CB         0.7470  -30.1190    5.7470 C.3    79  TYR79       0.0534
     81  CG        -0.4940  -29.6950    6.5060 C.ar   79  TYR79      -0.0201
     82  CD1       -0.3990  -29.3090    7.8330 C.ar   79  TYR79      -0.0009
     83  CD2       -1.7420  -29.7090    5.8910 C.ar   79  TYR79      -0.0009
     84  CE1       -1.5390  -28.9340    8.5490 C.ar   79  TYR79       0.0417
     85  CE2       -2.8680  -29.3300    6.5790 C.ar   79  TYR79       0.0417
     86  CZ        -2.7580  -28.9530    7.8950 C.ar   79  TYR79       0.1957
     87  OH        -3.8880  -28.5680    8.5720 O.3    79  TYR79      -0.2866
     88  N         -9.3870  -33.1310    6.2770 N.3    84  TRP84      -0.1241
     89  CA        -9.4620  -33.5580    4.8880 C.3    84  TRP84       0.1605
     90  C         -9.0710  -35.0060    4.7000 C.2    84  TRP84       0.2264
     91  O         -9.0150  -35.4760    3.5640 O.2    84  TRP84      -0.2867
     92  CB        -8.5760  -32.6690    4.0290 C.3    84  TRP84       0.0550
     93  CG        -9.1290  -31.2820    3.8900 C.ar   84  TRP84       0.0003
     94  CD1       -8.7850  -30.1770    4.6250 C.ar   84  TRP84       0.0946
     95  CD2      -10.1420  -30.8620    2.9790 C.ar   84  TRP84       0.0152
     96  NE1       -9.5220  -29.0770    4.2110 N.ar   84  TRP84      -0.2442
     97  CE2      -10.3650  -29.4760    3.2050 C.ar   84  TRP84       0.0810
     98  CE3      -10.8810  -31.5220    1.9800 C.ar   84  TRP84       0.0012
     99  CZ2      -11.2920  -28.7380    2.4750 C.ar   84  TRP84       0.0191
    100  CZ3      -11.8070  -30.7960    1.2560 C.ar   84  TRP84       0.0001
    101  CH2      -12.0070  -29.4090    1.5070 C.ar   84  TRP84       0.0015
    102  N         -0.1890  -33.8490    2.6260 N.3    88  TYR88      -0.1241
    103  CA         0.1810  -33.0090    1.4940 C.3    88  TYR88       0.1605
    104  C          1.6730  -32.6890    1.6120 C.2    88  TYR88       0.2264
    105  O          2.1670  -32.4050    2.7190 O.2    88  TYR88      -0.2867
    106  CB        -0.5110  -31.6660    1.5750 C.3    88  TYR88       0.0534
    107  CG        -1.9840  -31.7500    1.5540 C.ar   88  TYR88      -0.0201
    108  CD1       -2.6790  -31.5720    0.3470 C.ar   88  TYR88      -0.0009
    109  CD2       -2.7010  -31.9990    2.7080 C.ar   88  TYR88      -0.0009
    110  CE1       -4.0460  -31.6680    0.2990 C.ar   88  TYR88       0.0417
    111  CE2       -4.0610  -32.0930    2.6630 C.ar   88  TYR88       0.0417
    112  CZ        -4.7310  -31.8880    1.4790 C.ar   88  TYR88       0.1957
    113  OH        -6.0990  -32.0710    1.4630 O.3    88  TYR88      -0.2866
    114  N          4.6890  -30.1700    0.9310 N.3    90  VAL90      -0.1245
    115  CA         4.7830  -28.6910    0.8270 C.3    90  VAL90       0.1561
    116  C          6.2520  -28.3490    0.7120 C.2    90  VAL90       0.2260
    117  O          7.0280  -28.7210    1.5660 O.2    90  VAL90      -0.2867
    118  CB         4.2450  -28.0500    2.1610 C.3    90  VAL90       0.0252
    119  CG1        4.3860  -26.4750    2.1200 C.3    90  VAL90       0.0019
    120  CG2        2.7630  -28.4070    2.3800 C.3    90  VAL90       0.0019
    121  N          5.9870  -21.4810   -2.6620 N.3   103  LEU103     -0.1245
    122  CA         5.7420  -22.7760   -2.0440 C.3   103  LEU103      0.1561
    123  C          4.8830  -23.5860   -2.9730 C.2   103  LEU103      0.2260
    124  O          3.9630  -23.0690   -3.5900 O.2   103  LEU103     -0.2867
    125  CB         5.0650  -22.6280   -0.6990 C.3   103  LEU103      0.0270
    126  CG         6.0220  -22.5100    0.5060 C.3   103  LEU103      0.0019
    127  CD1        6.9600  -21.2570    0.4410 C.3   103  LEU103      0.0001
    128  CD2        5.2420  -22.5910    1.8240 C.3   103  LEU103      0.0001
    129  N          2.5490  -26.9790   -3.1590 N.3   105  SER105     -0.1217
    130  CA         1.8900  -28.0700   -2.3560 C.3   105  SER105      0.1889
    131  C          1.1560  -29.0580   -3.2730 C.2   105  SER105      0.2288
    132  O          0.5200  -28.6690   -4.2680 O.2   105  SER105     -0.2866
    133  CB         0.9710  -27.4260   -1.3630 C.3   105  SER105      0.2089
    134  OG         1.7060  -26.4520   -0.5860 O.3   105  SER105     -0.2183
    135  N         -8.1490  -38.2210   -0.0420 N.2   111  PRO111     -0.2571
    136  CA        -8.9320  -37.6420   -1.1530 C.3   111  PRO111      0.2026
    137  C         -8.2970  -36.3500   -1.7130 C.2   111  PRO111      0.2684
    138  O         -8.6060  -35.9000   -2.8330 O.2   111  PRO111     -0.2709
    139  CB       -10.2950  -37.3330   -0.5290 C.2   111  PRO111      0.0085
    140  CG       -10.3220  -37.9410    0.8390 C.2   111  PRO111      0.0180
    141  CD        -8.9250  -38.4010    1.2090 C.2   111  PRO111      0.0938
    142  N         -7.3930  -35.7620   -0.9320 N.am  112  GLY112     -0.1950
    143  CA        -6.6380  -34.5570   -1.3520 C.3   112  GLY112      0.1869
    144  C         -5.4910  -34.8270   -2.3240 C.2   112  GLY112      0.2309
    145  O         -4.7980  -33.9130   -2.7780 O.2   112  GLY112     -0.2863
    146  N         -5.2100  -35.1540   -5.3440 N.3   114  ASP114     -0.1225
    147  CA        -5.0020  -34.5330   -6.6480 C.3   114  ASP114      0.1805
    148  C         -4.7910  -33.0370   -6.5260 C.2   114  ASP114      0.2597
    149  O         -4.5360  -32.3490   -7.5320 O.2   114  ASP114     -0.2718
    150  CB        -6.1720  -34.7940   -7.5310 C.3   114  ASP114      0.1424
    151  CG        -6.3720  -36.2600   -7.7840 C.2   114  ASP114      0.3668
    152  OD1       -5.3880  -36.8820   -8.2100 O.co2 114  ASP114     -0.2456
    153  OD2       -7.5020  -36.7500   -7.5470 O.co2 114  ASP114     -0.2456
    154  N         -4.9690  -32.5390   -5.3180 N.am  115  PHE115     -0.1976
    155  CA        -4.9200  -31.0760   -5.1040 C.3   115  PHE115      0.1639
    156  C         -3.4950  -30.5720   -5.4160 C.2   115  PHE115      0.2290
    157  O         -2.5010  -31.2700   -5.1100 O.2   115  PHE115     -0.2864
    158  CB        -5.3130  -30.8140   -3.6540 C.3   115  PHE115      0.0560
    159  CG        -5.0400  -29.4160   -3.1820 C.ar  115  PHE115     -0.0200
    160  CD1       -5.9190  -28.4150   -3.5160 C.ar  115  PHE115     -0.0042
    161  CD2       -3.9640  -29.1390   -2.3770 C.ar  115  PHE115     -0.0042
    162  CE1       -5.7480  -27.1220   -3.1120 C.ar  115  PHE115     -0.0003
    163  CE2       -3.7460  -27.7990   -1.9370 C.ar  115  PHE115     -0.0003
    164  CZ        -4.6580  -26.8130   -2.3070 C.ar  115  PHE115     -0.0000
    165  N         -1.2130  -26.6810   -5.5290 N.3   117  MET117     -0.1245
    166  CA        -1.3110  -25.2330   -5.2580 C.3   117  MET117      0.1570
    167  C          0.0850  -24.6830   -5.2360 C.2   117  MET117      0.2261
    168  O          1.0480  -25.3290   -4.6830 O.2   117  MET117     -0.2867
    169  CB        -1.9760  -24.9900   -3.8650 C.3   117  MET117      0.0387
    170  CG        -1.9560  -23.4800   -3.4750 C.3   117  MET117      0.0595
    171  SD        -2.9630  -23.1680   -2.0460 S.3   117  MET117     -0.1393
    172  CE        -2.0760  -24.1110   -0.8770 C.3   117  MET117      0.0692
    173  N          1.9480  -21.0340   -3.8960 N.3   119  THR119     -0.1218
    174  CA         1.6910  -19.7930   -3.1320 C.3   119  THR119      0.1862
    175  C          2.8850  -18.8610   -3.2330 C.2   119  THR119      0.2287
    176  O          4.0270  -19.3360   -3.1310 O.2   119  THR119     -0.2866
    177  CB         1.4390  -20.1790   -1.6400 C.3   119  THR119      0.1770
    178  OG1        0.3500  -21.1370   -1.5860 O.3   119  THR119     -0.2211
    179  CG2        1.0760  -18.9500   -0.8550 C.3   119  THR119      0.0375
    180  N          4.7540  -16.0250   -1.3090 N.3   121  TYR121     -0.1298
    181  CA         4.9500  -15.2700   -0.0700 C.3   121  TYR121      0.1290
    182  C          5.9210  -14.1450   -0.3620 C.3   121  TYR121      0.2013
    183  O          6.9370  -14.3170   -1.1650 O.3   121  TYR121     -0.2188
    184  CB         5.5400  -16.1650    1.0080 C.3   121  TYR121      0.0480
    185  CG         4.4920  -17.0760    1.5870 C.ar  121  TYR121     -0.0204
    186  CD1        3.5590  -16.5980    2.5790 C.ar  121  TYR121     -0.0009
    187  CD2        4.3080  -18.3540    1.0250 C.ar  121  TYR121     -0.0009
    188  CE1        2.5730  -17.4840    3.0840 C.ar  121  TYR121      0.0417
    189  CE2        3.3290  -19.2270    1.5190 C.ar  121  TYR121      0.0417
    190  CZ         2.4940  -18.7930    2.5380 C.ar  121  TYR121      0.1957
    191  OH         1.5400  -19.6750    2.9810 O.3   121  TYR121     -0.2866
@<TRIPOS>BOND
     1     5     2    1
     2     5     6    1
     3     4     3    2
     4     2     3    1
     5     2     1    1
     6     8     6   am
     7     3     9   am
     8     6     7    2
     9   152   151   ar
    10   151   153   ar
    11   151   150    1
    12     9    10    1
    13   149   148    2
    14   150   147    1
    15    11    10    1
    16    11    12    2
    17    10    13    1
    18   147   148    1
    19   147   146    1
    20   148   154   am
    21    15    16    1
    22   165   166    1
    23   156   157    2
    24   156   155    1
    25    13    14    1
    26   154   155    1
    27   166   167    1
    28   166   169    1
    29   167   168    2
    30   155   158    1
    31    16    19    1
    32    16    17    1
    33   132   131    2
    34   173   174    1
    35   169   170    1
    36    19    20    1
    37   158   159    1
    38   124   123    2
    39   160   159   ar
    40   160   162   ar
    41    17    29   am
    42    17    18    2
    43   170   171    1
    44    29    30    1
    45   131   130    1
    46   175   174    1
    47   175   176    2
    48   159   161   ar
    49   129   130    1
    50   174   177    1
    51   162   164   ar
    52    31    30    1
    53    31    32    2
    54   123   122    1
    55   138   137    2
    56   145   144    2
    57   121   122    1
    58    30    33    1
    59    33    34    1
    60    20    21   ar
    61    20    22   ar
    62   161   163   ar
    63   130   133    1
    64   144   143    1
    65   164   163   ar
    66    21    23   ar
    67   171   172    1
    68   122   125    1
    69   137   136    1
    70   137   142   am
    71   177   178    1
    72   177   179    1
    73    34    36    1
    74    34    35    1
    75   133   134    1
    76   143   142    1
    77   180   181    1
    78    22    25   ar
    79    22    24   ar
    80   183   182    1
    81   136   139    1
    82   136   135    1
    83    23    24   ar
    84    25    27   ar
    85   125   126    1
    86    41    42    1
    87    41    38    1
    88    39    38    1
    89    39    40    2
    90   139   140    2
    91    37    38    1
    92   182   181    1
    93    24    26   ar
    94    42    43    1
    95   181   184    1
    96   135   141    2
    97   110   108   ar
    98   110   112   ar
    99   108   107   ar
   100   127   126    1
   101    27    28   ar
   102   126   128    1
   103   116   115    1
   104   116   117    2
   105   115   114    1
   106   115   118    1
   107   140   141    1
   108    43    44    1
   109   184   185    1
   110   187   189   ar
   111   187   185   ar
   112    26    28   ar
   113   100   101   ar
   114   100    98   ar
   115    44    45    1
   116   113   112    1
   117   112   111   ar
   118   103   106    1
   119   103   104    1
   120   103   102    1
   121   101    99   ar
   122   189   190   ar
   123   107   106    1
   124   107   109   ar
   125   185   186   ar
   126   104   105    2
   127    98    95   ar
   128   119   118    1
   129   118   120    1
   130    99    97   ar
   131   190   191    1
   132   190   188   ar
   133   186   188   ar
   134   111   109   ar
   135    95    97   ar
   136    95    93   ar
   137    97    96   ar
   138    91    90    2
   139    93    92    1
   140    93    94   ar
   141    92    89    1
   142    96    94   ar
   143    90    89    1
   144    89    88    1
   145    79    78    2
   146    76    77    1
   147    53    51    1
   148    67    66    1
   149    80    77    1
   150    80    81    1
   151    83    81   ar
   152    83    85   ar
   153    74    73    1
   154    75    73    1
   155    66    65    1
   156    77    78    1
   157    81    82   ar
   158    85    86   ar
   159    52    51    1
   160    59    58    1
   161    73    72    1
   162    51    50    1
   163    72    69    1
   164    58    55    1
   165    82    84   ar
   166    86    84   ar
   167    86    87    1
   168    65    64    1
   169    50    47    1
   170    69    70    1
   171    69    68    1
   172    64    61    1
   173    55    54    1
   174    55    56    1
   175    70    71    2
   176    47    48    1
   177    47    46    1
   178    56    57    2
   179    49    48    2
   180    61    62    1
   181    61    60    1
   182    63    62    2
