@<TRIPOS>MOLECULE
tmp/3o2yA00.pdb
 180 169 0 0 0
SMALL
GASTEIGER

@<TRIPOS>ATOM
      1  N          0.9710  -13.5460    2.3430 N.3    17  SER17      -0.1217
      2  CA         0.5130  -14.4830    1.3070 C.3    17  SER17       0.1889
      3  C         -0.0840  -13.6680    0.2170 C.2    17  SER17       0.2288
      4  O         -1.2720  -13.2560    0.2850 O.2    17  SER17      -0.2866
      5  CB        -0.4650  -15.5600    1.8770 C.3    17  SER17       0.2089
      6  OG        -1.4460  -14.9830    2.7520 O.3    17  SER17      -0.2183
      7  N         -1.8610  -16.9740   -4.9620 N.3    20  LEU20      -0.1245
      8  CA        -1.8990  -18.4400   -5.0450 C.3    20  LEU20       0.1561
      9  C         -2.4920  -18.9040   -6.3490 C.2    20  LEU20       0.2260
     10  O         -3.2360  -18.1870   -7.0530 O.2    20  LEU20      -0.2867
     11  CB        -2.6710  -19.0060   -3.9040 C.3    20  LEU20       0.0270
     12  CG        -4.1500  -18.9920   -3.7620 C.3    20  LEU20       0.0019
     13  CD1       -4.7400  -20.0900   -4.6120 C.3    20  LEU20       0.0001
     14  CD2       -4.4660  -19.3960   -2.2870 C.3    20  LEU20       0.0001
     15  N        -12.7690  -24.3100   -5.7960 N.3    26  TRP26      -0.1227
     16  CA       -13.3410  -24.0710   -4.4550 C.3    26  TRP26       0.1737
     17  C        -12.3340  -23.3880   -3.5160 C.2    26  TRP26       0.2595
     18  O        -12.6590  -22.3810   -2.8810 O.2    26  TRP26      -0.2718
     19  CB       -13.7970  -25.3760   -3.8380 C.3    26  TRP26       0.0564
     20  CG       -14.3980  -25.2090   -2.5150 C.ar   26  TRP26       0.0003
     21  CD1      -15.6630  -24.8530   -2.2640 C.ar   26  TRP26       0.0946
     22  CD2      -13.7650  -25.4130   -1.2600 C.ar   26  TRP26       0.0152
     23  NE1      -15.8910  -24.8510   -0.8850 N.ar   26  TRP26      -0.2442
     24  CE2      -14.7350  -25.1650   -0.2570 C.ar   26  TRP26       0.0810
     25  CE3      -12.4810  -25.8120   -0.8740 C.ar   26  TRP26       0.0012
     26  CZ2      -14.4610  -25.3020    1.1130 C.ar   26  TRP26       0.0191
     27  CZ3      -12.1890  -25.9140    0.5050 C.ar   26  TRP26       0.0001
     28  CH2      -13.2020  -25.6450    1.4690 C.ar   26  TRP26       0.0015
     29  N        -11.1080  -23.9250   -3.4440 N.am   27  LEU27      -0.1980
     30  CA       -10.0760  -23.3180   -2.5810 C.3    27  LEU27       0.1596
     31  C         -9.7530  -21.8990   -3.0060 C.2    27  LEU27       0.2287
     32  O         -9.6910  -21.0180   -2.1250 O.2    27  LEU27      -0.2864
     33  CB        -8.7780  -24.1390   -2.5190 C.3    27  LEU27       0.0297
     34  CG        -7.7490  -23.5930   -1.5230 C.3    27  LEU27       0.0022
     35  CD1       -8.4060  -23.6780   -0.2300 C.3    27  LEU27       0.0001
     36  CD2       -6.5940  -24.4350   -1.4740 C.3    27  LEU27       0.0001
     37  N        -12.7450  -19.6630   -1.9940 N.3    30  LYS30      -0.1231
     38  CA       -12.8070  -19.5100   -0.4880 C.3    30  LYS30       0.1693
     39  C        -11.7260  -18.5090    0.0020 C.2    30  LYS30       0.2591
     40  O        -12.0260  -17.5510    0.7330 O.2    30  LYS30      -0.2718
     41  CB       -12.6280  -20.8660    0.1830 C.3    30  LYS30       0.0285
     42  CG       -13.9090  -21.7350   -0.0120 C.3    30  LYS30       0.0035
     43  CD       -15.1710  -20.9980    0.5180 C.3    30  LYS30       0.0206
     44  CE       -15.7620  -21.5900    1.7900 C.3    30  LYS30       0.1093
     45  NZ       -17.0470  -20.8650    2.1540 N.3    30  LYS30      -0.1314
     46  N        -10.5050  -18.7000   -0.4610 N.am   31  LYS31      -0.1980
     47  CA        -9.3590  -17.8700   -0.0870 C.3    31  LYS31       0.1596
     48  C         -9.5460  -16.4140   -0.5450 C.2    31  LYS31       0.2287
     49  O         -9.2130  -15.4520    0.2130 O.2    31  LYS31      -0.2864
     50  CB        -8.0250  -18.4050   -0.6160 C.3    31  LYS31       0.0298
     51  CG        -7.7060  -19.8030   -0.1310 C.3    31  LYS31       0.0038
     52  CD        -6.7280  -19.8030    0.9420 C.3    31  LYS31       0.0206
     53  CE        -6.3620  -21.2290    1.3560 C.3    31  LYS31       0.1093
     54  NZ        -5.7840  -21.0840    2.7340 N.3    31  LYS31      -0.1314
     55  N        -11.4810  -14.1490    1.6500 N.3    34  LEU34      -0.1245
     56  CA       -10.7770  -13.7840    2.9430 C.3    34  LEU34       0.1561
     57  C         -9.8740  -12.5570    2.6370 C.2    34  LEU34       0.2260
     58  O         -9.5150  -12.3240    1.4750 O.2    34  LEU34      -0.2867
     59  CB        -9.9260  -14.9340    3.4780 C.3    34  LEU34       0.0270
     60  CG       -10.6220  -16.3120    3.6590 C.3    34  LEU34       0.0019
     61  CD1       -9.5730  -17.3990    3.9430 C.3    34  LEU34       0.0001
     62  CD2      -11.7020  -16.2360    4.7490 C.3    34  LEU34       0.0001
     63  N         -6.1690  -11.2070    3.6330 N.3    36  MET36      -0.1245
     64  CA        -4.9720  -11.7900    4.2870 C.3    36  MET36       0.1570
     65  C         -4.2230  -10.7270    5.0810 C.2    36  MET36       0.2261
     66  O         -3.8850   -9.6620    4.5840 O.2    36  MET36      -0.2867
     67  CB        -4.0020  -12.4130    3.2230 C.3    36  MET36       0.0387
     68  CG        -4.5630  -13.4040    2.2610 C.3    36  MET36       0.0595
     69  SD        -5.3340  -14.7430    3.2160 S.3    36  MET36      -0.1393
     70  CE        -6.9040  -14.2360    3.1160 C.3    36  MET36       0.0692
     71  N          1.4510  -13.7010    7.6820 N.3    39  SER39      -0.1217
     72  CA         1.7970  -15.0750    8.0200 C.3    39  SER39       0.1889
     73  C          3.1120  -15.0240    8.7470 C.2    39  SER39       0.2288
     74  O          3.9040  -14.1130    8.5580 O.2    39  SER39      -0.2866
     75  CB         1.9970  -15.8880    6.7100 C.3    39  SER39       0.2089
     76  OG         0.7300  -16.1360    6.1490 O.3    39  SER39      -0.2183
     77  N          3.6160  -22.6950   10.3570 N.3    51  LEU51      -0.1245
     78  CA         3.2220  -21.6190    9.4490 C.3    51  LEU51       0.1561
     79  C          1.8560  -21.0830    9.8780 C.2    51  LEU51       0.2260
     80  O          0.8540  -21.8270    9.7790 O.2    51  LEU51      -0.2867
     81  CB         3.1590  -22.1410    8.0360 C.3    51  LEU51       0.0270
     82  CG         2.5140  -21.2430    6.9640 C.3    51  LEU51       0.0019
     83  CD1        3.3780  -19.9580    6.7870 C.3    51  LEU51       0.0001
     84  CD2        2.4320  -21.9860    5.6220 C.3    51  LEU51       0.0001
     85  N         -1.1600  -18.2490    9.7030 N.3    53  SER53      -0.1217
     86  CA        -1.7300  -17.2300    8.8580 C.3    53  SER53       0.1889
     87  C         -2.8430  -16.5450    9.7050 C.2    53  SER53       0.2288
     88  O         -3.7060  -17.2110   10.2440 O.2    53  SER53      -0.2866
     89  CB        -2.3400  -17.8960    7.6800 C.3    53  SER53       0.2089
     90  OG        -2.9700  -16.9020    6.8570 O.3    53  SER53      -0.2183
     91  N         -5.9980  -13.8090    9.1430 N.3    55  PHE55      -0.1241
     92  CA        -6.8610  -13.3980    7.9760 C.3    55  PHE55       0.1605
     93  C         -8.2580  -13.0330    8.5130 C.2    55  PHE55       0.2264
     94  O         -8.6530  -13.3740    9.6760 O.2    55  PHE55      -0.2867
     95  CB        -6.9360  -14.5560    6.9590 C.3    55  PHE55       0.0534
     96  CG        -7.4520  -15.8390    7.5500 C.ar   55  PHE55      -0.0203
     97  CD1       -8.8220  -16.1600    7.4740 C.ar   55  PHE55      -0.0042
     98  CD2       -6.5770  -16.7220    8.1960 C.ar   55  PHE55      -0.0042
     99  CE1       -9.2920  -17.3300    8.0320 C.ar   55  PHE55      -0.0003
    100  CE2       -7.0730  -17.8920    8.8080 C.ar   55  PHE55      -0.0003
    101  CZ        -8.4320  -18.2050    8.6820 C.ar   55  PHE55      -0.0000
    102  N         -4.7890  -19.4760   11.7430 N.3    64  ARG64      -0.1245
    103  CA        -4.7050  -20.9280   11.5950 C.3    64  ARG64       0.1563
    104  C         -3.2250  -21.2970   11.5270 C.2    64  ARG64       0.2260
    105  O         -2.4870  -20.6170   10.8690 O.2    64  ARG64      -0.2867
    106  CB        -5.3700  -21.3190   10.2850 C.3    64  ARG64       0.0307
    107  CG        -6.8970  -21.3080   10.3560 C.3    64  ARG64       0.0489
    108  CD        -7.4190  -22.3150   11.3840 C.3    64  ARG64       0.2205
    109  NE        -8.8500  -22.5230   11.2060 N.pl3  64  ARG64      -0.0865
    110  CZ        -9.7920  -21.7980   11.7970 C.cat  64  ARG64       0.5346
    111  NH1       -9.4660  -20.8080   12.6340 N.pl3  64  ARG64       0.1354
    112  NH2      -11.0680  -22.0740   11.5520 N.pl3  64  ARG64       0.1354
    113  N         -0.4200  -24.1990   10.5590 N.3    66  MET66      -0.1245
    114  CA        -0.1090  -25.4730    9.9250 C.3    66  MET66       0.1570
    115  C          1.2640  -25.9280   10.3690 C.2    66  MET66       0.2261
    116  O          2.2360  -25.2020   10.2370 O.2    66  MET66      -0.2867
    117  CB        -0.1320  -25.2730    8.4060 C.3    66  MET66       0.0387
    118  CG        -1.5670  -24.8000    7.9990 C.3    66  MET66       0.0595
    119  SD        -1.6460  -24.5380    6.2610 S.3    66  MET66      -0.1393
    120  CE        -1.9650  -26.1930    5.7040 C.3    66  MET66       0.0692
    121  N         -9.3870  -33.1310    6.2770 N.3    84  TRP84      -0.1241
    122  CA        -9.4620  -33.5580    4.8880 C.3    84  TRP84       0.1605
    123  C         -9.0710  -35.0060    4.7000 C.2    84  TRP84       0.2264
    124  O         -9.0150  -35.4760    3.5640 O.2    84  TRP84      -0.2867
    125  CB        -8.5760  -32.6690    4.0290 C.3    84  TRP84       0.0550
    126  CG        -9.1290  -31.2820    3.8900 C.ar   84  TRP84       0.0003
    127  CD1       -8.7850  -30.1770    4.6250 C.ar   84  TRP84       0.0946
    128  CD2      -10.1420  -30.8620    2.9790 C.ar   84  TRP84       0.0152
    129  NE1       -9.5220  -29.0770    4.2110 N.ar   84  TRP84      -0.2442
    130  CE2      -10.3650  -29.4760    3.2050 C.ar   84  TRP84       0.0810
    131  CE3      -10.8810  -31.5220    1.9800 C.ar   84  TRP84       0.0012
    132  CZ2      -11.2920  -28.7380    2.4750 C.ar   84  TRP84       0.0191
    133  CZ3      -11.8070  -30.7960    1.2560 C.ar   84  TRP84       0.0001
    134  CH2      -12.0070  -29.4090    1.5070 C.ar   84  TRP84       0.0015
    135  N         -4.9690  -32.5390   -5.3180 N.3   115  PHE115     -0.1241
    136  CA        -4.9200  -31.0760   -5.1040 C.3   115  PHE115      0.1605
    137  C         -3.4950  -30.5720   -5.4160 C.2   115  PHE115      0.2264
    138  O         -2.5010  -31.2700   -5.1100 O.2   115  PHE115     -0.2867
    139  CB        -5.3130  -30.8140   -3.6540 C.3   115  PHE115      0.0534
    140  CG        -5.0400  -29.4160   -3.1820 C.ar  115  PHE115     -0.0203
    141  CD1       -5.9190  -28.4150   -3.5160 C.ar  115  PHE115     -0.0042
    142  CD2       -3.9640  -29.1390   -2.3770 C.ar  115  PHE115     -0.0042
    143  CE1       -5.7480  -27.1220   -3.1120 C.ar  115  PHE115     -0.0003
    144  CE2       -3.7460  -27.7990   -1.9370 C.ar  115  PHE115     -0.0003
    145  CZ        -4.6580  -26.8130   -2.3070 C.ar  115  PHE115     -0.0000
    146  N         -1.2130  -26.6810   -5.5290 N.3   117  MET117     -0.1245
    147  CA        -1.3110  -25.2330   -5.2580 C.3   117  MET117      0.1570
    148  C          0.0850  -24.6830   -5.2360 C.2   117  MET117      0.2261
    149  O          1.0480  -25.3290   -4.6830 O.2   117  MET117     -0.2867
    150  CB        -1.9760  -24.9900   -3.8650 C.3   117  MET117      0.0387
    151  CG        -1.9560  -23.4800   -3.4750 C.3   117  MET117      0.0595
    152  SD        -2.9630  -23.1680   -2.0460 S.3   117  MET117     -0.1393
    153  CE        -2.0760  -24.1110   -0.8770 C.3   117  MET117      0.0692
    154  N          1.9480  -21.0340   -3.8960 N.3   119  THR119     -0.1218
    155  CA         1.6910  -19.7930   -3.1320 C.3   119  THR119      0.1862
    156  C          2.8850  -18.8610   -3.2330 C.2   119  THR119      0.2287
    157  O          4.0270  -19.3360   -3.1310 O.2   119  THR119     -0.2866
    158  CB         1.4390  -20.1790   -1.6400 C.3   119  THR119      0.1770
    159  OG1        0.3500  -21.1370   -1.5860 O.3   119  THR119     -0.2211
    160  CG2        1.0760  -18.9500   -0.8550 C.3   119  THR119      0.0375
    161  N          4.7540  -16.0250   -1.3090 N.3   121  TYR121     -0.1298
    162  CA         4.9500  -15.2700   -0.0700 C.3   121  TYR121      0.1290
    163  C          5.9210  -14.1450   -0.3620 C.3   121  TYR121      0.2013
    164  O          6.9370  -14.3170   -1.1650 O.3   121  TYR121     -0.2188
    165  CB         5.5400  -16.1650    1.0080 C.3   121  TYR121      0.0480
    166  CG         4.4920  -17.0760    1.5870 C.ar  121  TYR121     -0.0204
    167  CD1        3.5590  -16.5980    2.5790 C.ar  121  TYR121     -0.0009
    168  CD2        4.3080  -18.3540    1.0250 C.ar  121  TYR121     -0.0009
    169  CE1        2.5730  -17.4840    3.0840 C.ar  121  TYR121      0.0417
    170  CE2        3.3290  -19.2270    1.5190 C.ar  121  TYR121      0.0417
    171  CZ         2.4940  -18.7930    2.5380 C.ar  121  TYR121      0.1957
    172  OH         1.5400  -19.6750    2.9810 O.3   121  TYR121     -0.2866
    173  N         -4.1440  -12.2550   -3.9240 N.3   152  LEU152     -0.1245
    174  CA        -5.0850  -12.3410   -2.7800 C.3   152  LEU152      0.1561
    175  C         -5.2640  -11.0130   -2.0990 C.2   152  LEU152      0.2260
    176  O         -4.2830  -10.2940   -1.8380 O.2   152  LEU152     -0.2867
    177  CB        -4.5630  -13.2960   -1.7180 C.3   152  LEU152      0.0270
    178  CG        -4.4340  -14.7460   -2.1940 C.3   152  LEU152      0.0019
    179  CD1       -3.6370  -15.5210   -1.1890 C.3   152  LEU152      0.0001
    180  CD2       -5.8140  -15.4140   -2.4100 C.3   152  LEU152      0.0001
@<TRIPOS>BOND
     1    10     9    2
     2     9     8    1
     3    15    16    1
     4   146   147    1
     5   137   138    2
     6   137   136    1
     7   135   136    1
     8   147   148    1
     9   147   150    1
    10   148   149    2
    11   136   139    1
    12     8     7    1
    13     8    11    1
    14    13    12    1
    15    16    19    1
    16    16    17    1
    17   173   174    1
    18    11    12    1
    19   154   155    1
    20   150   151    1
    21    19    20    1
    22    12    14    1
    23   139   140    1
    24   141   140   ar
    25   141   143   ar
    26    17    29   am
    27    17    18    2
    28   151   152    1
    29    29    30    1
    30   156   155    1
    31   156   157    2
    32   140   142   ar
    33   155   158    1
    34   143   145   ar
    35    31    30    1
    36    31    32    2
    37   174   175    1
    38   174   177    1
    39    30    33    1
    40    33    34    1
    41    20    21   ar
    42    20    22   ar
    43   180   178    1
    44   142   144   ar
    45   145   144   ar
    46    21    23   ar
    47   178   177    1
    48   178   179    1
    49   175   176    2
    50   152   153    1
    51    37    38    1
    52   158   159    1
    53   158   160    1
    54    34    36    1
    55    34    35    1
    56   161   162    1
    57    22    25   ar
    58    22    24   ar
    59   164   163    1
    60    23    24   ar
    61    25    27   ar
    62    50    51    1
    63    50    47    1
    64    48    47    1
    65    48    49    2
    66    38    39    1
    67    38    41    1
    68    46    47    1
    69    46    39   am
    70   163   162    1
    71    24    26   ar
    72    51    52    1
    73   162   165    1
    74    42    41    1
    75    42    43    1
    76    39    40    2
    77     3     4    2
    78     3     2    1
    79    27    28   ar
    80    43    44    1
    81    52    53    1
    82   165   166    1
    83   168   170   ar
    84   168   166   ar
    85    26    28   ar
    86   133   134   ar
    87   133   131   ar
    88     2     5    1
    89     2     1    1
    90    53    54    1
    91    58    57    2
    92   134   132   ar
    93   170   171   ar
    94   166   167   ar
    95    55    56    1
    96    44    45    1
    97     5     6    1
    98   131   128   ar
    99    68    69    1
   100    68    67    1
   101   132   130   ar
   102   171   172    1
   103   171   169   ar
   104   167   169   ar
   105    57    56    1
   106    56    59    1
   107   128   130   ar
   108   128   126   ar
   109    70    69    1
   110   130   129   ar
   111    67    64    1
   112    59    60    1
   113   124   123    2
   114    63    64    1
   115    60    61    1
   116    60    62    1
   117   126   125    1
   118   126   127   ar
   119   125   122    1
   120   129   127   ar
   121    64    65    1
   122    66    65    2
   123   123   122    1
   124   122   121    1
   125    84    82    1
   126   120   119    1
   127    76    75    1
   128   119   118    1
   129    75    72    1
   130    83    82    1
   131    90    89    1
   132    95    96    1
   133    95    92    1
   134    82    81    1
   135    97    96   ar
   136    97    99   ar
   137    96    98   ar
   138    89    86    1
   139    71    72    1
   140    92    93    1
   141    92    91    1
   142   118   117    1
   143    72    73    1
   144    99   101   ar
   145    81    78    1
   146    98   100   ar
   147   117   114    1
   148    93    94    2
   149    74    73    2
   150   101   100   ar
   151    86    85    1
   152    86    87    1
   153    78    79    1
   154    78    77    1
   155    87    88    2
   156    80    79    2
   157   114   115    1
   158   114   113    1
   159   116   115    2
   160   106   107    1
   161   106   103    1
   162   107   108    1
   163   105   104    2
   164   109   108    1
   165   109   110    2
   166   104   103    1
   167   112   110    1
   168   103   102    1
   169   110   111    1
