@<TRIPOS>MOLECULE
tmp/3o2yB00.pdb
 191 179 0 0 0
SMALL
GASTEIGER

@<TRIPOS>ATOM
      1  N         22.5330  -39.2560    4.5500 N.3    17  SER17      -0.1217
      2  CA        21.5590  -40.3690    4.3710 C.3    17  SER17       0.1889
      3  C         20.2760  -39.8240    3.7530 C.2    17  SER17       0.2288
      4  O         19.4040  -39.3150    4.4530 O.2    17  SER17      -0.2866
      5  CB        21.2700  -41.1880    5.6130 C.3    17  SER17       0.2089
      6  OG        21.2720  -40.3800    6.7490 O.3    17  SER17      -0.2183
      7  N         15.8970  -44.3280    2.0710 N.3    20  LEU20      -0.1245
      8  CA        15.9870  -45.7020    2.4820 C.3    20  LEU20       0.1561
      9  C         14.7360  -46.3750    1.9640 C.2    20  LEU20       0.2260
     10  O         13.7180  -45.7000    1.7680 O.2    20  LEU20      -0.2867
     11  CB        16.0850  -45.7020    4.0080 C.3    20  LEU20       0.0270
     12  CG        15.1990  -46.1420    5.1730 C.3    20  LEU20       0.0019
     13  CD1       15.5650  -45.3790    6.4640 C.3    20  LEU20       0.0001
     14  CD2       13.6950  -46.3910    4.9860 C.3    20  LEU20       0.0001
     15  N          7.9120  -49.9040   11.1200 N.3    26  TRP26      -0.1227
     16  CA         8.3490  -49.2070   12.3570 C.3    26  TRP26       0.1737
     17  C          9.6250  -48.4040   12.0920 C.2    26  TRP26       0.2595
     18  O          9.7260  -47.2270   12.4490 O.2    26  TRP26      -0.2718
     19  CB         8.5950  -50.1790   13.5060 C.3    26  TRP26       0.0564
     20  CG         9.0470  -49.5600   14.8030 C.ar   26  TRP26       0.0003
     21  CD1        8.2560  -49.0330   15.7850 C.ar   26  TRP26       0.0946
     22  CD2       10.3960  -49.4300   15.2600 C.ar   26  TRP26       0.0152
     23  NE1        9.0330  -48.6160   16.8490 N.ar   26  TRP26      -0.2442
     24  CE2       10.3470  -48.8480   16.5550 C.ar   26  TRP26       0.0810
     25  CE3       11.6490  -49.7810   14.7160 C.ar   26  TRP26       0.0012
     26  CZ2       11.5120  -48.5870   17.3150 C.ar   26  TRP26       0.0191
     27  CZ3       12.8220  -49.5180   15.4750 C.ar   26  TRP26       0.0001
     28  CH2       12.7360  -48.9170   16.7580 C.ar   26  TRP26       0.0015
     29  N         10.5850  -49.0310   11.4170 N.am   27  LEU27      -0.1980
     30  CA        11.8090  -48.3230   11.0800 C.3    27  LEU27       0.1596
     31  C         11.5230  -47.1670   10.1070 C.2    27  LEU27       0.2287
     32  O         11.9980  -46.0610   10.3260 O.2    27  LEU27      -0.2864
     33  CB        12.8500  -49.2820   10.5280 C.3    27  LEU27       0.0297
     34  CG        14.2240  -48.5980   10.3980 C.3    27  LEU27       0.0022
     35  CD1       15.2610  -49.5140   10.8210 C.3    27  LEU27       0.0001
     36  CD2       14.4410  -48.1770    8.9600 C.3    27  LEU27       0.0001
     37  N         10.0060  -44.4080   12.3470 N.3    30  LYS30      -0.1231
     38  CA        10.9090  -43.7800   13.3010 C.3    30  LYS30       0.1693
     39  C         11.8920  -42.8880   12.5620 C.2    30  LYS30       0.2591
     40  O         12.1200  -41.7340   12.9660 O.2    30  LYS30      -0.2718
     41  CB        11.6790  -44.7860   14.1470 C.3    30  LYS30       0.0285
     42  CG        10.9120  -45.3500   15.3840 C.3    30  LYS30       0.0035
     43  CD        10.6110  -44.3110   16.4920 C.3    30  LYS30       0.0206
     44  CE         9.6870  -44.9370   17.5720 C.3    30  LYS30       0.1093
     45  NZ         9.2870  -44.0750   18.7670 N.3    30  LYS30      -0.1314
     46  N         12.4610  -43.4090   11.4740 N.am   31  LYS31      -0.1980
     47  CA        13.4100  -42.5830   10.6720 C.3    31  LYS31       0.1596
     48  C         12.8090  -41.3590    9.9870 C.2    31  LYS31       0.2287
     49  O         13.5070  -40.3550    9.8490 O.2    31  LYS31      -0.2864
     50  CB        14.1110  -43.3960    9.5720 C.3    31  LYS31       0.0298
     51  CG        14.9180  -44.6110   10.0060 C.3    31  LYS31       0.0038
     52  CD        16.2300  -44.2660   10.6670 C.3    31  LYS31       0.0206
     53  CE        17.0070  -45.5010   11.0040 C.3    31  LYS31       0.1093
     54  NZ        18.2150  -45.1860   11.7770 N.3    31  LYS31      -0.1314
     55  N         12.6310  -38.1190   12.2840 N.3    34  LEU34      -0.1245
     56  CA        13.9030  -37.5250   12.6610 C.3    34  LEU34       0.1561
     57  C         14.3580  -36.7250   11.4590 C.2    34  LEU34       0.2260
     58  O         13.8510  -36.9500   10.3350 O.2    34  LEU34      -0.2867
     59  CB        14.9500  -38.6230   13.0000 C.3    34  LEU34       0.0270
     60  CG        14.5420  -39.4790   14.2020 C.3    34  LEU34       0.0019
     61  CD1       15.5010  -40.6650   14.4350 C.3    34  LEU34       0.0001
     62  CD2       14.4050  -38.6130   15.4950 C.3    34  LEU34       0.0001
     63  N         17.8070  -35.8430    9.3100 N.3    36  MET36      -0.1245
     64  CA        19.1720  -36.3740    9.2740 C.3    36  MET36       0.1570
     65  C         20.1360  -35.2220    9.0850 C.2    36  MET36       0.2261
     66  O         19.9630  -34.4300    8.1550 O.2    36  MET36      -0.2867
     67  CB        19.4030  -37.3740    8.1360 C.3    36  MET36       0.0387
     68  CG        18.4080  -38.5080    8.1140 C.3    36  MET36       0.0595
     69  SD        18.7080  -39.5030    9.5560 S.3    36  MET36      -0.1393
     70  CE        17.5360  -38.9650   10.6620 C.3    36  MET36       0.0692
     71  N         26.3680  -38.1900    7.9580 N.3    39  SER39      -0.1217
     72  CA        27.0090  -39.4370    8.4970 C.3    39  SER39       0.1889
     73  C         28.4650  -39.4260    8.0640 C.2    39  SER39       0.2288
     74  O         28.8030  -38.9330    6.9360 O.2    39  SER39      -0.2866
     75  CB        26.3420  -40.7130    7.9840 C.3    39  SER39       0.2089
     76  OG        25.0230  -40.8320    8.4820 O.3    39  SER39      -0.2183
     77  N         30.5230  -46.0960   11.3330 N.3    51  LEU51      -0.1245
     78  CA        29.5360  -45.2530   10.6230 C.3    51  LEU51       0.1561
     79  C         28.7770  -44.4350   11.6680 C.2    51  LEU51       0.2260
     80  O         28.0330  -44.9960   12.4650 O.2    51  LEU51      -0.2867
     81  CB        28.5610  -46.1710    9.8530 C.3    51  LEU51       0.0270
     82  CG        27.4070  -45.5650    9.0290 C.3    51  LEU51       0.0019
     83  CD1       27.8320  -44.3880    8.0690 C.3    51  LEU51       0.0001
     84  CD2       26.7750  -46.7080    8.1940 C.3    51  LEU51       0.0001
     85  N         26.2610  -41.4280   12.7350 N.3    53  SER53      -0.1217
     86  CA        25.1640  -40.6050   12.1620 C.3    53  SER53       0.1889
     87  C         24.8170  -39.4930   13.1510 C.2    53  SER53       0.2288
     88  O         24.7130  -39.7430   14.3800 O.2    53  SER53      -0.2866
     89  CB        23.9300  -41.4460   11.8650 C.3    53  SER53       0.2089
     90  OG        24.2420  -42.6730   11.1980 O.3    53  SER53      -0.2183
     91  N         21.8760  -36.6130   13.9210 N.3    55  PHE55      -0.1241
     92  CA        20.4970  -36.2910   13.5300 C.3    55  PHE55       0.1605
     93  C         19.8000  -35.4480   14.5960 C.2    55  PHE55       0.2264
     94  O         20.2920  -35.3540   15.7250 O.2    55  PHE55      -0.2867
     95  CB        19.7660  -37.6050   13.3200 C.3    55  PHE55       0.0534
     96  CG        19.8350  -38.5150   14.5120 C.ar   55  PHE55      -0.0203
     97  CD1       18.7840  -38.5400   15.4070 C.ar   55  PHE55      -0.0042
     98  CD2       20.9120  -39.4420   14.6490 C.ar   55  PHE55      -0.0042
     99  CE1       18.8260  -39.3710   16.5540 C.ar   55  PHE55      -0.0003
    100  CE2       20.9480  -40.2720   15.7880 C.ar   55  PHE55      -0.0003
    101  CZ        19.8910  -40.2480   16.6940 C.ar   55  PHE55      -0.0000
    102  N         16.5620  -34.9870   16.9120 N.3    57  ARG57      -0.1245
    103  CA        15.4020  -35.6040   17.4500 C.3    57  ARG57       0.1563
    104  C         14.7670  -34.5780   18.3440 C.2    57  ARG57       0.2260
    105  O         15.3670  -34.1310   19.2820 O.2    57  ARG57      -0.2867
    106  CB        15.7330  -36.7790   18.3150 C.3    57  ARG57       0.0307
    107  CG        14.4950  -37.3310   18.9720 C.3    57  ARG57       0.0489
    108  CD        14.8710  -38.2020   20.1130 C.3    57  ARG57       0.2205
    109  NE        15.8360  -39.1700   19.6760 N.pl3  57  ARG57      -0.0865
    110  CZ        15.5870  -40.4550   19.5210 C.cat  57  ARG57       0.5346
    111  NH1       14.3810  -40.9510   19.8300 N.pl3  57  ARG57       0.1354
    112  NH2       16.5670  -41.2450   19.0920 N.pl3  57  ARG57       0.1354
    113  N         24.8450  -41.3090   16.8560 N.3    64  ARG64      -0.1245
    114  CA        24.9240  -42.7500   17.1030 C.3    64  ARG64       0.1563
    115  C         25.9070  -43.4020   16.1420 C.2    64  ARG64       0.2260
    116  O         25.8520  -43.1670   14.9220 O.2    64  ARG64      -0.2867
    117  CB        23.5750  -43.4800   16.9950 C.3    64  ARG64       0.0307
    118  CG        22.4380  -42.9190   17.9110 C.3    64  ARG64       0.0489
    119  CD        21.8220  -43.9800   18.8910 C.3    64  ARG64       0.2205
    120  NE        20.3460  -43.8830   18.9490 N.pl3  64  ARG64      -0.0865
    121  CZ        19.6530  -42.8510   19.4330 C.cat  64  ARG64       0.5346
    122  NH1       20.2590  -41.7730   19.9430 N.pl3  64  ARG64       0.1354
    123  NH2       18.3310  -42.8950   19.4070 N.pl3  64  ARG64       0.1354
    124  N         27.7670  -46.8830   14.4990 N.3    66  MET66      -0.1245
    125  CA        27.6670  -48.3020   14.2140 C.3    66  MET66       0.1570
    126  C         28.9830  -48.8710   13.7080 C.2    66  MET66       0.2261
    127  O         29.5130  -48.3600   12.7480 O.2    66  MET66      -0.2867
    128  CB        26.6060  -48.5680   13.1690 C.3    66  MET66       0.0387
    129  CG        25.2070  -48.5420   13.7200 C.3    66  MET66       0.0595
    130  SD        24.0980  -48.4110   12.3070 S.3    66  MET66      -0.1393
    131  CE        24.7680  -49.7320   11.2410 C.3    66  MET66       0.0692
    132  N         19.2630  -54.8650   19.7640 N.3    84  TRP84      -0.1241
    133  CA        18.3780  -55.6950   18.9390 C.3    84  TRP84       0.1605
    134  C         18.7130  -57.1740   19.0290 C.2    84  TRP84       0.2264
    135  O         17.9540  -57.9870   18.5440 O.2    84  TRP84      -0.2867
    136  CB        18.3350  -55.2340   17.4710 C.3    84  TRP84       0.0550
    137  CG        17.7710  -53.8480   17.3160 C.ar   84  TRP84       0.0003
    138  CD1       18.4540  -52.7070   16.9560 C.ar   84  TRP84       0.0946
    139  CD2       16.4050  -53.4480   17.5340 C.ar   84  TRP84       0.0152
    140  NE1       17.5900  -51.6280   16.9450 N.ar   84  TRP84      -0.2442
    141  CE2       16.3330  -52.0560   17.2970 C.ar   84  TRP84       0.0810
    142  CE3       15.2430  -54.1340   17.9140 C.ar   84  TRP84       0.0012
    143  CZ2       15.1350  -51.3340   17.4210 C.ar   84  TRP84       0.0191
    144  CZ3       14.0510  -53.4210   18.0400 C.ar   84  TRP84       0.0001
    145  CH2       14.0090  -52.0250   17.7870 C.ar   84  TRP84       0.0015
    146  N         14.8180  -58.7130    7.9880 N.3   115  PHE115     -0.1241
    147  CA        15.0130  -57.3060    7.6030 C.3   115  PHE115      0.1605
    148  C         15.7140  -57.1730    6.2720 C.2   115  PHE115      0.2264
    149  O         16.6830  -57.8650    6.0130 O.2   115  PHE115     -0.2867
    150  CB        15.8770  -56.6190    8.6480 C.3   115  PHE115      0.0534
    151  CG        16.0260  -55.1250    8.4600 C.ar  115  PHE115     -0.0203
    152  CD1       14.9730  -54.2400    8.7530 C.ar  115  PHE115     -0.0042
    153  CD2       17.2470  -54.6160    8.0590 C.ar  115  PHE115     -0.0042
    154  CE1       15.1150  -52.8650    8.5910 C.ar  115  PHE115     -0.0003
    155  CE2       17.3950  -53.2220    7.9020 C.ar  115  PHE115     -0.0003
    156  CZ        16.3240  -52.3720    8.1770 C.ar  115  PHE115     -0.0000
    157  N         16.9810  -53.7240    3.9680 N.3   117  MET117     -0.1245
    158  CA        16.9500  -52.2570    3.7990 C.3   117  MET117      0.1570
    159  C         17.9490  -51.8120    2.8020 C.2   117  MET117      0.2261
    160  O         19.0780  -52.2920    2.7700 O.2   117  MET117     -0.2867
    161  CB        17.1220  -51.5140    5.1050 C.3   117  MET117      0.0387
    162  CG        17.4510  -50.0100    4.9010 C.3   117  MET117      0.0595
    163  SD        17.4390  -49.1450    6.4650 S.3   117  MET117     -0.1393
    164  CE        19.0260  -49.5050    7.1040 C.3   117  MET117      0.0692
    165  N         19.7640  -48.3080    1.2930 N.3   119  THR119     -0.1218
    166  CA        20.0150  -46.9640    1.7870 C.3   119  THR119      0.1862
    167  C         20.7230  -46.1810    0.7010 C.2   119  THR119      0.2287
    168  O         21.6490  -46.6740    0.0950 O.2   119  THR119     -0.2866
    169  CB        20.9870  -46.9840    2.9660 C.3   119  THR119      0.1770
    170  OG1       20.4970  -47.8440    3.9920 O.3   119  THR119     -0.2211
    171  CG2       21.1090  -45.5490    3.5450 C.3   119  THR119      0.0375
    172  N         23.1180  -43.0960    0.1890 N.3   121  TYR121     -0.1241
    173  CA        24.0070  -42.0550    0.7670 C.3   121  TYR121      0.1605
    174  C         24.4090  -41.1520   -0.3610 C.2   121  TYR121      0.2264
    175  O         24.6070  -41.6040   -1.4920 O.2   121  TYR121     -0.2867
    176  CB        25.2600  -42.7250    1.3420 C.3   121  TYR121      0.0534
    177  CG        24.9330  -43.2720    2.7040 C.ar  121  TYR121     -0.0201
    178  CD1       24.7800  -42.4260    3.7980 C.ar  121  TYR121     -0.0009
    179  CD2       24.7280  -44.6470    2.8730 C.ar  121  TYR121     -0.0009
    180  CE1       24.4800  -42.9510    5.1030 C.ar  121  TYR121      0.0417
    181  CE2       24.4020  -45.1630    4.1190 C.ar  121  TYR121      0.0417
    182  CZ        24.3060  -44.3180    5.2330 C.ar  121  TYR121      0.1957
    183  OH        23.9610  -44.8840    6.4710 O.3   121  TYR121     -0.2866
    184  N         14.4920  -39.4190    3.1840 N.3   152  LEU152     -0.1245
    185  CA        14.5950  -39.0110    4.5810 C.3   152  LEU152      0.1561
    186  C         14.6440  -37.5350    4.7870 C.2   152  LEU152      0.2260
    187  O         15.2390  -36.8040    3.9910 O.2   152  LEU152     -0.2867
    188  CB        15.8670  -39.5990    5.1960 C.3   152  LEU152      0.0270
    189  CG        15.7290  -41.1320    5.2620 C.3   152  LEU152      0.0019
    190  CD1       17.0770  -41.6910    5.5560 C.3   152  LEU152      0.0001
    191  CD2       14.7170  -41.5990    6.2580 C.3   152  LEU152      0.0001
@<TRIPOS>BOND
     1   175   174    2
     2   174   173    1
     3   168   167    2
     4   172   173    1
     5   167   166    1
     6   173   176    1
     7   165   166    1
     8   176   177    1
     9    10     9    2
    10   166   169    1
    11     9     8    1
    12     7     8    1
    13     8    11    1
    14   177   179   ar
    15   177   178   ar
    16   160   159    2
    17   159   158    1
    18   179   181   ar
    19   169   171    1
    20   169   170    1
    21   184   185    1
    22     3     2    1
    23     3     4    2
    24   178   180   ar
    25   158   157    1
    26   158   161    1
    27   187   186    2
    28    11    12    1
    29   181   182   ar
    30     2     1    1
    31     2     5    1
    32   185   186    1
    33   185   188    1
    34   162   161    1
    35   162   163    1
    36    14    12    1
    37   180   182   ar
    38    12    13    1
    39   188   189    1
    40   182   183    1
    41   189   190    1
    42   189   191    1
    43     5     6    1
    44   149   148    2
    45   148   147    1
    46   163   164    1
    47    74    73    2
    48   147   146    1
    49   147   150    1
    50   155   153   ar
    51   155   156   ar
    52    71    72    1
    53    75    76    1
    54    75    72    1
    55   153   151   ar
    56    73    72    1
    57    83    82    1
    58    68    67    1
    59    68    69    1
    60    67    64    1
    61    66    65    2
    62   156   154   ar
    63    84    82    1
    64   151   150    1
    65   151   152   ar
    66   154   152   ar
    67    36    34    1
    68    82    81    1
    69    65    64    1
    70    64    63    1
    71    69    70    1
    72    50    51    1
    73    50    47    1
    74    49    48    2
    75    81    78    1
    76    48    47    1
    77    51    52    1
    78    31    32    2
    79    31    30    1
    80    58    57    2
    81    34    33    1
    82    34    35    1
    83    33    30    1
    84    78    77    1
    85    78    79    1
    86    52    53    1
    87    47    46    1
    88    53    54    1
    89    30    29    1
    90    15    16    1
    91    90    89    1
    92   131   130    1
    93    29    17   am
    94    57    56    1
    95    46    39   am
    96    79    80    2
    97    89    86    1
    98    17    16    1
    99    17    18    2
   100    86    85    1
   101    86    87    1
   102    55    56    1
   103   130   129    1
   104    37    38    1
   105    16    19    1
   106    39    40    2
   107    39    38    1
   108    56    59    1
   109   127   126    2
   110    59    60    1
   111    87    88    2
   112   128   129    1
   113   128   125    1
   114    38    41    1
   115    95    92    1
   116    95    96    1
   117    19    20    1
   118    92    91    1
   119    92    93    1
   120   126   125    1
   121    41    42    1
   122    60    61    1
   123    60    62    1
   124   125   124    1
   125    96    98   ar
   126    96    97   ar
   127    93    94    2
   128    98   100   ar
   129    25    22   ar
   130    25    27   ar
   131    20    22   ar
   132    20    21   ar
   133   116   115    2
   134    22    24   ar
   135    42    43    1
   136    97    99   ar
   137    27    28   ar
   138    21    23   ar
   139   100   101   ar
   140   115   114    1
   141    43    44    1
   142    99   101   ar
   143    24    23   ar
   144    24    26   ar
   145    28    26   ar
   146   113   114    1
   147   102   103    1
   148   140   138   ar
   149   140   141   ar
   150   138   137   ar
   151   117   114    1
   152   117   118    1
   153   141   143   ar
   154   141   139   ar
   155   137   136    1
   156   137   139   ar
   157   143   145   ar
   158   103   106    1
   159   103   104    1
   160   136   133    1
   161   139   142   ar
   162    44    45    1
   163   145   144   ar
   164   118   119    1
   165   142   144   ar
   166   106   107    1
   167   104   105    2
   168   135   134    2
   169   119   120    1
   170   133   134    1
   171   133   132    1
   172   120   121    2
   173   107   108    1
   174   112   110    1
   175   123   121    1
   176   121   122    1
   177   110   109    2
   178   110   111    1
   179   109   108    1
