@<TRIPOS>MOLECULE
tmp/3o31B00.pdb
 161 153 0 0 0
SMALL
GASTEIGER

@<TRIPOS>ATOM
      1  N         -4.8020    2.6530   20.0730 N.3    72  TYR72      -0.1241
      2  CA        -4.1720    1.4040   20.4860 C.3    72  TYR72       0.1605
      3  C         -3.9900    1.3460   22.0030 C.2    72  TYR72       0.2264
      4  O         -4.3480    0.3400   22.6180 O.2    72  TYR72      -0.2867
      5  CB        -2.8540    1.2540   19.7610 C.3    72  TYR72       0.0534
      6  CG        -1.9590    0.1430   20.2710 C.ar   72  TYR72      -0.0201
      7  CD1       -2.1800   -1.1860   19.9130 C.ar   72  TYR72      -0.0009
      8  CD2       -0.8610    0.4420   21.0590 C.ar   72  TYR72      -0.0009
      9  CE1       -1.3100   -2.2180   20.3600 C.ar   72  TYR72       0.0417
     10  CE2        0.0060   -0.5550   21.5130 C.ar   72  TYR72       0.0417
     11  CZ        -0.2300   -1.8810   21.1630 C.ar   72  TYR72       0.1957
     12  OH         0.6670   -2.8400   21.6300 O.3    72  TYR72      -0.2866
     13  N         -7.8470   -4.9540   28.7810 N.3    80  GLN80      -0.1245
     14  CA        -7.2820   -5.4530   30.0490 C.3    80  GLN80       0.1566
     15  C         -8.2180   -5.2920   31.2390 C.2    80  GLN80       0.2260
     16  O         -8.3640   -6.2110   32.0390 O.2    80  GLN80      -0.2867
     17  CB        -5.9900   -4.7460   30.3830 C.3    80  GLN80       0.0367
     18  CG        -4.7900   -5.1940   29.6090 C.3    80  GLN80       0.0905
     19  CD        -3.5640   -4.5120   30.1600 C.2    80  GLN80       0.2608
     20  OE1       -2.9760   -3.6350   29.5120 O.2    80  GLN80      -0.2717
     21  NE2       -3.2490   -4.8050   31.4010 N.am   80  GLN80      -0.0878
     22  N         -5.2200  -10.9990   23.0310 N.3   102  PHE102     -0.1241
     23  CA        -3.7920  -11.0100   22.7670 C.3   102  PHE102      0.1605
     24  C         -3.0100  -12.1660   23.4310 C.2   102  PHE102      0.2264
     25  O         -1.7980  -12.2420   23.2870 O.2   102  PHE102     -0.2867
     26  CB        -3.1770   -9.6940   23.2490 C.3   102  PHE102      0.0534
     27  CG        -3.6460   -8.4820   22.4920 C.ar  102  PHE102     -0.0203
     28  CD1       -3.4320   -8.3740   21.1260 C.ar  102  PHE102     -0.0042
     29  CD2       -4.2880   -7.4460   23.1560 C.ar  102  PHE102     -0.0042
     30  CE1       -3.8410   -7.2440   20.4100 C.ar  102  PHE102     -0.0003
     31  CE2       -4.7140   -6.3010   22.4550 C.ar  102  PHE102     -0.0003
     32  CZ        -4.4760   -6.1980   21.0780 C.ar  102  PHE102     -0.0000
     33  N          0.0470  -14.3100   21.9630 N.3   105  ARG105     -0.1231
     34  CA         1.1910  -13.4480   21.6860 C.3   105  ARG105      0.1694
     35  C          2.1190  -13.3150   22.8860 C.2   105  ARG105      0.2592
     36  O          3.3280  -13.2270   22.7310 O.2   105  ARG105     -0.2718
     37  CB         0.7480  -12.0650   21.2240 C.3   105  ARG105      0.0321
     38  CG        -0.1740  -12.1190   20.0190 C.3   105  ARG105      0.0489
     39  CD        -0.4920  -10.7320   19.5640 C.3   105  ARG105      0.2205
     40  NE        -1.7380  -10.7080   18.8170 N.pl3 105  ARG105     -0.0865
     41  CZ        -2.1220   -9.6900   18.0470 C.cat 105  ARG105      0.5346
     42  NH1       -1.3200   -8.6470   17.8550 N.pl3 105  ARG105      0.1354
     43  NH2       -3.3150   -9.7290   17.4650 N.pl3 105  ARG105      0.1354
     44  N          1.5470  -13.2820   24.0920 N.am  106  TYR106     -0.1976
     45  CA         2.3610  -13.1630   25.2920 C.3   106  TYR106      0.1639
     46  C          3.2410  -14.3950   25.4720 C.2   106  TYR106      0.2290
     47  O          4.3820  -14.2760   25.8940 O.2   106  TYR106     -0.2864
     48  CB         1.4620  -13.0010   26.5170 C.3   106  TYR106      0.0560
     49  CG         0.9060  -11.6170   26.6860 C.ar  106  TYR106     -0.0198
     50  CD1        1.4270  -10.7710   27.6680 C.ar  106  TYR106     -0.0009
     51  CD2       -0.1420  -11.1490   25.8820 C.ar  106  TYR106     -0.0009
     52  CE1        0.9100   -9.4830   27.8760 C.ar  106  TYR106      0.0417
     53  CE2       -0.6710   -9.8480   26.0690 C.ar  106  TYR106      0.0417
     54  CZ        -0.1130   -9.0230   27.0680 C.ar  106  TYR106      0.1957
     55  OH        -0.5930   -7.7610   27.2910 O.3   106  TYR106     -0.2866
     56  N          6.0840  -14.0010   22.9230 N.3   109  LEU109     -0.1245
     57  CA         6.9010  -12.8710   23.3530 C.3   109  LEU109      0.1561
     58  C          7.7630  -13.2470   24.5650 C.2   109  LEU109      0.2260
     59  O          8.9650  -12.9890   24.5620 O.2   109  LEU109     -0.2867
     60  CB         6.0030  -11.6760   23.6850 C.3   109  LEU109      0.0270
     61  CG         6.7000  -10.4300   24.2110 C.3   109  LEU109      0.0019
     62  CD1        7.6390   -9.8760   23.1730 C.3   109  LEU109      0.0001
     63  CD2        5.6390   -9.3900   24.6030 C.3   109  LEU109      0.0001
     64  N          8.6780   -6.3280   37.3070 N.3   127  PHE127     -0.1241
     65  CA         8.0480   -5.9220   36.0670 C.3   127  PHE127      0.1605
     66  C          7.3920   -4.5860   36.3190 C.2   127  PHE127      0.2264
     67  O          6.4550   -4.4880   37.1150 O.2   127  PHE127     -0.2867
     68  CB         7.0020   -6.9520   35.6160 C.3   127  PHE127      0.0534
     69  CG         6.3460   -6.6060   34.3080 C.ar  127  PHE127     -0.0203
     70  CD1        6.8960   -7.0590   33.1050 C.ar  127  PHE127     -0.0042
     71  CD2        5.1910   -5.8360   34.2700 C.ar  127  PHE127     -0.0042
     72  CE1        6.2980   -6.7220   31.8750 C.ar  127  PHE127     -0.0003
     73  CE2        4.5930   -5.4740   33.0200 C.ar  127  PHE127     -0.0003
     74  CZ         5.1480   -5.9270   31.8450 C.ar  127  PHE127     -0.0000
     75  N          5.0030   -1.7250   35.3710 N.3   129  GLY129     -0.1210
     76  CA         3.8310   -1.3610   34.5660 C.3   129  GLY129      0.1956
     77  C          2.8350   -2.4930   34.3420 C.2   129  GLY129      0.2612
     78  O          2.4100   -2.7130   33.2200 O.2   129  GLY129     -0.2717
     79  N          2.4460   -3.1960   35.4090 N.am  130  GLY130     -0.1956
     80  CA         1.5520   -4.3650   35.2920 C.3   130  GLY130      0.1869
     81  C          0.1950   -4.1610   34.6220 C.2   130  GLY130      0.2309
     82  O         -0.3110   -5.0520   33.9200 O.2   130  GLY130     -0.2863
     83  N         -4.3700   -6.2230   33.9840 N.3   133  LEU133     -0.1245
     84  CA        -4.2050   -7.6490   33.7050 C.3   133  LEU133      0.1561
     85  C         -2.6950   -7.9420   33.6170 C.2   133  LEU133      0.2260
     86  O         -2.0650   -7.7280   32.5810 O.2   133  LEU133     -0.2867
     87  CB        -4.9490   -8.0550   32.4160 C.3   133  LEU133      0.0270
     88  CG        -5.1060   -9.5500   32.1530 C.3   133  LEU133      0.0019
     89  CD1       -6.2410  -10.1150   33.0110 C.3   133  LEU133      0.0001
     90  CD2       -5.3380   -9.8760   30.6770 C.3   133  LEU133      0.0001
     91  N          2.1380  -10.6640   32.0020 N.3   136  THR136     -0.1218
     92  CA         3.5690  -10.9890   31.9530 C.3   136  THR136      0.1862
     93  C          4.0350  -11.4790   33.3270 C.2   136  THR136      0.2287
     94  O          4.7020  -12.5140   33.4330 O.2   136  THR136     -0.2866
     95  CB         4.4370   -9.8000   31.4660 C.3   136  THR136      0.1770
     96  OG1        4.0080   -9.3970   30.1550 O.3   136  THR136     -0.2211
     97  CG2        5.9150  -10.1780   31.4370 C.3   136  THR136      0.0375
     98  N          7.4620   -2.4840   30.9640 N.3   194  ALA194     -0.1231
     99  CA         6.2920   -2.7450   30.1170 C.3   194  ALA194      0.1694
    100  C          6.2890   -1.8840   28.8500 C.2   194  ALA194      0.2592
    101  O          6.8060   -0.7720   28.8520 O.2   194  ALA194     -0.2718
    102  CB         5.0080   -2.5130   30.9030 C.3   194  ALA194      0.0304
    103  N          5.6840   -2.3960   27.7810 N.am  195  ALA195     -0.1966
    104  CA         5.6330   -1.6630   26.5100 C.3   195  ALA195      0.1728
    105  C          5.0470   -0.2620   26.7010 C.2   195  ALA195      0.2616
    106  O          5.5400    0.7130   26.1280 O.2   195  ALA195     -0.2715
    107  CB         4.7940   -2.4490   25.5020 C.3   195  ALA195      0.0334
    108  N          4.0240   -0.1680   27.5480 N.am  196  LEU196     -0.1977
    109  CA         3.2920    1.0900   27.7100 C.3   196  LEU196      0.1596
    110  C          3.6420    1.8650   28.9910 C.2   196  LEU196      0.2287
    111  O          2.9620    2.8490   29.3330 O.2   196  LEU196     -0.2864
    112  CB         1.7830    0.8360   27.5900 C.3   196  LEU196      0.0297
    113  CG         1.1190    0.8430   26.1960 C.3   196  LEU196      0.0022
    114  CD1        1.9930    0.4780   24.9790 C.3   196  LEU196      0.0001
    115  CD2       -0.1970    0.0600   26.1880 C.3   196  LEU196      0.0001
    116  N         10.3790   -3.2980   26.3490 N.3   220  ARG220     -0.1245
    117  CA         9.5780   -3.5690   25.1590 C.3   220  ARG220      0.1563
    118  C          9.4070   -2.2790   24.3630 C.2   220  ARG220      0.2260
    119  O          9.2310   -1.1970   24.9220 O.2   220  ARG220     -0.2867
    120  CB         8.2180   -4.1670   25.5350 C.3   220  ARG220      0.0307
    121  CG         8.3260   -5.6280   25.9420 C.3   220  ARG220      0.0489
    122  CD         7.1290   -6.0800   26.7350 C.3   220  ARG220      0.2205
    123  NE         7.2820   -7.4800   27.1290 N.pl3 220  ARG220     -0.0865
    124  CZ         6.4050   -8.1470   27.8860 C.cat 220  ARG220      0.5346
    125  NH1        5.3230   -7.5290   28.3640 N.pl3 220  ARG220      0.1354
    126  NH2        6.6350   -9.4330   28.1810 N.pl3 220  ARG220      0.1354
    127  N          8.6850   -0.7970   19.8700 N.3   222  TYR222     -0.1241
    128  CA         7.9950   -0.9900   18.5970 C.3   222  TYR222      0.1605
    129  C          8.9240   -0.5670   17.4890 C.2   222  TYR222      0.2264
    130  O          9.5050    0.5250   17.5640 O.2   222  TYR222     -0.2867
    131  CB         6.7150   -0.1350   18.5490 C.3   222  TYR222      0.0534
    132  CG         5.7060   -0.5760   19.6020 C.ar  222  TYR222     -0.0201
    133  CD1        5.8390   -0.1660   20.9490 C.ar  222  TYR222     -0.0009
    134  CD2        4.6520   -1.4210   19.2650 C.ar  222  TYR222     -0.0009
    135  CE1        4.9530   -0.5940   21.9270 C.ar  222  TYR222      0.0417
    136  CE2        3.7170   -1.8490   20.2560 C.ar  222  TYR222      0.0417
    137  CZ         3.9000   -1.4220   21.5810 C.ar  222  TYR222      0.1957
    138  OH         3.0500   -1.8470   22.5560 O.3   222  TYR222     -0.2866
    139  N          2.9240  -11.0650   16.9670 N.3   253  VAL253     -0.1231
    140  CA         3.5480  -10.3960   18.1040 C.3   253  VAL253      0.1692
    141  C          3.8820   -8.9740   17.7160 C.2   253  VAL253      0.2592
    142  O          4.4100   -8.7300   16.6250 O.2   253  VAL253     -0.2718
    143  CB         4.8130  -11.1440   18.5750 C.3   253  VAL253      0.0266
    144  CG1        5.4710  -10.3890   19.7310 C.3   253  VAL253      0.0020
    145  CG2        4.4540  -12.5700   18.9860 C.3   253  VAL253      0.0020
    146  N          3.5500   -8.0210   18.5950 N.am  254  ASN254     -0.1960
    147  CA         3.8350   -6.6170   18.3180 C.3   254  ASN254      0.1819
    148  C          5.1500   -6.0450   18.8490 C.2   254  ASN254      0.2621
    149  O          5.7630   -5.1830   18.2000 O.2   254  ASN254     -0.2715
    150  CB         2.6470   -5.7650   18.8210 C.3   254  ASN254      0.1195
    151  CG         1.4140   -5.8810   17.8950 C.2   254  ASN254      0.2630
    152  OD1        1.5550   -6.1140   16.6970 O.2   254  ASN254     -0.2716
    153  ND2        0.2160   -5.7300   18.4610 N.am  254  ASN254     -0.0877
    154  N          5.5510   -6.4690   20.0500 N.am  255  ASN255     -0.1972
    155  CA         6.7030   -5.8420   20.7130 C.3   255  ASN255      0.1688
    156  C          8.0540   -6.4050   20.2640 C.2   255  ASN255      0.2292
    157  O          8.2180   -7.6240   20.1310 O.2   255  ASN255     -0.2864
    158  CB         6.6560   -6.0720   22.2320 C.3   255  ASN255      0.1181
    159  CG         5.5780   -5.2660   22.9300 C.2   255  ASN255      0.2629
    160  OD1        5.0580   -5.7050   23.9470 O.2   255  ASN255     -0.2716
    161  ND2        5.3010   -4.0640   22.4400 N.am  255  ASN255     -0.0877
@<TRIPOS>BOND
     1   142   141    2
     2   152   151    2
     3   139   140    1
     4    43    41    1
     5   129   130    2
     6   129   128    1
     7   141   140    1
     8   141   146   am
     9    42    41    1
    10   151   153   am
    11   151   150    1
    12    41    40    2
    13   140   143    1
    14   149   148    2
    15   147   146    1
    16   147   150    1
    17   147   148    1
    18   131   128    1
    19   131   132    1
    20   143   145    1
    21   143   144    1
    22   128   127    1
    23    40    39    1
    24   148   154   am
    25   134   132   ar
    26   134   136   ar
    27    39    38    1
    28   132   133   ar
    29     5     6    1
    30     5     2    1
    31     7     6   ar
    32     7     9   ar
    33    38    37    1
    34   154   155    1
    35     1     2    1
    36   157   156    2
    37   136   137   ar
    38   156   155    1
    39     6     8   ar
    40     9    11   ar
    41    30    32   ar
    42    30    28   ar
    43     2     3    1
    44   155   158    1
    45   133   135   ar
    46     8    10   ar
    47    32    31   ar
    48    28    27   ar
    49    11    10   ar
    50    11    12    1
    51    37    34    1
    52   137   135   ar
    53   137   138    1
    54    34    33    1
    55    34    35    1
    56     3     4    2
    57   158   159    1
    58   161   159   am
    59    31    29   ar
    60    27    29   ar
    61    27    26    1
    62    36    35    2
    63    23    22    1
    64    23    26    1
    65    23    24    1
    66    35    44   am
    67    56    57    1
    68   159   160    2
    69    62    61    1
    70    25    24    2
    71    57    60    1
    72    57    58    1
    73    60    61    1
    74    44    45    1
    75    61    63    1
    76   118   119    2
    77   118   117    1
    78    59    58    2
    79   114   113    1
    80   117   120    1
    81   117   116    1
    82    45    46    1
    83    45    48    1
    84    46    47    2
    85   107   104    1
    86   120   121    1
    87    51    53   ar
    88    51    49   ar
    89   121   122    1
    90    53    54   ar
    91   106   105    2
    92   115   113    1
    93   113   112    1
    94   104   105    1
    95   104   103    1
    96    48    49    1
    97    49    50   ar
    98   105   108   am
    99   122   123    1
   100    54    55    1
   101    54    52   ar
   102   123   124    2
   103   108   109    1
   104   112   109    1
   105    50    52   ar
   106   109   110    1
   107   103   100   am
   108   124   126    1
   109   124   125    1
   110    13    14    1
   111   100   101    2
   112   100    99    1
   113   110   111    2
   114    20    19    2
   115    18    19    1
   116    18    17    1
   117    14    17    1
   118    14    15    1
   119    99   102    1
   120    99    98    1
   121    96    95    1
   122    19    21   am
   123    90    88    1
   124    15    16    2
   125    97    95    1
   126    95    92    1
   127    74    72   ar
   128    74    73   ar
   129    72    70   ar
   130    92    91    1
   131    92    93    1
   132    88    87    1
   133    88    89    1
   134    87    84    1
   135    86    85    2
   136    73    71   ar
   137    70    69   ar
   138    78    77    2
   139    93    94    2
   140    85    84    1
   141    84    83    1
   142    82    81    2
   143    71    69   ar
   144    69    68    1
   145    77    76    1
   146    77    79   am
   147    76    75    1
   148    81    80    1
   149    80    79    1
   150    68    65    1
   151    65    66    1
   152    65    64    1
   153    66    67    2
