@<TRIPOS>MOLECULE
tmp/3o32A00.pdb
 129 123 0 0 0
SMALL
GASTEIGER

@<TRIPOS>ATOM
      1  N         25.8890   57.1360  288.2780 N.3    48  LEU48      -0.1245
      2  CA        26.7920   57.3290  289.4340 C.3    48  LEU48       0.1561
      3  C         28.0720   58.0360  289.0330 C.2    48  LEU48       0.2260
      4  O         28.5740   58.9120  289.7540 O.2    48  LEU48      -0.2867
      5  CB        27.1630   56.0120  290.1130 C.3    48  LEU48       0.0270
      6  CG        28.0950   56.0660  291.3460 C.3    48  LEU48       0.0019
      7  CD1       27.5760   56.9770  292.4240 C.3    48  LEU48       0.0001
      8  CD2       28.3700   54.6780  291.9120 C.3    48  LEU48       0.0001
      9  N         27.2400   61.8850  287.6220 N.3    51  ASP51      -0.1225
     10  CA        26.8260   62.7620  288.6970 C.3    51  ASP51       0.1805
     11  C         28.0310   63.0600  289.6060 C.2    51  ASP51       0.2597
     12  O         28.2520   64.2230  289.9690 O.2    51  ASP51      -0.2718
     13  CB        25.6330   62.2060  289.4760 C.3    51  ASP51       0.1424
     14  CG        24.4080   61.9650  288.6060 C.2    51  ASP51       0.3668
     15  OD1       24.1450   62.6900  287.6180 O.co2  51  ASP51      -0.2456
     16  OD2       23.6520   61.0420  288.9310 O.co2  51  ASP51      -0.2456
     17  N         28.8220   62.0290  289.9320 N.am   52  ALA52      -0.1979
     18  CA        29.9870   62.2060  290.8340 C.3    52  ALA52       0.1597
     19  C         30.9910   63.2400  290.3490 C.2    52  ALA52       0.2287
     20  O         31.4540   64.0920  291.1200 O.2    52  ALA52      -0.2864
     21  CB        30.7170   60.8730  291.1200 C.3    52  ALA52       0.0319
     22  N         22.9520   68.7170  294.0060 N.3    73  ILE73      -0.1245
     23  CA        22.8260   67.6870  293.0020 C.3    73  ILE73       0.1561
     24  C         21.8110   66.6240  293.4210 C.2    73  ILE73       0.2260
     25  O         21.6670   66.3080  294.6180 O.2    73  ILE73      -0.2867
     26  CB        24.2300   67.0780  292.6410 C.3    73  ILE73       0.0252
     27  CG1       24.6690   65.9400  293.5920 C.3    73  ILE73       0.0019
     28  CG2       25.2770   68.1690  292.5520 C.3    73  ILE73       0.0019
     29  CD1       25.9900   65.2420  293.2450 C.3    73  ILE73       0.0001
     30  N         21.9520   63.4680  292.2340 N.3    75  GLY75      -0.1210
     31  CA        22.6050   62.1740  292.2220 C.3    75  GLY75       0.1940
     32  C         21.7410   61.1820  291.4970 C.2    75  GLY75       0.2454
     33  O         20.6210   61.5110  291.1050 O.2    75  GLY75      -0.2732
     34  N         22.2320   59.9410  291.3360 N.am   76  PRO76      -0.2717
     35  CA        21.5790   58.8540  290.5520 C.3    76  PRO76       0.1535
     36  C         20.4990   57.9900  291.2840 C.2    76  PRO76       0.2598
     37  O         19.9830   57.0080  290.7050 O.2    76  PRO76      -0.2715
     38  CB        22.7640   57.9610  290.2120 C.3    76  PRO76       0.0310
     39  CG        23.6180   58.0380  291.4800 C.3    76  PRO76       0.0237
     40  CD        23.4790   59.4740  291.9770 C.3    76  PRO76       0.0939
     41  N         20.1520   58.3160  292.5280 N.am   77  PHE77      -0.1974
     42  CA        19.3440   57.3630  293.2960 C.3    77  PHE77       0.1639
     43  C         17.9240   57.7990  293.5430 C.2    77  PHE77       0.2290
     44  O         17.2420   57.2160  294.3990 O.2    77  PHE77      -0.2864
     45  CB        20.0260   56.9480  294.6000 C.3    77  PHE77       0.0560
     46  CG        21.4160   56.3880  294.4040 C.ar   77  PHE77      -0.0200
     47  CD1       22.5000   56.9680  295.0060 C.ar   77  PHE77      -0.0042
     48  CD2       21.6330   55.3070  293.5780 C.ar   77  PHE77      -0.0042
     49  CE1       23.7800   56.4320  294.8220 C.ar   77  PHE77      -0.0003
     50  CE2       22.9050   54.7920  293.3720 C.ar   77  PHE77      -0.0003
     51  CZ        23.9740   55.3420  293.9890 C.ar   77  PHE77      -0.0000
     52  N         21.0330   52.1690  298.6060 N.3   133  TYR133     -0.1241
     53  CA        19.8120   52.8310  298.2200 C.3   133  TYR133      0.1605
     54  C         18.8650   51.8130  297.5780 C.2   133  TYR133      0.2264
     55  O         19.2540   51.0980  296.6710 O.2   133  TYR133     -0.2867
     56  CB        20.1750   53.8750  297.1970 C.3   133  TYR133      0.0534
     57  CG        20.6940   55.1890  297.7440 C.ar  133  TYR133     -0.0201
     58  CD1       19.8040   56.1770  298.1950 C.ar  133  TYR133     -0.0009
     59  CD2       22.0760   55.4870  297.7480 C.ar  133  TYR133     -0.0009
     60  CE1       20.2680   57.4100  298.6550 C.ar  133  TYR133      0.0417
     61  CE2       22.5590   56.7420  298.2190 C.ar  133  TYR133      0.0417
     62  CZ        21.6450   57.6910  298.6740 C.ar  133  TYR133      0.1957
     63  OH        22.0760   58.9110  299.1620 O.3   133  TYR133     -0.2866
     64  N         28.5120   57.6480  303.2800 N.3   168  TYR168     -0.1241
     65  CA        28.3540   56.5810  302.2870 C.3   168  TYR168      0.1605
     66  C         29.6550   56.4530  301.4970 C.2   168  TYR168      0.2264
     67  O         30.4180   57.4060  301.3990 O.2   168  TYR168     -0.2867
     68  CB        27.1910   56.9650  301.3710 C.3   168  TYR168      0.0534
     69  CG        26.7980   55.9860  300.2800 C.ar  168  TYR168     -0.0201
     70  CD1       25.6750   55.1500  300.4240 C.ar  168  TYR168     -0.0009
     71  CD2       27.5000   55.9380  299.0840 C.ar  168  TYR168     -0.0009
     72  CE1       25.2870   54.2640  299.4000 C.ar  168  TYR168      0.0417
     73  CE2       27.1330   55.0310  298.0470 C.ar  168  TYR168      0.0417
     74  CZ        26.0230   54.2140  298.2050 C.ar  168  TYR168      0.1957
     75  OH        25.6810   53.3530  297.1790 O.3   168  TYR168     -0.2866
     76  N         30.9600   55.0570  297.8720 N.3   170  ILE170     -0.1245
     77  CA        30.8440   54.5100  296.5210 C.3   170  ILE170      0.1561
     78  C         31.6780   53.2270  296.4750 C.2   170  ILE170      0.2260
     79  O         32.8220   53.2410  296.8920 O.2   170  ILE170     -0.2867
     80  CB        31.3240   55.5920  295.5250 C.3   170  ILE170      0.0252
     81  CG1       30.5120   56.8790  295.7640 C.3   170  ILE170      0.0019
     82  CG2       31.2000   55.1250  294.0810 C.3   170  ILE170      0.0019
     83  CD1       31.1100   58.1370  295.2220 C.3   170  ILE170      0.0001
     84  N         30.9790   59.8090  300.4150 N.3   190  ARG190     -0.1245
     85  CA        30.1680   61.0180  300.5910 C.3   190  ARG190      0.1563
     86  C         29.7940   61.1620  302.0740 C.2   190  ARG190      0.2260
     87  O         29.7810   60.1800  302.8290 O.2   190  ARG190     -0.2867
     88  CB        28.8940   60.9920  299.7500 C.3   190  ARG190      0.0307
     89  CG        29.0480   61.0350  298.2150 C.3   190  ARG190      0.0489
     90  CD        27.8220   61.6850  297.6140 C.3   190  ARG190      0.2205
     91  NE        27.7800   63.0870  298.0290 N.pl3 190  ARG190     -0.0865
     92  CZ        26.6850   63.7850  298.3500 C.cat 190  ARG190      0.5346
     93  NH1       25.4690   63.2390  298.2960 N.pl3 190  ARG190      0.1354
     94  NH2       26.8210   65.0590  298.7350 N.pl3 190  ARG190      0.1354
     95  N         23.8470   62.4510  304.1400 N.3   193  HIS193     -0.1241
     96  CA        22.9590   63.4110  303.5150 C.3   193  HIS193      0.1621
     97  C         21.5480   62.8300  303.3860 C.2   193  HIS193      0.2264
     98  O         21.3520   61.6080  303.1970 O.2   193  HIS193     -0.2867
     99  CB        23.5320   63.8890  302.1470 C.3   193  HIS193      0.0745
    100  CG        23.7650   62.7840  301.1900 C.ar  193  HIS193      0.0817
    101  ND1       24.8940   61.9980  301.2280 N.ar  193  HIS193     -0.2268
    102  CD2       22.9710   62.2540  300.2330 C.ar  193  HIS193      0.1154
    103  CE1       24.8040   61.0490  300.3070 C.ar  193  HIS193      0.1986
    104  NE2       23.6490   61.1940  299.6760 N.ar  193  HIS193     -0.2212
    105  N         18.4660   63.3070  300.8700 N.3   195  HIS195     -0.1241
    106  CA        18.0320   63.9270  299.6020 C.3   195  HIS195      0.1621
    107  C         16.6230   64.4900  299.7410 C.2   195  HIS195      0.2264
    108  O         15.7680   63.8360  300.3500 O.2   195  HIS195     -0.2867
    109  CB        18.0140   62.9250  298.4770 C.3   195  HIS195      0.0745
    110  CG        19.3700   62.4590  298.0400 C.ar  195  HIS195      0.0817
    111  ND1       20.1400   63.1540  297.1260 N.ar  195  HIS195     -0.2268
    112  CD2       20.0620   61.3280  298.3300 C.ar  195  HIS195      0.1154
    113  CE1       21.2670   62.4970  296.9150 C.ar  195  HIS195      0.1986
    114  NE2       21.2430   61.3820  297.6270 N.ar  195  HIS195     -0.2212
    115  N         20.0230   68.8280  299.1860 N.3   209  GLN209     -0.1245
    116  CA        20.5200   67.7590  300.0660 C.3   209  GLN209      0.1566
    117  C         20.8160   68.3920  301.3940 C.2   209  GLN209      0.2260
    118  O         21.2010   69.5550  301.4640 O.2   209  GLN209     -0.2867
    119  CB        21.8340   67.2120  299.5350 C.3   209  GLN209      0.0367
    120  CG        21.7170   66.3690  298.3380 C.3   209  GLN209      0.0905
    121  CD        23.0000   65.6330  298.0300 C.2   209  GLN209      0.2608
    122  OE1       23.6850   65.1520  298.9240 O.2   209  GLN209     -0.2717
    123  NE2       23.3450   65.5550  296.7580 N.am  209  GLN209     -0.0878
    124  N         31.9890   63.5330  295.9260 N.3   223  CYS223     -0.1235
    125  CA        31.1760   64.0850  294.8620 C.3   223  CYS223      0.1677
    126  C         31.1290   65.6260  294.8460 C.2   223  CYS223      0.2270
    127  O         30.6330   66.2460  293.8850 O.2   223  CYS223     -0.2867
    128  CB        29.7950   63.4410  294.8990 C.3   223  CYS223      0.0956
    129  SG        29.9170   61.6580  294.7260 S.3   223  CYS223     -0.0801
@<TRIPOS>BOND
     1    15    14   ar
     2     9    10    1
     3     1     2    1
     4    14    16   ar
     5    14    13    1
     6    10    13    1
     7    10    11    1
     8     3     2    1
     9     3     4    2
    10     2     5    1
    11    11    17   am
    12    11    12    2
    13    17    18    1
    14     5     6    1
    15    38    35    1
    16    38    39    1
    17    19    18    1
    18    19    20    2
    19    35    36    1
    20    35    34    1
    21    37    36    2
    22    18    21    1
    23    33    32    2
    24    36    41   am
    25    34    32   am
    26    34    40    1
    27     6     8    1
    28     6     7    1
    29    39    40    1
    30    32    31    1
    31    31    30    1
    32    41    42    1
    33    28    26    1
    34    26    23    1
    35    26    27    1
    36    23    24    1
    37    23    22    1
    38    29    27    1
    39    42    43    1
    40    42    45    1
    41    50    48   ar
    42    50    51   ar
    43    24    25    2
    44    43    44    2
    45    48    46   ar
    46   127   126    2
    47    51    49   ar
    48    82    80    1
    49    46    45    1
    50    46    47   ar
    51   129   128    1
    52    49    47   ar
    53   126   125    1
    54   125   128    1
    55   125   124    1
    56    83    81    1
    57    80    81    1
    58    80    77    1
    59    78    77    1
    60    78    79    2
    61    77    76    1
    62    55    54    2
    63   123   121   am
    64   113   111   ar
    65   113   114   ar
    66   111   110   ar
    67    75    74    1
    68    56    57    1
    69    56    53    1
    70    54    53    1
    71    90    91    1
    72    90    89    1
    73   114   112   ar
    74    57    59   ar
    75    57    58   ar
    76    59    61   ar
    77    91    92    2
    78   121   120    1
    79   121   122    2
    80   110   112   ar
    81   110   109    1
    82    73    74   ar
    83    73    71   ar
    84    58    60   ar
    85    74    72   ar
    86    89    88    1
    87    61    62   ar
    88    53    52    1
    89    93    92    1
    90   120   119    1
    91    92    94    1
    92   109   106    1
    93    60    62   ar
    94    62    63    1
    95    71    69   ar
    96   115   116    1
    97    72    70   ar
    98   119   116    1
    99   106   107    1
   100   106   105    1
   101   104   102   ar
   102   104   103   ar
   103   107   108    2
   104    88    85    1
   105   116   117    1
   106   102   100   ar
   107    69    70   ar
   108    69    68    1
   109   103   101   ar
   110    84    85    1
   111    85    86    1
   112   100   101   ar
   113   100    99    1
   114    68    65    1
   115   117   118    2
   116    67    66    2
   117    66    65    1
   118    86    87    2
   119    99    96    1
   120    65    64    1
   121    98    97    2
   122    97    96    1
   123    96    95    1
