@<TRIPOS>MOLECULE
tmp/3o3cD00.pdb
 117 114 0 0 0
SMALL
GASTEIGER

@<TRIPOS>ATOM
      1  N          8.1030  -21.6430   39.3640 N.3   309  GLY309     -0.1210
      2  CA         7.6120  -21.4830   40.7230 C.3   309  GLY309      0.1956
      3  C          8.0310  -22.5900   41.6690 C.2   309  GLY309      0.2611
      4  O          8.9500  -23.3550   41.3770 O.2   309  GLY309     -0.2717
      5  N          7.3510  -22.6580   42.8080 N.am  310  ARG310     -0.1979
      6  CA         7.5840  -23.6780   43.8160 C.3   310  ARG310      0.1597
      7  C          7.3200  -25.0270   43.1950 C.2   310  ARG310      0.2287
      8  O          6.4350  -25.1540   42.3570 O.2   310  ARG310     -0.2864
      9  CB         6.5770  -23.4740   44.9350 C.3   310  ARG310      0.0334
     10  CG         7.1070  -23.5350   46.3590 C.3   310  ARG310      0.0492
     11  CD         6.0040  -24.0150   47.3000 C.3   310  ARG310      0.2205
     12  NE         5.0800  -22.9940   47.7840 N.pl3 310  ARG310     -0.0865
     13  CZ         4.3620  -22.1640   47.0270 C.cat 310  ARG310      0.5346
     14  NH1        4.4800  -22.1530   45.7100 N.pl3 310  ARG310      0.1354
     15  NH2        3.5410  -21.2860   47.6000 N.pl3 310  ARG310      0.1354
     16  N          0.7420  -26.9960   40.9610 N.3   316  LYS316     -0.1245
     17  CA         1.1640  -25.9900   39.9800 C.3   316  LYS316      0.1561
     18  C          0.7760  -26.4110   38.5670 C.2   316  LYS316      0.2260
     19  O          0.8040  -25.6010   37.6350 O.2   316  LYS316     -0.2867
     20  CB         2.6730  -25.7320   40.0370 C.3   316  LYS316      0.0271
     21  CG         3.1420  -24.8440   41.1970 C.3   316  LYS316      0.0035
     22  CD         2.4480  -23.4890   41.2160 C.3   316  LYS316      0.0206
     23  CE         2.3940  -22.9440   42.6380 C.3   316  LYS316      0.1093
     24  NZ         1.0890  -22.3080   43.0240 N.3   316  LYS316     -0.1314
     25  N         11.2880  -24.1920   35.1890 N.3   346  VAL346     -0.1245
     26  CA        12.1260  -23.6070   36.2160 C.3   346  VAL346      0.1561
     27  C         11.4460  -23.8680   37.5410 C.2   346  VAL346      0.2260
     28  O         10.6190  -23.0770   37.9890 O.2   346  VAL346     -0.2867
     29  CB        12.2730  -22.0940   36.0020 C.3   346  VAL346      0.0252
     30  CG1       13.0910  -21.4900   37.0980 C.3   346  VAL346      0.0019
     31  CG2       12.9240  -21.8120   34.6610 C.3   346  VAL346      0.0019
     32  N         16.4090  -21.9260   40.8710 N.3   457  PHE457     -0.1227
     33  CA        16.0450  -20.5620   40.5400 C.3   457  PHE457      0.1736
     34  C         17.0920  -19.9040   39.6600 C.2   457  PHE457      0.2595
     35  O         18.2200  -20.3820   39.5280 O.2   457  PHE457     -0.2718
     36  CB        15.8410  -19.7110   41.7840 C.3   457  PHE457      0.0547
     37  CG        14.8270  -20.2600   42.7450 C.ar  457  PHE457     -0.0202
     38  CD1       13.4610  -20.0560   42.5460 C.ar  457  PHE457     -0.0042
     39  CD2       15.2470  -20.9580   43.8690 C.ar  457  PHE457     -0.0042
     40  CE1       12.5400  -20.5440   43.4400 C.ar  457  PHE457     -0.0003
     41  CE2       14.3340  -21.4530   44.7700 C.ar  457  PHE457     -0.0003
     42  CZ        12.9770  -21.2420   44.5610 C.ar  457  PHE457     -0.0000
     43  N         16.7110  -18.7790   39.0750 N.am  458  LEU458     -0.1980
     44  CA        17.5630  -18.1430   38.0930 C.3   458  LEU458      0.1596
     45  C         18.3120  -16.9510   38.6950 C.2   458  LEU458      0.2287
     46  O         17.7370  -16.1510   39.4410 O.2   458  LEU458     -0.2864
     47  CB        16.7470  -17.7740   36.8430 C.3   458  LEU458      0.0297
     48  CG        16.2870  -18.9930   36.0180 C.3   458  LEU458      0.0022
     49  CD1       15.2050  -18.6570   35.0160 C.3   458  LEU458      0.0001
     50  CD2       17.4540  -19.6160   35.3110 C.3   458  LEU458      0.0001
     51  N         15.5110  -14.1020   37.1290 N.3   469  TYR469     -0.1241
     52  CA        14.2090  -14.6080   36.7220 C.3   469  TYR469      0.1605
     53  C         13.4240  -13.5420   35.9520 C.2   469  TYR469      0.2264
     54  O         12.8450  -13.8380   34.9110 O.2   469  TYR469     -0.2867
     55  CB        13.4370  -15.1180   37.9370 C.3   469  TYR469      0.0534
     56  CG        11.9880  -15.4800   37.6980 C.ar  469  TYR469     -0.0201
     57  CD1       11.6240  -16.7540   37.3060 C.ar  469  TYR469     -0.0009
     58  CD2       10.9830  -14.5580   37.9150 C.ar  469  TYR469     -0.0009
     59  CE1       10.2980  -17.0900   37.1060 C.ar  469  TYR469      0.0417
     60  CE2        9.6570  -14.8850   37.7240 C.ar  469  TYR469      0.0417
     61  CZ         9.3180  -16.1520   37.3180 C.ar  469  TYR469      0.1957
     62  OH         7.9880  -16.4740   37.1360 O.3   469  TYR469     -0.2866
     63  N         -4.4020  -23.1140   43.8300 N.3   486  GLU486     -0.1245
     64  CA        -3.6080  -21.8920   43.7670 C.3   486  GLU486      0.1567
     65  C         -4.5040  -20.7180   44.1160 C.2   486  GLU486      0.2260
     66  O         -5.1910  -20.1660   43.2700 O.2   486  GLU486     -0.2867
     67  CB        -2.9690  -21.7260   42.3790 C.3   486  GLU486      0.0388
     68  CG        -2.3990  -20.3420   42.0730 C.3   486  GLU486      0.1160
     69  CD        -1.4840  -20.3260   40.8300 C.2   486  GLU486      0.3649
     70  OE1       -0.2870  -20.6710   40.9700 O.co2 486  GLU486     -0.2457
     71  OE2       -1.9520  -19.9660   39.7190 O.co2 486  GLU486     -0.2457
     72  N         -3.9370  -17.6490   44.9400 N.3   488  TRP488     -0.1227
     73  CA        -3.7310  -16.4580   44.1250 C.3   488  TRP488      0.1737
     74  C         -2.8960  -16.7640   42.9010 C.2   488  TRP488      0.2596
     75  O         -3.4020  -16.8490   41.7800 O.2   488  TRP488     -0.2718
     76  CB        -3.0780  -15.3180   44.9030 C.3   488  TRP488      0.0564
     77  CG        -2.9080  -14.1000   44.0580 C.ar  488  TRP488      0.0003
     78  CD1       -1.7390  -13.5040   43.7040 C.ar  488  TRP488      0.0946
     79  CD2       -3.9500  -13.3500   43.4230 C.ar  488  TRP488      0.0152
     80  NE1       -1.9850  -12.4110   42.9020 N.ar  488  TRP488     -0.2442
     81  CE2       -3.3380  -12.3010   42.7130 C.ar  488  TRP488      0.0810
     82  CE3       -5.3430  -13.4610   43.3920 C.ar  488  TRP488      0.0012
     83  CZ2       -4.0700  -11.3710   41.9840 C.ar  488  TRP488      0.0191
     84  CZ3       -6.0670  -12.5380   42.6690 C.ar  488  TRP488      0.0001
     85  CH2       -5.4310  -11.5070   41.9780 C.ar  488  TRP488      0.0015
     86  N         -1.6040  -16.9270   43.1230 N.am  489  GLY489     -0.1942
     87  CA        -0.7080  -17.2030   42.0260 C.3   489  GLY489      0.2014
     88  C          0.0400  -15.9580   41.6180 C.2   489  GLY489      0.2639
     89  O         -0.3800  -15.2400   40.7290 O.2   489  GLY489     -0.2714
     90  N          1.1570  -15.6950   42.2700 N.am  490  TYR490     -0.1959
     91  CA         1.9190  -14.5250   41.9350 C.3   490  TYR490      0.1771
     92  C          2.7260  -14.7310   40.6730 C.2   490  TYR490      0.2620
     93  O          2.9220  -13.7840   39.9190 O.2   490  TYR490     -0.2715
     94  CB         2.8030  -14.1300   43.0960 C.3   490  TYR490      0.0574
     95  CG         2.2680  -12.9590   43.8840 C.ar  490  TYR490     -0.0198
     96  CD1        1.9380  -13.0840   45.2300 C.ar  490  TYR490     -0.0009
     97  CD2        2.1010  -11.7170   43.2770 C.ar  490  TYR490     -0.0009
     98  CE1        1.4630  -11.9900   45.9510 C.ar  490  TYR490      0.0417
     99  CE2        1.6290  -10.6220   43.9820 C.ar  490  TYR490      0.0417
    100  CZ         1.3150  -10.7640   45.3140 C.ar  490  TYR490      0.1957
    101  OH         0.8470   -9.6770   46.0090 O.3   490  TYR490     -0.2866
    102  N          3.1590  -15.9660   40.4160 N.am  491  THR491     -0.1951
    103  CA         3.9270  -16.2690   39.1960 C.3   491  THR491      0.1897
    104  C          3.2370  -15.8050   37.9110 C.2   491  THR491      0.2313
    105  O          3.8450  -15.0730   37.1330 O.2   491  THR491     -0.2863
    106  CB         4.3490  -17.7470   39.0880 C.3   491  THR491      0.1794
    107  OG1        3.4610  -18.5540   39.8710 O.3   491  THR491     -0.2208
    108  CG2        5.7600  -17.9230   39.6120 C.3   491  THR491      0.0378
    109  N          2.6410  -11.8540   37.9940 N.3   494  GLU494     -0.1245
    110  CA         3.8230  -11.0480   37.7580 C.3   494  GLU494      0.1567
    111  C          4.3270  -11.3130   36.3530 C.2   494  GLU494      0.2260
    112  O          5.0440  -10.5050   35.7680 O.2   494  GLU494     -0.2867
    113  CB         4.8980  -11.2720   38.8230 C.3   494  GLU494      0.0388
    114  CG         5.6960  -12.5440   38.7110 C.3   494  GLU494      0.1160
    115  CD         6.6820  -12.6880   39.8560 C.2   494  GLU494      0.3649
    116  OE1        7.8070  -13.1700   39.6070 O.co2 494  GLU494     -0.2457
    117  OE2        6.3320  -12.3130   41.0040 O.co2 494  GLU494     -0.2457
@<TRIPOS>BOND
     1    31    29    1
     2    54    53    2
     3    49    48    1
     4    25    26    1
     5    50    48    1
     6   112   111    2
     7    53    52    1
     8    29    26    1
     9    29    30    1
    10    48    47    1
    11    26    27    1
    12   111   110    1
    13    52    51    1
    14    52    55    1
    15    47    44    1
    16    59    57   ar
    17    59    61   ar
    18   105   104    2
    19    62    61    1
    20    57    56   ar
    21    61    60   ar
    22    27    28    2
    23    19    18    2
    24    56    58   ar
    25    56    55    1
    26    60    58   ar
    27   110   109    1
    28   110   113    1
    29   104   103    1
    30    44    45    1
    31    44    43    1
    32    18    17    1
    33    45    46    2
    34   114   113    1
    35   114   115    1
    36    43    34   am
    37   106   103    1
    38   106   108    1
    39   106   107    1
    40   103   102    1
    41     1     2    1
    42    35    34    2
    43   116   115   ar
    44    34    33    1
    45    71    69   ar
    46   115   117   ar
    47    93    92    2
    48    17    20    1
    49    17    16    1
    50    20    21    1
    51   102    92   am
    52    33    32    1
    53    33    36    1
    54    92    91    1
    55     2     3    1
    56    89    88    2
    57    69    70   ar
    58    69    68    1
    59    21    22    1
    60    22    23    1
    61     4     3    2
    62    88    87    1
    63    88    90   am
    64     3     5   am
    65    75    74    2
    66    36    37    1
    67    91    90    1
    68    91    94    1
    69    85    83   ar
    70    85    84   ar
    71    83    81   ar
    72    87    86    1
    73    68    67    1
    74     8     7    2
    75    67    64    1
    76    38    37   ar
    77    38    40   ar
    78    23    24    1
    79    84    82   ar
    80    81    80   ar
    81    81    79   ar
    82    37    39   ar
    83     5     6    1
    84    74    86   am
    85    74    73    1
    86    80    78   ar
    87    94    95    1
    88     7     6    1
    89    66    65    2
    90    97    95   ar
    91    97    99   ar
    92    82    79   ar
    93    79    77   ar
    94    40    42   ar
    95    78    77   ar
    96    64    63    1
    97    64    65    1
    98     6     9    1
    99    39    41   ar
   100    95    96   ar
   101    99   100   ar
   102    77    76    1
   103    73    76    1
   104    73    72    1
   105    42    41   ar
   106     9    10    1
   107    96    98   ar
   108   100    98   ar
   109   100   101    1
   110    14    13    1
   111    10    11    1
   112    13    15    1
   113    13    12    2
   114    11    12    1
