@<TRIPOS>MOLECULE
tmp/3o3dA00.pdb
 200 191 0 0 0
SMALL
GASTEIGER

@<TRIPOS>ATOM
      1  N         15.7360  -10.5200   37.0210 N.3     5  MET5       -0.1245
      2  CA        16.2130   -9.3170   37.6730 C.3     5  MET5        0.1570
      3  C         17.1500   -8.6410   36.7010 C.2     5  MET5        0.2261
      4  O         18.0410   -9.3000   36.1180 O.2     5  MET5       -0.2867
      5  CB        16.9000   -9.5940   39.0360 C.3     5  MET5        0.0387
      6  CG        17.2790   -8.2980   39.7130 C.3     5  MET5        0.0595
      7  SD        17.8110   -8.4890   41.3980 S.3     5  MET5       -0.1393
      8  CE        19.3660   -9.2820   41.2170 C.3     5  MET5        0.0692
      9  N         19.4020   -4.8540   35.9810 N.3     7  TYR7       -0.1241
     10  CA        19.8440   -3.4830   36.2770 C.3     7  TYR7        0.1605
     11  C         20.2320   -2.8110   34.9760 C.2     7  TYR7        0.2264
     12  O         20.8410   -3.4500   34.1300 O.2     7  TYR7       -0.2867
     13  CB        21.0510   -3.5090   37.2070 C.3     7  TYR7        0.0534
     14  CG        20.6770   -3.8850   38.6320 C.ar    7  TYR7       -0.0201
     15  CD1       20.8720   -5.1900   39.1140 C.ar    7  TYR7       -0.0009
     16  CD2       20.1070   -2.9280   39.4790 C.ar    7  TYR7       -0.0009
     17  CE1       20.5200   -5.5110   40.4530 C.ar    7  TYR7        0.0417
     18  CE2       19.7740   -3.2360   40.7880 C.ar    7  TYR7        0.0417
     19  CZ        19.9650   -4.5100   41.2620 C.ar    7  TYR7        0.1957
     20  OH        19.5980   -4.7490   42.5740 O.3     7  TYR7       -0.2866
     21  N         21.7560    0.8800   33.2240 N.3     9  PHE9       -0.1241
     22  CA        22.5760    2.0160   33.5670 C.3     9  PHE9        0.1605
     23  C         22.7500    2.8390   32.3280 C.2     9  PHE9        0.2264
     24  O         23.0710    2.2900   31.2670 O.2     9  PHE9       -0.2867
     25  CB        23.9880    1.5560   34.0260 C.3     9  PHE9        0.0534
     26  CG        23.9660    0.5500   35.1150 C.ar    9  PHE9       -0.0203
     27  CD1       23.9490   -0.8090   34.8160 C.ar    9  PHE9       -0.0042
     28  CD2       23.9720    0.9630   36.4350 C.ar    9  PHE9       -0.0042
     29  CE1       23.9190   -1.7470   35.8070 C.ar    9  PHE9       -0.0003
     30  CE2       23.9490    0.0130   37.4900 C.ar    9  PHE9       -0.0003
     31  CZ        23.9000   -1.3520   37.1710 C.ar    9  PHE9       -0.0000
     32  N         20.6500    4.9760   37.0870 N.3    24  ALA24      -0.1245
     33  CA        20.5560    3.5320   37.2350 C.3    24  ALA24       0.1562
     34  C         19.1780    3.1700   37.7200 C.2    24  ALA24       0.2260
     35  O         18.6460    3.8260   38.6150 O.2    24  ALA24      -0.2867
     36  CB        21.5850    3.0090   38.2500 C.3    24  ALA24       0.0290
     37  N         20.9250    5.5780   46.5470 N.3    45  MET45      -0.1245
     38  CA        20.0080    4.6190   45.9100 C.3    45  MET45       0.1570
     39  C         18.6810    4.7060   46.6640 C.2    45  MET45       0.2261
     40  O         18.6680    4.7030   47.9160 O.2    45  MET45      -0.2867
     41  CB        20.5390    3.1830   45.9720 C.3    45  MET45       0.0387
     42  CG        19.6610    2.2010   45.1620 C.3    45  MET45       0.0595
     43  SD        19.9310    2.3050   43.3830 S.3    45  MET45      -0.1393
     44  CE        21.0850    1.0030   43.1950 C.3    45  MET45       0.0692
     45  N         21.8060   -2.3780   53.5160 N.3    59  TYR59      -0.1241
     46  CA        21.4340   -2.5780   52.1390 C.3    59  TYR59       0.1605
     47  C         21.4940   -1.2370   51.4400 C.2    59  TYR59       0.2264
     48  O         22.1370   -1.1350   50.3940 O.2    59  TYR59      -0.2867
     49  CB        19.9990   -3.1110   52.0540 C.3    59  TYR59       0.0534
     50  CG        19.4970   -3.3260   50.6360 C.ar   59  TYR59      -0.0201
     51  CD1       19.7560   -4.5310   49.9630 C.ar   59  TYR59      -0.0009
     52  CD2       18.7620   -2.3230   49.9670 C.ar   59  TYR59      -0.0009
     53  CE1       19.2920   -4.7210   48.6290 C.ar   59  TYR59       0.0417
     54  CE2       18.2890   -2.5130   48.6550 C.ar   59  TYR59       0.0417
     55  CZ        18.5730   -3.6940   48.0050 C.ar   59  TYR59       0.1957
     56  OH        18.0750   -3.8170   46.7360 O.3    59  TYR59      -0.2866
     57  N         24.1180   -0.4530   48.5010 N.3    63  GLU63      -0.1245
     58  CA        23.6270   -0.2200   47.1610 C.3    63  GLU63       0.1567
     59  C         24.0290    1.1550   46.6510 C.2    63  GLU63       0.2260
     60  O         24.3900    1.2630   45.4880 O.2    63  GLU63      -0.2867
     61  CB        22.1000   -0.4100   47.0320 C.3    63  GLU63       0.0388
     62  CG        21.6470   -1.8320   47.2980 C.3    63  GLU63       0.1160
     63  CD        22.3950   -2.8660   46.4680 C.2    63  GLU63       0.3649
     64  OE1       23.1910   -3.6010   47.0720 O.co2  63  GLU63      -0.2457
     65  OE2       22.1750   -2.9340   45.2270 O.co2  63  GLU63      -0.2457
     66  N         26.8250    2.8270   47.7080 N.3    65  ARG65      -0.1231
     67  CA        28.2730    2.6860   47.4570 C.3    65  ARG65       0.1694
     68  C         28.5230    1.9730   46.1000 C.2    65  ARG65       0.2592
     69  O         29.3320    2.4480   45.2700 O.2    65  ARG65      -0.2718
     70  CB        28.9250    1.9390   48.6250 C.3    65  ARG65       0.0321
     71  CG        30.3930    1.5730   48.4600 C.3    65  ARG65       0.0489
     72  CD        30.8880    0.7260   49.6870 C.3    65  ARG65       0.2205
     73  NE        30.0650   -0.4660   49.9470 N.pl3  65  ARG65      -0.0865
     74  CZ        30.0390   -1.5970   49.2190 C.cat  65  ARG65       0.5346
     75  NH1       30.8050   -1.7770   48.1460 N.pl3  65  ARG65       0.1354
     76  NH2       29.2210   -2.5820   49.5710 N.pl3  65  ARG65       0.1354
     77  N         27.8280    0.8510   45.8560 N.am   66  LYS66      -0.1966
     78  CA        28.0300    0.1420   44.5830 C.3    66  LYS66       0.1728
     79  C         27.5780    0.9370   43.3600 C.2    66  LYS66       0.2616
     80  O         28.2500    0.9400   42.3210 O.2    66  LYS66      -0.2715
     81  CB        27.3520   -1.2660   44.5900 C.3    66  LYS66       0.0311
     82  CG        28.0820   -2.2320   45.5510 C.3    66  LYS66       0.0038
     83  CD        27.4240   -3.5940   45.5380 C.3    66  LYS66       0.0206
     84  CE        26.2510   -3.5940   46.4480 C.3    66  LYS66       0.1093
     85  NZ        25.4390   -4.8500   46.2990 N.3    66  LYS66      -0.1314
     86  N         26.4540    1.6390   43.4850 N.am   67  VAL67      -0.1977
     87  CA        25.9290    2.3590   42.3180 C.3    67  VAL67       0.1596
     88  C         26.8440    3.5250   41.9460 C.2    67  VAL67       0.2287
     89  O         27.0420    3.8010   40.7570 O.2    67  VAL67      -0.2864
     90  CB        24.4170    2.7310   42.4720 C.3    67  VAL67       0.0276
     91  CG1       24.2050    4.0010   43.3030 C.3    67  VAL67       0.0022
     92  CG2       23.7540    2.8450   41.1040 C.3    67  VAL67       0.0022
     93  N         30.0340    3.4980   42.4070 N.3    69  ALA69      -0.1231
     94  CA        31.2120    2.8100   41.8020 C.3    69  ALA69       0.1694
     95  C         30.9410    2.4900   40.3460 C.2    69  ALA69       0.2592
     96  O         31.8160    2.6750   39.4720 O.2    69  ALA69      -0.2718
     97  CB        31.5670    1.5340   42.5470 C.3    69  ALA69       0.0304
     98  N         29.7220    2.0450   40.0610 N.am   70  HIS70      -0.1976
     99  CA        29.2750    1.8710   38.6600 C.3    70  HIS70       0.1656
    100  C         29.3350    3.1900   37.8840 C.2    70  HIS70       0.2291
    101  O         29.7860    3.2230   36.7130 O.2    70  HIS70      -0.2864
    102  CB        27.8210    1.3490   38.6080 C.3    70  HIS70       0.0771
    103  CG        27.6650   -0.1070   38.9210 C.ar   70  HIS70       0.0820
    104  ND1       27.9250   -0.6360   40.1660 N.ar   70  HIS70      -0.2267
    105  CD2       27.1810   -1.1300   38.1710 C.ar   70  HIS70       0.1154
    106  CE1       27.6380   -1.9310   40.1580 C.ar   70  HIS70       0.1986
    107  NE2       27.1690   -2.2520   38.9690 N.ar   70  HIS70      -0.2212
    108  N         32.9250    4.2160   36.9750 N.3    73  THR73      -0.1218
    109  CA        33.3670    3.3350   35.9110 C.3    73  THR73       0.1862
    110  C         32.8530    3.8900   34.5390 C.2    73  THR73       0.2287
    111  O         33.6460    4.0800   33.6070 O.2    73  THR73      -0.2866
    112  CB        32.8730    1.9050   36.3530 C.3    73  THR73       0.1770
    113  OG1       33.9290    1.2050   37.0320 O.3    73  THR73      -0.2211
    114  CG2       32.2200    1.1520   35.3560 C.3    73  THR73       0.0375
    115  N         22.6480   -5.6390   33.0090 N.3    99  TYR99      -0.1241
    116  CA        23.0200   -6.9810   33.4070 C.3    99  TYR99       0.1605
    117  C         21.9640   -7.6120   34.2940 C.2    99  TYR99       0.2264
    118  O         21.1020   -6.9020   34.8060 O.2    99  TYR99      -0.2867
    119  CB        24.4270   -7.0770   34.0540 C.3    99  TYR99       0.0534
    120  CG        24.6710   -6.3470   35.3670 C.ar   99  TYR99      -0.0201
    121  CD1       24.1610   -6.8180   36.5840 C.ar   99  TYR99      -0.0009
    122  CD2       25.4800   -5.2230   35.3930 C.ar   99  TYR99      -0.0009
    123  CE1       24.4170   -6.1610   37.7930 C.ar   99  TYR99       0.0417
    124  CE2       25.7820   -4.5660   36.6200 C.ar   99  TYR99       0.0417
    125  CZ        25.2150   -5.0260   37.7860 C.ar   99  TYR99       0.1957
    126  OH        25.4750   -4.4300   38.9850 O.3    99  TYR99      -0.2866
    127  N         42.0980   -9.6450   32.0490 N.3   150  ALA150     -0.1245
    128  CA        41.7700   -9.2610   33.4440 C.3   150  ALA150      0.1562
    129  C         40.7710  -10.2370   34.0750 C.2   150  ALA150      0.2260
    130  O         40.3490  -10.0370   35.2310 O.2   150  ALA150     -0.2867
    131  CB        41.2550   -7.8180   33.5330 C.3   150  ALA150      0.0290
    132  N         37.6360  -10.8330   33.5100 N.3   152  VAL152     -0.1245
    133  CA        36.3830  -10.1720   33.8630 C.3   152  VAL152      0.1561
    134  C         35.2140  -11.1490   33.8640 C.2   152  VAL152      0.2260
    135  O         34.3820  -11.1130   34.7970 O.2   152  VAL152     -0.2867
    136  CB        36.0760   -9.0300   32.8980 C.3   152  VAL152      0.0252
    137  CG1       34.6470   -8.4100   33.0860 C.3   152  VAL152      0.0019
    138  CG2       37.0980   -7.9600   33.0850 C.3   152  VAL152      0.0019
    139  N         34.5780  -13.1630   37.0700 N.3   155  GLN155     -0.1231
    140  CA        33.9710  -12.4240   38.1840 C.3   155  GLN155      0.1698
    141  C         32.4840  -12.1560   37.9280 C.2   155  GLN155      0.2592
    142  O         31.6380  -12.1820   38.8520 O.2   155  GLN155     -0.2718
    143  CB        34.7640  -11.1310   38.4210 C.3   155  GLN155      0.0381
    144  CG        36.2370  -11.3360   38.1800 C.3   155  GLN155      0.0905
    145  CD        37.1350  -10.6460   39.1740 C.2   155  GLN155      0.2608
    146  OE1       37.2060  -11.0410   40.3530 O.2   155  GLN155     -0.2717
    147  NE2       37.8630   -9.6220   38.7040 N.am  155  GLN155     -0.0878
    148  N         32.1430  -11.9560   36.6660 N.am  156  LEU156     -0.1980
    149  CA        30.7440  -11.7100   36.3260 C.3   156  LEU156      0.1596
    150  C         29.9080  -12.9690   36.4870 C.2   156  LEU156      0.2287
    151  O         28.8110  -12.9020   37.0030 O.2   156  LEU156     -0.2864
    152  CB        30.6130  -11.2060   34.9170 C.3   156  LEU156      0.0297
    153  CG        30.5660   -9.6900   34.7240 C.3   156  LEU156      0.0022
    154  CD1       31.3890   -8.8760   35.6930 C.3   156  LEU156      0.0001
    155  CD2       30.9370   -9.4170   33.3140 C.3   156  LEU156      0.0001
    156  N         28.6060  -13.7800   40.1370 N.3   159  TYR159     -0.1241
    157  CA        27.4590  -12.9340   40.4670 C.3   159  TYR159      0.1605
    158  C         26.1940  -13.4410   39.7870 C.2   159  TYR159      0.2264
    159  O         25.1510  -13.6260   40.4350 O.2   159  TYR159     -0.2867
    160  CB        27.7290  -11.4960   40.0350 C.3   159  TYR159      0.0534
    161  CG        26.5180  -10.5930   40.2040 C.ar  159  TYR159     -0.0201
    162  CD1       26.1250  -10.1110   41.4510 C.ar  159  TYR159     -0.0009
    163  CD2       25.7480  -10.2620   39.1030 C.ar  159  TYR159     -0.0009
    164  CE1       24.9600   -9.2940   41.5770 C.ar  159  TYR159      0.0417
    165  CE2       24.6280   -9.4850   39.2010 C.ar  159  TYR159      0.0417
    166  CZ        24.2360   -8.9840   40.4270 C.ar  159  TYR159      0.1957
    167  OH        23.1250   -8.1610   40.4090 O.3   159  TYR159     -0.2866
    168  N         24.7490  -14.9530   43.3360 N.3   163  THR163     -0.1218
    169  CA        24.2090  -13.7310   43.9760 C.3   163  THR163      0.1862
    170  C         22.9490  -13.1390   43.3320 C.2   163  THR163      0.2287
    171  O         21.9560  -12.8620   44.0210 O.2   163  THR163     -0.2866
    172  CB        25.2990  -12.6370   44.0040 C.3   163  THR163      0.1770
    173  OG1       26.4650  -13.1600   44.6480 O.3   163  THR163     -0.2211
    174  CG2       24.8130  -11.3640   44.7450 C.3   163  THR163      0.0375
    175  N         19.2340  -13.0300   45.2520 N.3   167  TRP167     -0.1241
    176  CA        18.5410  -11.8260   45.6080 C.3   167  TRP167      0.1605
    177  C         17.2220  -11.7380   44.8560 C.2   167  TRP167      0.2264
    178  O         16.2330  -11.3200   45.4430 O.2   167  TRP167     -0.2867
    179  CB        19.4140  -10.5850   45.3850 C.3   167  TRP167      0.0550
    180  CG        20.3730  -10.4930   46.4960 C.ar  167  TRP167      0.0003
    181  CD1       21.5650  -11.1900   46.6200 C.ar  167  TRP167      0.0946
    182  CD2       20.2140   -9.7590   47.7120 C.ar  167  TRP167      0.0152
    183  NE1       22.1670  -10.8910   47.8200 N.ar  167  TRP167     -0.2442
    184  CE2       21.3610  -10.0260   48.5140 C.ar  167  TRP167      0.0810
    185  CE3       19.2340   -8.8950   48.1990 C.ar  167  TRP167      0.0012
    186  CZ2       21.5480   -9.4470   49.7790 C.ar  167  TRP167      0.0191
    187  CZ3       19.4230   -8.3080   49.4400 C.ar  167  TRP167      0.0001
    188  CH2       20.5810   -8.5890   50.2210 C.ar  167  TRP167      0.0015
    189  N         13.6620  -11.1260   46.6220 N.3   171  TYR171     -0.1241
    190  CA        12.7210  -10.0410   46.2420 C.3   171  TYR171      0.1605
    191  C         11.3620  -10.6310   45.8610 C.2   171  TYR171      0.2264
    192  O         10.3190  -10.1100   46.2900 O.2   171  TYR171     -0.2867
    193  CB        13.2540   -9.2350   45.0430 C.3   171  TYR171      0.0534
    194  CG        14.5440   -8.5080   45.3680 C.ar  171  TYR171     -0.0201
    195  CD1       14.8310   -8.0580   46.6720 C.ar  171  TYR171     -0.0009
    196  CD2       15.4510   -8.2390   44.3560 C.ar  171  TYR171     -0.0009
    197  CE1       16.0350   -7.4090   46.9400 C.ar  171  TYR171      0.0417
    198  CE2       16.6490   -7.5680   44.6140 C.ar  171  TYR171      0.0417
    199  CZ        16.9130   -7.1510   45.8740 C.ar  171  TYR171      0.1957
    200  OH        18.0800   -6.5050   46.0620 O.3   171  TYR171     -0.2866
@<TRIPOS>BOND
     1    24    23    2
     2   127   128    1
     3    23    22    1
     4   136   138    1
     5   136   137    1
     6   136   133    1
     7   115   116    1
     8    21    22    1
     9   155   153    1
    10   116   119    1
    11   116   117    1
    12   128   131    1
    13   128   129    1
    14   132   133    1
    15    22    25    1
    16   111   110    2
    17   133   134    1
    18   134   135    2
    19    25    26    1
    20   119   120    1
    21   129   130    2
    22    12    11    2
    23   117   118    2
    24   110   109    1
    25   153   152    1
    26   153   154    1
    27    27    26   ar
    28    27    29   ar
    29   152   149    1
    30    11    10    1
    31    26    28   ar
    32   114   112    1
    33   120   122   ar
    34   120   121   ar
    35   122   124   ar
    36    29    31   ar
    37   109   112    1
    38   109   108    1
    39     9    10    1
    40     4     3    2
    41    10    13    1
    42   149   150    1
    43   149   148    1
    44   112   113    1
    45    28    30   ar
    46   150   151    2
    47   121   123   ar
    48   124   125   ar
    49   148   141   am
    50     3     2    1
    51   101   100    2
    52     1     2    1
    53   139   140    1
    54    32    33    1
    55    31    30   ar
    56    13    14    1
    57    33    34    1
    58    33    36    1
    59     2     5    1
    60    34    35    2
    61   125   123   ar
    62   125   126    1
    63   100    99    1
    64   141   140    1
    65   141   142    2
    66   105   103   ar
    67   105   107   ar
    68   144   143    1
    69   144   145    1
    70   140   143    1
    71   102    99    1
    72   102   103    1
    73    14    15   ar
    74    14    16   ar
    75    99    98    1
    76   147   145   am
    77   103   104   ar
    78   107   106   ar
    79     5     6    1
    80   163   165   ar
    81   163   161   ar
    82    15    17   ar
    83   145   146    2
    84   165   166   ar
    85    96    95    2
    86    16    18   ar
    87     6     7    1
    88   158   159    2
    89   158   157    1
    90   160   161    1
    91   160   157    1
    92    98    95   am
    93   156   157    1
    94   106   104   ar
    95   161   162   ar
    96    95    94    1
    97   167   166    1
    98   166   164   ar
    99    17    19   ar
   100    89    88    2
   101    18    19   ar
   102    92    90    1
   103     8     7    1
   104    19    20    1
   105   162   164   ar
   106    94    93    1
   107    94    97    1
   108    88    87    1
   109    87    90    1
   110    87    86    1
   111    80    79    2
   112    90    91    1
   113    44    43    1
   114   170   169    1
   115   170   171    2
   116   168   169    1
   117    79    86   am
   118    79    78    1
   119    43    42    1
   120   169   172    1
   121   172   173    1
   122   172   174    1
   123   196   198   ar
   124   196   194   ar
   125    78    81    1
   126    78    77    1
   127    81    82    1
   128   198   199   ar
   129   177   178    2
   130   177   176    1
   131   193   194    1
   132   193   190    1
   133    42    41    1
   134    65    63   ar
   135   175   176    1
   136    69    68    2
   137   194   195   ar
   138   179   176    1
   139   179   180    1
   140    60    59    2
   141    83    82    1
   142    83    84    1
   143    77    68   am
   144   191   190    1
   145   191   192    2
   146   199   200    1
   147   199   197   ar
   148    38    41    1
   149    38    37    1
   150    38    39    1
   151    68    67    1
   152   190   189    1
   153    85    84    1
   154    63    64   ar
   155    63    62    1
   156   180   181   ar
   157   180   182   ar
   158   181   183   ar
   159    59    58    1
   160    39    40    2
   161   195   197   ar
   162    56    55    1
   163    61    58    1
   164    61    62    1
   165    58    57    1
   166    67    66    1
   167    67    70    1
   168   182   185   ar
   169   182   184   ar
   170   183   184   ar
   171    55    53   ar
   172    55    54   ar
   173    75    74    1
   174   185   187   ar
   175    71    70    1
   176    71    72    1
   177   184   186   ar
   178    53    51   ar
   179    54    52   ar
   180    74    76    1
   181    74    73    2
   182   187   188   ar
   183    72    73    1
   184   186   188   ar
   185    51    50   ar
   186    52    50   ar
   187    48    47    2
   188    50    49    1
   189    47    46    1
   190    49    46    1
   191    46    45    1
