@<TRIPOS>MOLECULE
tmp/3o3jA00.pdb
 147 143 0 0 0
SMALL
GASTEIGER

@<TRIPOS>ATOM
      1  N         -7.9730   14.1010  -34.1110 N.3    40  ASP40      -0.1225
      2  CA        -7.3190   15.0520  -35.0660 C.3    40  ASP40       0.1805
      3  C         -6.1240   15.7200  -34.3670 C.2    40  ASP40       0.2598
      4  O         -5.9410   16.8720  -34.5990 O.2    40  ASP40      -0.2718
      5  CB        -8.3400   16.1390  -35.6770 C.3    40  ASP40       0.1424
      6  CG        -7.6990   17.1680  -36.7900 C.2    40  ASP40       0.3668
      7  OD1       -7.0510   16.7690  -37.7540 O.co2  40  ASP40      -0.2456
      8  OD2       -7.8640   18.4070  -36.8200 O.co2  40  ASP40      -0.2456
      9  N         -5.3080   15.0260  -33.5490 N.am   41  GLY41      -0.1942
     10  CA        -4.1820   15.7180  -32.8630 C.3    41  GLY41       0.2014
     11  C         -2.7760   15.4610  -33.4110 C.2    41  GLY41       0.2639
     12  O         -2.6100   14.9570  -34.5400 O.2    41  GLY41      -0.2714
     13  N         -1.7060   15.7590  -32.6710 N.am   42  ILE42      -0.1963
     14  CA        -0.4420   15.5470  -33.3840 C.3    42  ILE42       0.1727
     15  C          0.4540   14.9340  -32.4240 C.2    42  ILE42       0.2616
     16  O          1.5480   14.6420  -32.8020 O.2    42  ILE42      -0.2715
     17  CB         0.2730   16.8750  -33.8820 C.3    42  ILE42       0.0290
     18  CG1        0.5670   17.7800  -32.6540 C.3    42  ILE42       0.0022
     19  CG2       -0.4650   17.5440  -34.9490 C.3    42  ILE42       0.0023
     20  CD1        0.5450   19.1980  -32.8180 C.3    42  ILE42       0.0001
     21  N          0.0340   14.8630  -31.1690 N.am   43  GLY43      -0.1955
     22  CA         0.7060   14.1150  -30.1170 C.3    43  GLY43       0.1869
     23  C         -0.3010   13.5320  -29.1030 C.2    43  GLY43       0.2309
     24  O         -1.5200   13.9150  -29.0840 O.2    43  GLY43      -0.2863
     25  N         -2.7240   10.9730  -20.6530 N.3    48  GLN48      -0.1245
     26  CA        -4.0110   11.5230  -21.1260 C.3    48  GLN48       0.1566
     27  C         -5.0380   10.3970  -21.5170 C.2    48  GLN48       0.2260
     28  O         -6.1500   10.6200  -21.8920 O.2    48  GLN48      -0.2867
     29  CB        -3.7760   12.4490  -22.2670 C.3    48  GLN48       0.0367
     30  CG        -2.7360   13.4230  -22.0270 C.3    48  GLN48       0.0905
     31  CD        -2.6430   14.2520  -23.2740 C.2    48  GLN48       0.2608
     32  OE1       -1.7880   14.0070  -24.0860 O.2    48  GLN48      -0.2717
     33  NE2       -3.5900   15.2020  -23.4660 N.am   48  GLN48      -0.0878
     34  N          3.9860   30.1140  -29.8790 N.3    87  PHE87      -0.1227
     35  CA         3.1140   29.2250  -30.6330 C.3    87  PHE87       0.1736
     36  C          1.8900   28.9070  -29.9290 C.2    87  PHE87       0.2595
     37  O          1.9130   28.5800  -28.7650 O.2    87  PHE87      -0.2718
     38  CB         3.7340   27.9100  -31.1240 C.3    87  PHE87       0.0547
     39  CG         3.4140   27.6470  -32.5910 C.ar   87  PHE87      -0.0202
     40  CD1        3.3880   26.3300  -33.1180 C.ar   87  PHE87      -0.0042
     41  CD2        3.1140   28.7830  -33.4660 C.ar   87  PHE87      -0.0042
     42  CE1        3.1170   26.1130  -34.5060 C.ar   87  PHE87      -0.0003
     43  CE2        2.8280   28.6520  -34.8200 C.ar   87  PHE87      -0.0003
     44  CZ         2.8080   27.2860  -35.3900 C.ar   87  PHE87      -0.0000
     45  N          0.8160   28.9660  -30.6760 N.am   88  ASP88      -0.1960
     46  CA        -0.4220   28.7590  -30.0900 C.3    88  ASP88       0.1840
     47  C         -0.3080   27.2880  -29.9310 C.2    88  ASP88       0.2622
     48  O          0.1290   26.6380  -30.8890 O.2    88  ASP88      -0.2715
     49  CB        -1.5040   29.1820  -31.0550 C.3    88  ASP88       0.1450
     50  CG        -1.8340   30.6650  -30.9510 C.2    88  ASP88       0.3671
     51  OD1       -2.9180   30.9910  -31.5140 O.co2  88  ASP88      -0.2456
     52  OD2       -1.0260   31.4930  -30.3710 O.co2  88  ASP88      -0.2456
     53  N         -0.5940   26.7850  -28.7150 N.am   89  GLU89      -0.1963
     54  CA        -0.7650   25.3490  -28.4820 C.3    89  GLU89       0.1733
     55  C         -2.2150   25.0940  -28.1360 C.2    89  GLU89       0.2617
     56  O         -2.8700   26.0030  -27.6150 O.2    89  GLU89      -0.2715
     57  CB         0.0850   24.8570  -27.3330 C.3    89  GLU89       0.0429
     58  CG         1.5360   25.0560  -27.5400 C.3    89  GLU89       0.1163
     59  CD         2.3670   24.6040  -26.3490 C.2    89  GLU89       0.3649
     60  OE1        1.7940   23.9230  -25.3630 O.co2  89  GLU89      -0.2457
     61  OE2        3.5960   24.9110  -26.4860 O.co2  89  GLU89      -0.2457
     62  N         -2.6980   23.8750  -28.4530 N.am   90  GLY90      -0.1940
     63  CA        -3.8860   23.3170  -27.7890 C.3    90  GLY90       0.2014
     64  C         -3.5680   22.0020  -27.0650 C.2    90  GLY90       0.2639
     65  O         -2.5070   21.3680  -27.2770 O.2    90  GLY90      -0.2714
     66  N         -4.4380   21.5550  -26.1930 N.am   91  CYS91      -0.1953
     67  CA        -4.0620   20.3110  -25.5640 C.3    91  CYS91       0.1843
     68  C         -5.3780   19.6680  -25.4900 C.2    91  CYS91       0.2625
     69  O         -6.4180   20.3530  -25.3100 O.2    91  CYS91      -0.2714
     70  CB        -3.6230   20.5620  -24.2120 C.3    91  CYS91       0.0997
     71  SG        -3.3850   19.2210  -23.1900 S.3    91  CYS91      -0.0797
     72  N         -5.3830   18.3570  -25.7170 N.am   92  LEU92      -0.1977
     73  CA        -6.6410   17.6660  -25.7170 C.3    92  LEU92       0.1596
     74  C         -7.1820   17.6170  -24.3200 C.2    92  LEU92       0.2287
     75  O         -8.3290   17.5300  -24.1790 O.2    92  LEU92      -0.2864
     76  CB        -6.5150   16.2550  -26.2630 C.3    92  LEU92       0.0297
     77  CG        -6.2920   16.2440  -27.7810 C.3    92  LEU92       0.0022
     78  CD1       -5.6440   14.9900  -28.3180 C.3    92  LEU92       0.0001
     79  CD2       -7.6830   16.4510  -28.4350 C.3    92  LEU92       0.0001
     80  N         -7.1520   27.3740  -26.9850 N.3    98  TYR98      -0.1241
     81  CA        -5.7860   27.6180  -27.4780 C.3    98  TYR98       0.1605
     82  C         -5.1450   28.8730  -27.0790 C.2    98  TYR98       0.2264
     83  O         -5.6730   29.9480  -27.3090 O.2    98  TYR98      -0.2867
     84  CB        -5.7390   27.6560  -28.9390 C.3    98  TYR98       0.0534
     85  CG        -6.1960   26.4400  -29.5160 C.ar   98  TYR98      -0.0201
     86  CD1       -7.5950   26.1040  -29.5060 C.ar   98  TYR98      -0.0009
     87  CD2       -5.2410   25.5430  -30.0740 C.ar   98  TYR98      -0.0009
     88  CE1       -8.0250   24.8350  -30.0390 C.ar   98  TYR98       0.0417
     89  CE2       -5.6550   24.2780  -30.6430 C.ar   98  TYR98       0.0417
     90  CZ        -7.0030   23.9550  -30.5840 C.ar   98  TYR98       0.1957
     91  OH        -7.2960   22.7990  -31.1530 O.3    98  TYR98      -0.2866
     92  N          8.0750   22.2990  -35.7590 N.3   126  LEU126     -0.1245
     93  CA         6.9790   21.6540  -35.0130 C.3   126  LEU126      0.1561
     94  C          7.4130   20.4390  -34.2450 C.2   126  LEU126      0.2260
     95  O          7.0880   20.3590  -33.1120 O.2   126  LEU126     -0.2867
     96  CB         5.7380   21.3300  -35.8500 C.3   126  LEU126      0.0270
     97  CG         4.5260   21.3460  -34.9080 C.3   126  LEU126      0.0019
     98  CD1        3.8480   22.7440  -34.9950 C.3   126  LEU126      0.0001
     99  CD2        3.6370   20.3710  -35.4490 C.3   126  LEU126      0.0001
    100  N          8.6930   21.1620  -30.9240 N.3   129  ARG129     -0.1231
    101  CA         7.5800   21.8190  -30.1520 C.3   129  ARG129      0.1694
    102  C          6.5680   20.8410  -29.4530 C.2   129  ARG129      0.2591
    103  O          6.5540   20.7850  -28.2170 O.2   129  ARG129     -0.2718
    104  CB         6.8550   22.9020  -30.9660 C.3   129  ARG129      0.0321
    105  CG         5.4360   23.1700  -30.4810 C.3   129  ARG129      0.0489
    106  CD         5.5340   23.9820  -29.1600 C.3   129  ARG129      0.2205
    107  NE         6.3900   25.1220  -29.4450 N.pl3 129  ARG129     -0.0865
    108  CZ         6.3710   26.2720  -28.7920 C.cat 129  ARG129      0.5346
    109  NH1        5.5770   26.5420  -27.7910 N.pl3 129  ARG129      0.1354
    110  NH2        7.1800   27.1710  -29.1650 N.pl3 129  ARG129      0.1354
    111  N          5.7280   20.1070  -30.1930 N.am  130  ILE130     -0.1980
    112  CA         5.0520   18.9700  -29.6270 C.3   130  ILE130      0.1595
    113  C          5.8010   18.0980  -28.6450 C.2   130  ILE130      0.2287
    114  O          5.2470   17.7520  -27.5680 O.2   130  ILE130     -0.2864
    115  CB         4.7960   17.9820  -30.6360 C.3   130  ILE130      0.0276
    116  CG1        4.5390   18.7290  -31.8940 C.3   130  ILE130      0.0022
    117  CG2        3.5210   17.1930  -30.3160 C.3   130  ILE130      0.0022
    118  CD1        3.6180   17.9650  -32.8030 C.3   130  ILE130      0.0001
    119  N          5.6250   19.5000  -25.5550 N.3   133  HIS133     -0.1226
    120  CA         4.2610   19.5910  -25.0510 C.3   133  HIS133      0.1752
    121  C          3.9260   18.2650  -24.4410 C.2   133  HIS133      0.2595
    122  O          3.3590   18.2260  -23.3750 O.2   133  HIS133     -0.2718
    123  CB         3.1650   20.0760  -26.0670 C.3   133  HIS133      0.0759
    124  CG         1.7510   19.9170  -25.5230 C.ar  133  HIS133      0.0818
    125  ND1        0.8980   20.9820  -25.3060 N.ar  133  HIS133     -0.2268
    126  CD2        1.0710   18.7990  -25.0870 C.ar  133  HIS133      0.1154
    127  CE1       -0.2700   20.5120  -24.8410 C.ar  133  HIS133      0.1986
    128  NE2       -0.1890   19.1980  -24.6870 N.ar  133  HIS133     -0.2212
    129  N          4.2140   17.1880  -25.1270 N.am  134  GLU134     -0.1979
    130  CA         3.9210   15.9100  -24.4760 C.3   134  GLU134      0.1602
    131  C          4.9980   15.6190  -23.4120 C.2   134  GLU134      0.2287
    132  O          4.6990   15.0560  -22.3370 O.2   134  GLU134     -0.2864
    133  CB         3.8140   14.7940  -25.5010 C.3   134  GLU134      0.0415
    134  CG         3.0990   15.3200  -26.7140 C.3   134  GLU134      0.1163
    135  CD         1.6120   15.3420  -26.3400 C.2   134  GLU134      0.3649
    136  OE1        0.7420   15.9940  -27.1190 O.co2 134  GLU134     -0.2457
    137  OE2        1.4590   14.5920  -25.2170 O.co2 134  GLU134     -0.2457
    138  N          3.5550   16.7520  -20.2180 N.3   137  HIS137     -0.1241
    139  CA         2.5660   15.8710  -19.6760 C.3   137  HIS137      0.1621
    140  C          3.2540   14.7310  -18.8520 C.2   137  HIS137      0.2264
    141  O          2.7460   14.2220  -17.8650 O.2   137  HIS137     -0.2867
    142  CB         1.8290   15.2970  -20.8350 C.3   137  HIS137      0.0745
    143  CG         0.6580   16.0920  -21.2510 C.ar  137  HIS137      0.0817
    144  ND1       -0.3380   16.4150  -20.3700 N.ar  137  HIS137     -0.2268
    145  CD2        0.2880   16.5860  -22.4610 C.ar  137  HIS137      0.1154
    146  CE1       -1.2560   17.1260  -21.0210 C.ar  137  HIS137      0.1986
    147  NE2       -0.9140   17.2220  -22.2910 N.ar  137  HIS137     -0.2212
@<TRIPOS>BOND
     1     7     6   ar
     2     8     6   ar
     3     6     5    1
     4    96    93    1
     5    96    97    1
     6    92    93    1
     7     5     2    1
     8    99    97    1
     9    44    43   ar
    10    44    42   ar
    11     2     3    1
    12     2     1    1
    13    93    94    1
    14    98    97    1
    15    19    17    1
    16    43    41   ar
    17     4     3    2
    18    12    11    2
    19    42    40   ar
    20     3     9   am
    21    94    95    2
    22    17    14    1
    23    17    18    1
    24     9    10    1
    25    41    39   ar
    26    11    10    1
    27    11    13   am
    28    14    13    1
    29    14    15    1
    30    40    39   ar
    31    20    18    1
    32   118   116    1
    33    16    15    2
    34    39    38    1
    35    15    21   am
    36   116   115    1
    37    51    50   ar
    38    21    22    1
    39    91    90    1
    40    38    35    1
    41    49    50    1
    42    49    46    1
    43   104   105    1
    44   104   101    1
    45    50    52   ar
    46   100   101    1
    47    48    47    2
    48    45    46    1
    49    45    36   am
    50    89    90   ar
    51    89    87   ar
    52   115   117    1
    53   115   112    1
    54    35    36    1
    55    35    34    1
    56    90    88   ar
    57   105   106    1
    58   111   112    1
    59   111   102   am
    60   101   102    1
    61    22    23    1
    62    46    47    1
    63    87    85   ar
    64    88    86   ar
    65    47    53   am
    66    36    37    2
    67   112   113    1
    68    85    86   ar
    69    85    84    1
    70   102   103    2
    71   107   106    1
    72   107   108    2
    73   110   108    1
    74    23    24    2
    75    84    81    1
    76   108   109    1
    77    53    54    1
    78   113   114    2
    79    54    55    1
    80    54    57    1
    81    62    55   am
    82    62    63    1
    83    79    77    1
    84    78    77    1
    85    55    56    2
    86    63    64    1
    87    77    76    1
    88    58    57    1
    89    58    59    1
    90    81    82    1
    91    81    80    1
    92    83    82    2
    93    65    64    2
    94   136   135   ar
    95    64    66   am
    96   134   135    1
    97   134   133    1
    98    61    59   ar
    99    59    60   ar
   100   135   137   ar
   101    76    73    1
   102    66    67    1
   103   123   124    1
   104   123   120    1
   105    73    72    1
   106    73    74    1
   107    72    68   am
   108    67    68    1
   109    67    70    1
   110   119   120    1
   111   124   125   ar
   112   124   126   ar
   113   133   130    1
   114    68    69    2
   115   125   127   ar
   116   129   130    1
   117   129   121   am
   118   126   128   ar
   119   120   121    1
   120   127   128   ar
   121   130   131    1
   122   121   122    2
   123    74    75    2
   124    70    71    1
   125    32    31    2
   126    33    31   am
   127   131   132    2
   128    31    30    1
   129   145   147   ar
   130   145   143   ar
   131   147   146   ar
   132    29    30    1
   133    29    26    1
   134    28    27    2
   135    27    26    1
   136   143   142    1
   137   143   144   ar
   138    26    25    1
   139   146   144   ar
   140   142   139    1
   141   138   139    1
   142   139   140    1
   143   140   141    2
