@<TRIPOS>MOLECULE
tmp/3o3lA00.pdb
 178 173 0 0 0
SMALL
GASTEIGER

@<TRIPOS>ATOM
      1  N         -2.9990  -17.5640   22.6740 N.3    26  ARG26      -0.1245
      2  CA        -2.7420  -17.2220   21.2840 C.3    26  ARG26       0.1563
      3  C         -1.2210  -17.0930   21.0430 C.2    26  ARG26       0.2260
      4  O         -0.4960  -16.5520   21.8870 O.2    26  ARG26      -0.2867
      5  CB        -3.4260  -15.8850   20.9720 C.3    26  ARG26       0.0307
      6  CG        -3.0290  -15.3110   19.6550 C.3    26  ARG26       0.0489
      7  CD        -3.3930  -13.8390   19.5940 C.3    26  ARG26       0.2205
      8  NE        -3.4120  -13.3700   18.2090 N.pl3  26  ARG26      -0.0865
      9  CZ        -3.7390  -12.1380   17.8600 C.cat  26  ARG26       0.5346
     10  NH1       -4.0680  -11.2560   18.8020 N.pl3  26  ARG26       0.1354
     11  NH2       -3.7450  -11.8000   16.5710 N.pl3  26  ARG26       0.1354
     12  N         -6.0060  -14.7730   24.9210 N.3   118  TYR118     -0.1241
     13  CA        -6.8960  -14.1220   23.9930 C.3   118  TYR118      0.1605
     14  C         -8.3980  -14.3220   24.2070 C.2   118  TYR118      0.2264
     15  O         -8.8720  -15.4720   24.3140 O.2   118  TYR118     -0.2867
     16  CB        -6.5250  -14.5880   22.5600 C.3   118  TYR118      0.0534
     17  CG        -7.3360  -13.9220   21.4610 C.ar  118  TYR118     -0.0201
     18  CD1       -6.9540  -12.6770   20.9470 C.ar  118  TYR118     -0.0009
     19  CD2       -8.5180  -14.5050   20.9740 C.ar  118  TYR118     -0.0009
     20  CE1       -7.7340  -12.0190   19.9570 C.ar  118  TYR118      0.0417
     21  CE2       -9.2980  -13.8600   19.9980 C.ar  118  TYR118      0.0417
     22  CZ        -8.8980  -12.6230   19.4960 C.ar  118  TYR118      0.1957
     23  OH        -9.6490  -11.9690   18.5320 O.3   118  TYR118     -0.2866
     24  N        -12.0560   -9.9810   20.2880 N.3   121  ARG121     -0.1231
     25  CA       -11.5460   -8.6170   20.0680 C.3   121  ARG121      0.1694
     26  C        -10.2190   -8.3710   20.8290 C.2   121  ARG121      0.2592
     27  O         -9.7330   -7.2470   20.8760 O.2   121  ARG121     -0.2718
     28  CB       -12.5840   -7.5560   20.4910 C.3   121  ARG121      0.0321
     29  CG       -13.8680   -7.6230   19.6670 C.3   121  ARG121      0.0489
     30  CD       -14.7640   -6.4140   19.9190 C.3   121  ARG121      0.2205
     31  NE       -16.0760   -6.5410   19.2740 N.pl3 121  ARG121     -0.0865
     32  CZ       -17.0750   -5.6760   19.4640 C.cat 121  ARG121      0.5346
     33  NH1      -16.9030   -4.6260   20.2570 N.pl3 121  ARG121      0.1354
     34  NH2      -18.2670   -5.8960   18.9210 N.pl3 121  ARG121      0.1354
     35  N         -9.5980   -9.4270   21.3570 N.am  122  ASP122     -0.1974
     36  CA        -8.3750   -9.3030   22.1840 C.3   122  ASP122      0.1709
     37  C         -8.7120   -8.4220   23.4160 C.2   122  ASP122      0.2293
     38  O         -7.8550   -7.6410   23.9040 O.2   122  ASP122     -0.2864
     39  CB        -7.2170   -8.6650   21.3880 C.3   122  ASP122      0.1436
     40  CG        -5.8530   -8.8590   22.0710 C.2   122  ASP122      0.3671
     41  OD1       -5.7410   -9.7480   22.9370 O.co2 122  ASP122     -0.2456
     42  OD2       -4.8930   -8.1240   21.7410 O.co2 122  ASP122     -0.2456
     43  N        -10.8520  -15.2360   13.6620 N.3   158  LYS158     -0.1245
     44  CA       -10.2320  -14.9900   14.9420 C.3   158  LYS158      0.1561
     45  C        -10.4600  -16.1510   15.9070 C.2   158  LYS158      0.2260
     46  O        -10.6180  -15.9390   17.1040 O.2   158  LYS158     -0.2867
     47  CB       -10.7450  -13.6750   15.5510 C.3   158  LYS158      0.0271
     48  CG       -10.2590  -12.4170   14.8120 C.3   158  LYS158      0.0035
     49  CD        -8.7360  -12.2550   14.9380 C.3   158  LYS158      0.0206
     50  CE        -8.2730  -10.8530   14.5340 C.3   158  LYS158      0.1093
     51  NZ        -6.7880  -10.7840   14.4420 N.3   158  LYS158     -0.1314
     52  N         -6.2870   -3.3270   23.1920 N.3   192  ASP192     -0.1225
     53  CA        -6.1630   -3.4730   21.7430 C.3   192  ASP192      0.1805
     54  C         -7.3490   -2.7760   21.0170 C.2   192  ASP192      0.2597
     55  O         -8.4960   -2.7570   21.5240 O.2   192  ASP192     -0.2718
     56  CB        -6.1300   -5.0010   21.4390 C.3   192  ASP192      0.1424
     57  CG        -5.6420   -5.3360   20.0390 C.2   192  ASP192      0.3668
     58  OD1       -5.4330   -6.5530   19.7650 O.co2 192  ASP192     -0.2456
     59  OD2       -5.4610   -4.4160   19.2120 O.co2 192  ASP192     -0.2456
     60  N         -7.0530   -2.1550   19.8700 N.am  193  HIS193     -0.1975
     61  CA        -8.0600   -1.5270   18.9960 C.3   193  HIS193      0.1656
     62  C         -8.6070   -0.1630   19.3610 C.2   193  HIS193      0.2291
     63  O         -9.2710    0.4600   18.5270 O.2   193  HIS193     -0.2864
     64  CB        -9.2960   -2.4490   18.8260 C.3   193  HIS193      0.0771
     65  CG        -8.9640   -3.8500   18.4170 C.ar  193  HIS193      0.0820
     66  ND1       -8.3780   -4.1580   17.2050 N.ar  193  HIS193     -0.2267
     67  CD2       -9.1270   -5.0270   19.0670 C.ar  193  HIS193      0.1154
     68  CE1       -8.1970   -5.4630   17.1260 C.ar  193  HIS193      0.1986
     69  NE2       -8.6430   -6.0130   18.2430 N.ar  193  HIS193     -0.2212
     70  N          3.3000   -3.5500   20.6190 N.3   221  SER221     -0.1202
     71  CA         2.0040   -4.0770   21.0110 C.3   221  SER221      0.2020
     72  C          1.9260   -5.4770   20.3410 C.2   221  SER221      0.2619
     73  O          2.9510   -6.1740   20.2340 O.2   221  SER221     -0.2717
     74  CB         0.8780   -3.1320   20.5660 C.3   221  SER221      0.2103
     75  OG         1.2050   -2.4510   19.3830 O.3   221  SER221     -0.2182
     76  N          0.7600   -5.9050   19.8810 N.am  222  GLU222     -0.1965
     77  CA         0.7010   -7.2460   19.2860 C.3   222  GLU222      0.1733
     78  C          1.2260   -7.2170   17.8560 C.2   222  GLU222      0.2616
     79  O          2.1540   -7.9390   17.5230 O.2   222  GLU222     -0.2715
     80  CB        -0.7330   -7.7980   19.3400 C.3   222  GLU222      0.0429
     81  CG        -0.9010   -9.1670   18.6670 C.3   222  GLU222      0.1163
     82  CD        -0.2140  -10.3190   19.4270 C.2   222  GLU222      0.3649
     83  OE1        0.8720  -10.1190   20.0280 O.co2 222  GLU222     -0.2457
     84  OE2       -0.7450  -11.4580   19.4000 O.co2 222  GLU222     -0.2457
     85  N          0.6320   -6.3890   17.0090 N.am  223  ALA223     -0.1963
     86  CA         1.0880   -6.3180   15.6190 C.3   223  ALA223      0.1728
     87  C          2.0430   -5.1640   15.3810 C.2   223  ALA223      0.2617
     88  O          2.7290   -5.1510   14.3720 O.2   223  ALA223     -0.2715
     89  CB        -0.1120   -6.1840   14.6610 C.3   223  ALA223      0.0334
     90  N          2.1000   -4.2030   16.3060 N.am  224  GLY224     -0.1940
     91  CA         2.9730   -3.0560   16.1200 C.3   224  GLY224      0.2014
     92  C          2.3000   -2.0100   15.2490 C.2   224  GLY224      0.2639
     93  O          2.9530   -1.2270   14.5620 O.2   224  GLY224     -0.2714
     94  N          0.9750   -1.9970   15.2670 N.am  225  VAL225     -0.1963
     95  CA         0.2420   -1.0370   14.4710 C.3   225  VAL225      0.1727
     96  C         -0.5310   -0.0110   15.2910 C.2   225  VAL225      0.2617
     97  O         -0.0300    1.0870   15.5240 O.2   225  VAL225     -0.2715
     98  CB        -0.7530   -1.7460   13.4790 C.3   225  VAL225      0.0290
     99  CG1       -1.4980   -0.7020   12.6630 C.3   225  VAL225      0.0023
    100  CG2        0.0090   -2.7460   12.5640 C.3   225  VAL225      0.0023
    101  N         -1.7500   -0.3510   15.7250 N.am  226  GLY226     -0.1940
    102  CA        -2.5580    0.6340   16.4300 C.3   226  GLY226      0.2014
    103  C         -2.0040    1.2750   17.6960 C.2   226  GLY226      0.2638
    104  O         -1.8790    2.5300   17.8120 O.2   226  GLY226     -0.2714
    105  N         -1.6870    0.4470   18.6830 N.am  227  ARG227     -0.1977
    106  CA        -1.1960    1.0320   19.9380 C.3   227  ARG227      0.1597
    107  C          0.2310    1.5650   19.7920 C.2   227  ARG227      0.2287
    108  O          0.5630    2.6570   20.2840 O.2   227  ARG227     -0.2864
    109  CB        -1.2920   -0.0330   21.0630 C.3   227  ARG227      0.0334
    110  CG        -2.7770   -0.3120   21.4810 C.3   227  ARG227      0.0492
    111  CD        -2.8470   -1.5540   22.3830 C.3   227  ARG227      0.2205
    112  NE        -2.6000   -2.7960   21.6290 N.pl3 227  ARG227     -0.0865
    113  CZ        -2.6490   -4.0200   22.1560 C.cat 227  ARG227      0.5346
    114  NH1       -2.9260   -4.1810   23.4450 N.pl3 227  ARG227      0.1354
    115  NH2       -2.4630   -5.0880   21.3880 N.pl3 227  ARG227      0.1354
    116  N          0.8510    3.2320   11.4760 N.3   258  PHE258     -0.1241
    117  CA        -0.5250    3.5140   11.0530 C.3   258  PHE258      0.1605
    118  C         -0.6010    5.0220   10.7720 C.2   258  PHE258      0.2264
    119  O          0.2550    5.7890   11.2160 O.2   258  PHE258     -0.2867
    120  CB        -1.4710    3.1360   12.1990 C.3   258  PHE258      0.0534
    121  CG        -2.9480    3.1770   11.8490 C.ar  258  PHE258     -0.0203
    122  CD1       -3.7590    4.2000   12.3280 C.ar  258  PHE258     -0.0042
    123  CD2       -3.5240    2.1720   11.0660 C.ar  258  PHE258     -0.0042
    124  CE1       -5.1520    4.2260   12.0280 C.ar  258  PHE258     -0.0003
    125  CE2       -4.8970    2.1890   10.7650 C.ar  258  PHE258     -0.0003
    126  CZ        -5.7000    3.2190   11.2470 C.ar  258  PHE258     -0.0000
    127  N        -16.2910   -6.4530   10.8420 N.3   271  ASP271     -0.1239
    128  CA       -15.4270   -5.5110   11.5460 C.3   271  ASP271      0.1674
    129  C        -16.0860   -4.1450   11.6970 C.2   271  ASP271      0.2266
    130  O        -15.4110   -3.1820   12.0170 O.2   271  ASP271     -0.2867
    131  CB       -14.1120   -5.3230   10.7820 C.3   271  ASP271      0.1410
    132  CG       -13.2120   -6.5510   10.8300 C.2   271  ASP271      0.3668
    133  OD1      -12.5000   -6.7430    9.8190 O.co2 271  ASP271     -0.2456
    134  OD2      -13.1980   -7.3090   11.8470 O.co2 271  ASP271     -0.2456
    135  N        -17.8000   -3.0190   13.9590 N.3   273  TRP273     -0.1227
    136  CA       -17.7120   -2.4790   15.3200 C.3   273  TRP273      0.1737
    137  C        -16.4660   -1.5630   15.4760 C.2   273  TRP273      0.2595
    138  O        -16.4230   -0.6840   16.3560 O.2   273  TRP273     -0.2718
    139  CB       -17.6270   -3.6180   16.3260 C.3   273  TRP273      0.0564
    140  CG       -16.3970   -4.4750   16.1820 C.ar  273  TRP273      0.0003
    141  CD1      -16.2840   -5.6220   15.4710 C.ar  273  TRP273      0.0946
    142  CD2      -15.1270   -4.2700   16.8210 C.ar  273  TRP273      0.0152
    143  NE1      -15.0330   -6.1640   15.6310 N.ar  273  TRP273     -0.2442
    144  CE2      -14.2990   -5.3540   16.4570 C.ar  273  TRP273      0.0810
    145  CE3      -14.6130   -3.2770   17.6710 C.ar  273  TRP273      0.0012
    146  CZ2      -12.9740   -5.4850   16.9210 C.ar  273  TRP273      0.0191
    147  CZ3      -13.2920   -3.4040   18.1300 C.ar  273  TRP273      0.0001
    148  CH2      -12.4960   -4.5000   17.7540 C.ar  273  TRP273      0.0015
    149  N        -15.4560   -1.7940   14.6410 N.am  274  LYS274     -0.1980
    150  CA       -14.2370   -0.9960   14.6880 C.3   274  LYS274      0.1596
    151  C        -14.3960    0.4570   14.2760 C.2   274  LYS274      0.2287
    152  O        -13.6780    1.3310   14.7940 O.2   274  LYS274     -0.2864
    153  CB       -13.1650   -1.6200   13.7940 C.3   274  LYS274      0.0298
    154  CG       -12.6440   -2.9100   14.3140 C.3   274  LYS274      0.0038
    155  CD       -11.5080   -3.4040   13.4400 C.3   274  LYS274      0.0206
    156  CE       -11.1600   -4.8090   13.8520 C.3   274  LYS274      0.1093
    157  NZ       -10.0800   -5.3550   13.0200 N.3   274  LYS274     -0.1314
    158  N        -11.9410    3.8150   15.3820 N.3   278  TYR278     -0.1241
    159  CA       -11.0950    4.5850   14.4640 C.3   278  TYR278      0.1605
    160  C        -11.4680    6.0560   14.5580 C.2   278  TYR278      0.2264
    161  O        -10.5910    6.9170   14.5720 O.2   278  TYR278     -0.2867
    162  CB       -11.2990    4.1670   13.0260 C.3   278  TYR278      0.0534
    163  CG       -10.7060    2.8380   12.6880 C.ar  278  TYR278     -0.0201
    164  CD1       -9.3300    2.6120   12.7900 C.ar  278  TYR278     -0.0009
    165  CD2      -11.5160    1.8230   12.1800 C.ar  278  TYR278     -0.0009
    166  CE1       -8.7820    1.4180   12.3760 C.ar  278  TYR278      0.0417
    167  CE2      -10.9780    0.6140   11.7720 C.ar  278  TYR278      0.0417
    168  CZ        -9.6290    0.4220   11.8630 C.ar  278  TYR278      0.1957
    169  OH        -9.1340   -0.7640   11.3880 O.3   278  TYR278     -0.2866
    170  N        -10.2260    7.6050   17.6700 N.3   281  LYS281     -0.1245
    171  CA        -8.7670    7.8050   17.7510 C.3   281  LYS281      0.1561
    172  C         -8.3580    9.0220   16.9170 C.2   281  LYS281      0.2260
    173  O         -7.4800    9.7700   17.2990 O.2   281  LYS281     -0.2867
    174  CB        -8.0020    6.5270   17.3040 C.3   281  LYS281      0.0271
    175  CG        -8.1740    5.3700   18.3140 C.3   281  LYS281      0.0035
    176  CD        -7.2320    4.1700   18.0530 C.3   281  LYS281      0.0206
    177  CE        -7.6480    3.3310   16.8690 C.3   281  LYS281      0.1093
    178  NZ        -6.7690    2.1030   16.7600 N.3   281  LYS281     -0.1314
@<TRIPOS>BOND
     1   133   132   ar
     2   125   123   ar
     3   125   126   ar
     4   118   117    1
     5   118   119    2
     6   131   132    1
     7   131   128    1
     8   132   134   ar
     9   127   128    1
    10   117   116    1
    11   117   120    1
    12   123   121   ar
    13   126   124   ar
    14   169   168    1
    15   128   129    1
    16   129   130    2
    17   167   168   ar
    18   167   165   ar
    19   121   120    1
    20   121   122   ar
    21   168   166   ar
    22   124   122   ar
    23   165   163   ar
    24   166   164   ar
    25   100    98    1
    26    99    98    1
    27   163   164   ar
    28   163   162    1
    29   157   156    1
    30   162   159    1
    31   155   156    1
    32   155   154    1
    33    98    95    1
    34    43    44    1
    35   153   154    1
    36   153   150    1
    37   135   136    1
    38   151   150    1
    39   151   152    2
    40    88    87    2
    41    51    50    1
    42   159   160    1
    43   159   158    1
    44    95    94    1
    45    95    96    1
    46    50    49    1
    47   160   161    2
    48    93    92    2
    49   149   150    1
    50   149   137   am
    51    89    86    1
    52    48    49    1
    53    48    47    1
    54    44    47    1
    55    44    45    1
    56    92    94   am
    57    92    91    1
    58    96    97    2
    59    96   101   am
    60   136   137    1
    61   136   139    1
    62    87    86    1
    63    87    90   am
    64   141   143   ar
    65   141   140   ar
    66   137   138    2
    67    86    85    1
    68   143   144   ar
    69   101   102    1
    70    45    46    2
    71    91    90    1
    72   140   139    1
    73   140   142   ar
    74   102   103    1
    75   144   142   ar
    76   144   146   ar
    77    11     9    1
    78   178   177    1
    79   142   145   ar
    80   177   176    1
    81   172   173    2
    82   172   171    1
    83   146   148   ar
    84    85    78   am
    85    68    66   ar
    86    68    69   ar
    87    66    65   ar
    88   174   171    1
    89   174   175    1
    90    79    78    2
    91   170   171    1
    92   145   147   ar
    93   103   104    2
    94   103   105   am
    95   148   147   ar
    96    78    77    1
    97     9     8    2
    98     9    10    1
    99   176   175    1
   100     8     7    1
   101    69    67   ar
   102    65    64    1
   103    65    67   ar
   104    63    62    2
   105    23    22    1
   106    81    80    1
   107    81    82    1
   108   105   106    1
   109    64    61    1
   110    34    32    1
   111    61    62    1
   112    61    60    1
   113    59    57   ar
   114    31    32    2
   115    31    30    1
   116    77    80    1
   117    77    76    1
   118    75    74    1
   119    84    82   ar
   120    82    83   ar
   121    32    33    1
   122    22    20   ar
   123    22    21   ar
   124     7     6    1
   125     6     5    1
   126    29    30    1
   127    29    28    1
   128    58    57   ar
   129   107   106    1
   130   107   108    2
   131    60    54   am
   132    76    72   am
   133   106   109    1
   134    20    18   ar
   135    21    19   ar
   136    57    56    1
   137    25    24    1
   138    25    28    1
   139    25    26    1
   140    73    72    2
   141    72    71    1
   142    74    71    1
   143    70    71    1
   144    26    27    2
   145    26    35   am
   146    18    17   ar
   147     5     2    1
   148    19    17   ar
   149    54    55    2
   150    54    53    1
   151     3     2    1
   152     3     4    2
   153   109   110    1
   154     2     1    1
   155    35    36    1
   156   115   113    1
   157    39    40    1
   158    39    36    1
   159    56    53    1
   160    17    16    1
   161   110   111    1
   162   112   113    2
   163   112   111    1
   164    42    40   ar
   165    53    52    1
   166    40    41   ar
   167   113   114    1
   168    36    37    1
   169    16    13    1
   170    37    38    2
   171    13    14    1
   172    13    12    1
   173    14    15    2
