@<TRIPOS>MOLECULE
tmp/3o3oA00.pdb
 124 119 0 0 0
SMALL
GASTEIGER

@<TRIPOS>ATOM
      1  N        -23.7960  -23.1310   19.4560 N.3    32  SER32      -0.1202
      2  CA       -23.1720  -23.8320   20.5850 C.3    32  SER32       0.2020
      3  C        -23.6990  -23.5110   21.9890 C.2    32  SER32       0.2618
      4  O        -23.3530  -24.2060   22.9490 O.2    32  SER32      -0.2717
      5  CB       -21.6460  -23.6630   20.5570 C.3    32  SER32       0.2103
      6  OG       -21.2740  -22.2940   20.6320 O.3    32  SER32      -0.2182
      7  N        -24.5180  -22.4730   22.1240 N.am   33  VAL33      -0.1979
      8  CA       -25.1450  -22.1830   23.4200 C.3    33  VAL33       0.1595
      9  C        -26.6570  -21.9470   23.2780 C.2    33  VAL33       0.2287
     10  O        -27.2280  -21.0830   23.9460 O.2    33  VAL33      -0.2864
     11  CB       -24.4820  -20.9830   24.1660 C.3    33  VAL33       0.0276
     12  CG1      -24.9500  -20.9410   25.6260 C.3    33  VAL33       0.0022
     13  CG2      -22.9570  -21.0830   24.1260 C.3    33  VAL33       0.0022
     14  N        -20.1900  -25.5510   14.5920 N.3    50  GLU50      -0.1245
     15  CA       -18.9820  -25.1060   15.2910 C.3    50  GLU50       0.1567
     16  C        -18.0610  -26.2720   15.6790 C.2    50  GLU50       0.2260
     17  O        -16.8380  -26.1760   15.5670 O.2    50  GLU50      -0.2867
     18  CB       -19.3490  -24.2820   16.5290 C.3    50  GLU50       0.0388
     19  CG       -19.8900  -22.8880   16.2150 C.3    50  GLU50       0.1160
     20  CD       -20.7350  -22.3250   17.3440 C.2    50  GLU50       0.3649
     21  OE1      -20.1510  -21.7630   18.2960 O.co2  50  GLU50      -0.2457
     22  OE2      -21.9830  -22.4530   17.2830 O.co2  50  GLU50      -0.2457
     23  N        -15.4440  -20.2440   10.9810 N.3    81  TYR81      -0.1241
     24  CA       -16.3990  -21.3290   11.1880 C.3    81  TYR81       0.1605
     25  C        -17.4890  -21.2310   10.1240 C.2    81  TYR81       0.2264
     26  O        -17.9400  -22.2380    9.5900 O.2    81  TYR81      -0.2867
     27  CB       -17.0250  -21.2570   12.5880 C.3    81  TYR81       0.0534
     28  CG       -16.1990  -21.8620   13.7170 C.ar   81  TYR81      -0.0201
     29  CD1      -15.1130  -22.6850   13.4560 C.ar   81  TYR81      -0.0009
     30  CD2      -16.5210  -21.6120   15.0470 C.ar   81  TYR81      -0.0009
     31  CE1      -14.3680  -23.2460   14.4880 C.ar   81  TYR81       0.0417
     32  CE2      -15.7810  -22.1650   16.0870 C.ar   81  TYR81       0.0417
     33  CZ       -14.7080  -22.9820   15.8030 C.ar   81  TYR81       0.1957
     34  OH       -13.9680  -23.5330   16.8340 O.3    81  TYR81      -0.2866
     35  N        -23.7980  -15.8070   21.9290 N.3   111  ILE111     -0.1245
     36  CA       -22.3610  -15.8850   21.6620 C.3   111  ILE111      0.1561
     37  C        -21.8760  -14.7720   20.7410 C.2   111  ILE111      0.2260
     38  O        -20.7510  -14.2870   20.8910 O.2   111  ILE111     -0.2867
     39  CB       -21.9460  -17.2580   21.0570 C.3   111  ILE111      0.0252
     40  CG1      -22.7430  -17.5620   19.7830 C.3   111  ILE111      0.0019
     41  CG2      -22.1310  -18.3760   22.0750 C.3   111  ILE111      0.0019
     42  CD1      -22.3060  -18.8230   19.0620 C.3   111  ILE111      0.0001
     43  N        -14.7100  -30.1790   26.0520 N.3   213  MET213     -0.1245
     44  CA       -15.7380  -29.1930   25.7380 C.3   213  MET213      0.1570
     45  C        -16.8000  -29.7040   24.7600 C.2   213  MET213      0.2261
     46  O        -17.9860  -29.4030   24.9090 O.2   213  MET213     -0.2867
     47  CB       -15.0870  -27.9190   25.1820 C.3   213  MET213      0.0387
     48  CG       -16.0770  -26.8930   24.6260 C.3   213  MET213      0.0595
     49  SD       -15.2840  -25.4950   23.7930 S.3   213  MET213     -0.1393
     50  CE       -14.3370  -24.7990   25.1430 C.3   213  MET213      0.0692
     51  N         -9.9500  -19.1540   22.3210 N.3   260  ILE260     -0.1245
     52  CA        -9.9180  -20.5560   21.9250 C.3   260  ILE260      0.1561
     53  C         -8.6610  -20.8420   21.1040 C.2   260  ILE260      0.2260
     54  O         -8.0780  -19.9320   20.5120 O.2   260  ILE260     -0.2867
     55  CB       -11.1940  -20.9880   21.1680 C.3   260  ILE260      0.0252
     56  CG1      -11.4350  -20.1030   19.9470 C.3   260  ILE260      0.0019
     57  CG2      -12.4010  -20.9520   22.0950 C.3   260  ILE260      0.0019
     58  CD1      -12.6730  -20.4910   19.1590 C.3   260  ILE260      0.0001
     59  N        -13.6320  -20.6420   30.9570 N.3   285  TYR285     -0.1241
     60  CA       -14.5700  -21.5270   30.2730 C.3   285  TYR285      0.1605
     61  C        -15.3980  -22.4780   31.1590 C.2   285  TYR285      0.2264
     62  O        -16.4680  -22.9240   30.7450 O.2   285  TYR285     -0.2867
     63  CB       -13.8710  -22.2750   29.1340 C.3   285  TYR285      0.0534
     64  CG       -13.4110  -21.3420   28.0400 C.ar  285  TYR285     -0.0201
     65  CD1      -14.3150  -20.8190   27.1220 C.ar  285  TYR285     -0.0009
     66  CD2      -12.0760  -20.9660   27.9340 C.ar  285  TYR285     -0.0009
     67  CE1      -13.9050  -19.9590   26.1260 C.ar  285  TYR285      0.0417
     68  CE2      -11.6540  -20.1050   26.9390 C.ar  285  TYR285      0.0417
     69  CZ       -12.5720  -19.6040   26.0370 C.ar  285  TYR285      0.1957
     70  OH       -12.1570  -18.7440   25.0460 O.3   285  TYR285     -0.2866
     71  N        -18.8560  -21.1260   31.1560 N.3   288  ALA288     -0.1231
     72  CA       -19.6010  -20.9740   29.9060 C.3   288  ALA288      0.1694
     73  C        -20.8700  -21.8290   29.8370 C.2   288  ALA288      0.2592
     74  O        -21.9270  -21.3390   29.4410 O.2   288  ALA288     -0.2718
     75  CB       -18.6990  -21.2640   28.7040 C.3   288  ALA288      0.0304
     76  N        -20.7620  -23.1000   30.2240 N.am  289  TRP289     -0.1976
     77  CA       -21.8760  -24.0440   30.0910 C.3   289  TRP289      0.1640
     78  C        -22.4820  -24.5500   31.4150 C.2   289  TRP289      0.2290
     79  O        -23.2820  -25.4840   31.4170 O.2   289  TRP289     -0.2864
     80  CB       -21.4740  -25.2260   29.1850 C.3   289  TRP289      0.0576
     81  CG       -21.2840  -24.8370   27.7250 C.ar  289  TRP289      0.0006
     82  CD1      -22.2610  -24.7260   26.7710 C.ar  289  TRP289      0.0946
     83  CD2      -20.0490  -24.5090   27.0670 C.ar  289  TRP289      0.0152
     84  NE1      -21.7110  -24.3440   25.5690 N.ar  289  TRP289     -0.2442
     85  CE2      -20.3570  -24.2030   25.7240 C.ar  289  TRP289      0.0810
     86  CE3      -18.7160  -24.4370   27.4840 C.ar  289  TRP289      0.0012
     87  CZ2      -19.3810  -23.8370   24.7970 C.ar  289  TRP289      0.0191
     88  CZ3      -17.7500  -24.0710   26.5660 C.ar  289  TRP289      0.0001
     89  CH2      -18.0870  -23.7740   25.2350 C.ar  289  TRP289      0.0015
     90  N        -24.7660  -15.6770   29.7730 N.3   308  MET308     -0.1230
     91  CA       -23.5070  -16.2980   29.3660 C.3   308  MET308      0.1702
     92  C        -22.5200  -15.1730   29.0860 C.2   308  MET308      0.2592
     93  O        -22.9080  -14.1520   28.5440 O.2   308  MET308     -0.2718
     94  CB       -23.7040  -17.1700   28.1200 C.3   308  MET308      0.0401
     95  CG       -22.4410  -17.8910   27.6430 C.3   308  MET308      0.0596
     96  SD       -21.6780  -17.1240   26.1960 S.3   308  MET308     -0.1393
     97  CE       -20.0910  -17.9570   26.1530 C.3   308  MET308      0.0692
     98  N        -21.2500  -15.3670   29.4330 N.am  309  PHE309     -0.1962
     99  CA       -20.3040  -14.2470   29.5210 C.3   309  PHE309      0.1771
    100  C        -19.9690  -13.4790   28.2310 C.2   309  PHE309      0.2619
    101  O        -19.2930  -12.4410   28.2830 O.2   309  PHE309     -0.2715
    102  CB       -19.0250  -14.6360   30.2900 C.3   309  PHE309      0.0574
    103  CG       -18.2250  -15.7430   29.6570 C.ar  309  PHE309     -0.0200
    104  CD1      -17.4820  -15.5180   28.5080 C.ar  309  PHE309     -0.0042
    105  CD2      -18.1760  -16.9990   30.2440 C.ar  309  PHE309     -0.0042
    106  CE1      -16.7290  -16.5340   27.9370 C.ar  309  PHE309     -0.0003
    107  CE2      -17.4270  -18.0170   29.6790 C.ar  309  PHE309     -0.0003
    108  CZ       -16.6990  -17.7810   28.5210 C.ar  309  PHE309     -0.0000
    109  N        -20.4430  -13.9620   27.0860 N.am  310  ASN310     -0.1972
    110  CA       -20.3000  -13.1950   25.8490 C.3   310  ASN310      0.1688
    111  C        -21.3380  -12.0700   25.7250 C.2   310  ASN310      0.2292
    112  O        -21.2340  -11.2180   24.8410 O.2   310  ASN310     -0.2864
    113  CB       -20.3670  -14.1200   24.6230 C.3   310  ASN310      0.1181
    114  CG       -19.0140  -14.7160   24.2620 C.2   310  ASN310      0.2629
    115  OD1      -18.7810  -15.1170   23.1170 O.2   310  ASN310     -0.2716
    116  ND2      -18.1100  -14.7680   25.2350 N.am  310  ASN310     -0.0877
    117  N        -14.9340  -10.5970   20.5910 N.3   344  MET344     -0.1245
    118  CA       -13.8460  -10.7320   21.5550 C.3   344  MET344      0.1570
    119  C        -12.6610   -9.8090   21.2460 C.2   344  MET344      0.2261
    120  O        -12.0160   -9.2940   22.1620 O.2   344  MET344     -0.2867
    121  CB       -13.3850  -12.1850   21.6430 C.3   344  MET344      0.0387
    122  CG       -14.3680  -13.0950   22.3690 C.3   344  MET344      0.0595
    123  SD       -14.6110  -12.5860   24.0840 S.3   344  MET344     -0.1393
    124  CE       -16.3650  -12.2090   24.0850 C.3   344  MET344      0.0692
@<TRIPOS>BOND
     1    26    25    2
     2    25    24    1
     3    23    24    1
     4    24    27    1
     5    27    28    1
     6    29    28   ar
     7    29    31   ar
     8    28    30   ar
     9    31    33   ar
    10    14    15    1
    11    30    32   ar
    12    15    16    1
    13    15    18    1
    14    17    16    2
    15    33    32   ar
    16    33    34    1
    17    19    18    1
    18    19    20    1
    19    22    20   ar
    20    20    21   ar
    21    42    40    1
    22    58    56    1
    23     1     2    1
    24    40    39    1
    25    56    55    1
    26    54    53    2
    27     5     2    1
    28     5     6    1
    29     2     3    1
    30   117   118    1
    31    37    38    2
    32    37    36    1
    33    39    36    1
    34    39    41    1
    35    53    52    1
    36    55    52    1
    37    55    57    1
    38   119   118    1
    39   119   120    2
    40   118   121    1
    41   121   122    1
    42    36    35    1
    43    52    51    1
    44     3     7   am
    45     3     4    2
    46     7     8    1
    47   122   123    1
    48   115   114    2
    49     9     8    1
    50     9    10    2
    51     8    11    1
    52    49    48    1
    53    49    50    1
    54   123   124    1
    55    13    11    1
    56    11    12    1
    57   114   113    1
    58   114   116   am
    59   113   110    1
    60    48    47    1
    61    45    46    2
    62    45    44    1
    63    87    89   ar
    64    87    85   ar
    65   112   111    2
    66    70    69    1
    67    47    44    1
    68    89    88   ar
    69    84    85   ar
    70    84    82   ar
    71    85    83   ar
    72   111   110    1
    73    44    43    1
    74   110   109    1
    75    69    67   ar
    76    69    68   ar
    77    67    65   ar
    78    97    96    1
    79    96    95    1
    80    88    86   ar
    81    82    81   ar
    82    68    66   ar
    83    83    86   ar
    84    83    81   ar
    85   109   100   am
    86    65    64   ar
    87    95    94    1
    88    81    80    1
    89    66    64   ar
    90   106   104   ar
    91   106   108   ar
    92    64    63    1
    93    94    91    1
    94   100   101    2
    95   100    99    1
    96   104   103   ar
    97   108   107   ar
    98    93    92    2
    99    75    72    1
   100    92    91    1
   101    92    98   am
   102    63    60    1
   103    80    77    1
   104    91    90    1
   105    98    99    1
   106    74    73    2
   107    99   102    1
   108   103   105   ar
   109   103   102    1
   110   107   105   ar
   111    73    72    1
   112    73    76   am
   113    72    71    1
   114    77    76    1
   115    77    78    1
   116    60    59    1
   117    60    61    1
   118    62    61    2
   119    78    79    2
