@<TRIPOS>MOLECULE
tmp/3o3pB00.pdb
 166 154 0 0 0
SMALL
GASTEIGER

@<TRIPOS>ATOM
      1  N         14.3110  -34.1210   21.5390 N.3    40  PRO40      -0.2102
      2  CA        15.4470  -33.9390   22.4480 C.3    40  PRO40       0.1504
      3  C         15.6670  -32.4490   22.6830 C.2    40  PRO40       0.2576
      4  O         15.8270  -31.7040   21.7290 O.2    40  PRO40      -0.2718
      5  CB        16.6150  -34.5680   21.6870 C.3    40  PRO40       0.0282
      6  CG        16.1720  -34.5970   20.2460 C.3    40  PRO40       0.0208
      7  CD        14.6940  -34.7790   20.2780 C.3    40  PRO40       0.0893
      8  N         15.6610  -32.0260   23.9420 N.am   41  SER41      -0.1938
      9  CA        15.6180  -30.6040   24.2760 C.3    41  SER41       0.2055
     10  C         16.6740  -30.1740   25.2770 C.2    41  SER41       0.2642
     11  O         16.7830  -30.7480   26.3600 O.2    41  SER41      -0.2714
     12  CB        14.2460  -30.2520   24.8520 C.3    41  SER41       0.2130
     13  OG        13.2340  -30.4900   23.8970 O.3    41  SER41      -0.2179
     14  N         17.4320  -29.1460   24.9110 N.am   42  ARG42      -0.1977
     15  CA        18.3300  -28.4660   25.8390 C.3    42  ARG42       0.1597
     16  C         18.2670  -26.9580   25.5870 C.2    42  ARG42       0.2287
     17  O         18.6610  -26.4870   24.5230 O.2    42  ARG42      -0.2864
     18  CB        19.7670  -28.9710   25.6830 C.3    42  ARG42       0.0334
     19  CG        20.7470  -28.3270   26.6540 C.3    42  ARG42       0.0492
     20  CD        22.1360  -28.9120   26.5090 C.3    42  ARG42       0.2205
     21  NE        22.7000  -28.6430   25.1900 N.pl3  42  ARG42      -0.0865
     22  CZ        23.9090  -29.0360   24.8000 C.cat  42  ARG42       0.5346
     23  NH1       24.6810  -29.7250   25.6330 N.pl3  42  ARG42       0.1354
     24  NH2       24.3450  -28.7420   23.5780 N.pl3  42  ARG42       0.1354
     25  N         15.5650  -24.6290   25.1300 N.3    44  VAL44      -0.1245
     26  CA        14.7540  -24.3120   23.9690 C.3    44  VAL44       0.1561
     27  C         13.3980  -23.7770   24.3930 C.2    44  VAL44       0.2260
     28  O         12.4160  -23.8860   23.6540 O.2    44  VAL44      -0.2867
     29  CB        14.5600  -25.5440   23.0860 C.3    44  VAL44       0.0252
     30  CG1       15.8450  -25.8400   22.3170 C.3    44  VAL44       0.0019
     31  CG2       14.1110  -26.7370   23.9440 C.3    44  VAL44       0.0019
     32  N         12.3390  -34.6820   26.0020 N.3    71  VAL71      -0.1231
     33  CA        13.4060  -35.2740   26.7810 C.3    71  VAL71       0.1692
     34  C         14.4450  -34.1920   26.9680 C.2    71  VAL71       0.2592
     35  O         15.2040  -33.8600   26.0520 O.2    71  VAL71      -0.2718
     36  CB        13.9970  -36.4940   26.0830 C.3    71  VAL71       0.0266
     37  CG1       15.1190  -37.0870   26.9160 C.3    71  VAL71       0.0020
     38  CG2       12.9130  -37.5290   25.8690 C.3    71  VAL71       0.0020
     39  N         14.4520  -33.6410   28.1700 N.am   72  ASP72      -0.1960
     40  CA        15.1210  -32.3850   28.4670 C.3    72  ASP72       0.1840
     41  C         16.4530  -32.6090   29.1680 C.2    72  ASP72       0.2621
     42  O         16.5410  -33.3990   30.1000 O.2    72  ASP72      -0.2715
     43  CB        14.2040  -31.5530   29.3680 C.3    72  ASP72       0.1450
     44  CG        14.8770  -30.3140   29.9020 C.2    72  ASP72       0.3671
     45  OD1       15.5320  -29.6110   29.1040 O.co2  72  ASP72      -0.2456
     46  OD2       14.7450  -30.0390   31.1160 O.co2  72  ASP72      -0.2456
     47  N         17.4850  -31.9010   28.7230 N.am   73  ALA73      -0.1977
     48  CA        18.8120  -31.9940   29.3290 C.3    73  ALA73       0.1597
     49  C         18.9260  -31.1660   30.6130 C.2    73  ALA73       0.2287
     50  O         19.9780  -30.6060   30.9070 O.2    73  ALA73      -0.2864
     51  CB        19.8720  -31.5610   28.3250 C.3    73  ALA73       0.0319
     52  N         16.7530  -36.3990   30.7960 N.3    93  GLU93      -0.1245
     53  CA        17.6180  -37.3580   30.1270 C.3    93  GLU93       0.1567
     54  C         18.4300  -38.1280   31.1560 C.2    93  GLU93       0.2260
     55  O         18.9040  -39.2290   30.8810 O.2    93  GLU93      -0.2867
     56  CB        18.5520  -36.6550   29.1400 C.3    93  GLU93       0.0388
     57  CG        19.4510  -35.6070   29.7940 C.3    93  GLU93       0.1160
     58  CD        20.4810  -35.0280   28.8400 C.2    93  GLU93       0.3649
     59  OE1       20.3560  -35.2460   27.6150 O.co2  93  GLU93      -0.2457
     60  OE2       21.4220  -34.3590   29.3190 O.co2  93  GLU93      -0.2457
     61  N         25.1240  -36.3050   26.1210 N.3   105  GLY105     -0.1210
     62  CA        24.6680  -35.5470   24.9610 C.3   105  GLY105      0.1956
     63  C         23.4370  -36.0470   24.2120 C.2   105  GLY105      0.2611
     64  O         22.7010  -36.9200   24.6820 O.2   105  GLY105     -0.2717
     65  N         23.2170  -35.4880   23.0240 N.am  106  LYS106     -0.1979
     66  CA        21.9660  -35.6840   22.2940 C.3   106  LYS106      0.1596
     67  C         21.6300  -37.1440   21.9660 C.2   106  LYS106      0.2287
     68  O         20.4920  -37.5730   22.1400 O.2   106  LYS106     -0.2864
     69  CB        21.9460  -34.8330   21.0260 C.3   106  LYS106      0.0298
     70  CG        20.5650  -34.7150   20.3820 C.3   106  LYS106      0.0038
     71  CD        20.6010  -33.8720   19.1120 C.3   106  LYS106      0.0206
     72  CE        21.4840  -34.5040   18.0430 C.3   106  LYS106      0.1093
     73  NZ        21.7200  -33.6090   16.8630 N.3   106  LYS106     -0.1314
     74  N         20.2620  -38.9630   25.0600 N.3   109  ALA109     -0.1245
     75  CA        18.8700  -38.5640   25.2720 C.3   109  ALA109      0.1562
     76  C         17.9190  -39.2610   24.2870 C.2   109  ALA109      0.2260
     77  O         16.8480  -39.7310   24.6710 O.2   109  ALA109     -0.2867
     78  CB        18.7210  -37.0520   25.1780 C.3   109  ALA109      0.0290
     79  N         13.6260  -31.9490   15.8890 N.3   126  ASP126     -0.1225
     80  CA        14.4680  -30.9390   16.5100 C.3   126  ASP126      0.1805
     81  C         13.5990  -29.9430   17.2590 C.2   126  ASP126      0.2598
     82  O         12.6070  -29.4500   16.7310 O.2   126  ASP126     -0.2718
     83  CB        15.3260  -30.2260   15.4510 C.3   126  ASP126      0.1424
     84  CG        16.6470  -30.9460   15.1780 C.2   126  ASP126      0.3668
     85  OD1       16.8270  -32.0890   15.6690 O.co2 126  ASP126     -0.2456
     86  OD2       17.5060  -30.3640   14.4760 O.co2 126  ASP126     -0.2456
     87  N         13.9810  -29.6400   18.4910 N.am  127  ALA127     -0.1966
     88  CA        13.1680  -28.7710   19.3330 C.3   127  ALA127      0.1728
     89  C         13.5570  -27.3010   19.2570 C.2   127  ALA127      0.2616
     90  O         13.0080  -26.4860   19.9990 O.2   127  ALA127     -0.2715
     91  CB        13.2020  -29.2520   20.7930 C.3   127  ALA127      0.0334
     92  N         14.4960  -26.9580   18.3750 N.am  128  ASP128     -0.1971
     93  CA        15.0050  -25.5870   18.3120 C.3   128  ASP128      0.1709
     94  C         14.5450  -24.8400   17.0670 C.2   128  ASP128      0.2293
     95  O         15.0020  -23.7290   16.7980 O.2   128  ASP128     -0.2864
     96  CB        16.5370  -25.5570   18.4270 C.3   128  ASP128      0.1436
     97  CG        17.2290  -26.3280   17.3150 C.2   128  ASP128      0.3671
     98  OD1       16.6010  -27.2380   16.7460 O.co2 128  ASP128     -0.2456
     99  OD2       18.4060  -26.0320   17.0140 O.co2 128  ASP128     -0.2456
    100  N         22.0350  -35.8890    7.8950 N.3   191  LEU191     -0.1245
    101  CA        22.2030  -35.5440    9.3030 C.3   191  LEU191      0.1561
    102  C         20.9710  -34.8480    9.8960 C.2   191  LEU191      0.2260
    103  O         21.0110  -34.3120   11.0080 O.2   191  LEU191     -0.2867
    104  CB        23.4550  -34.6850    9.4930 C.3   191  LEU191      0.0270
    105  CG        24.7880  -35.3480    9.0910 C.3   191  LEU191      0.0019
    106  CD1       25.9630  -34.6320    9.7410 C.3   191  LEU191      0.0001
    107  CD2       24.8330  -36.8450    9.4360 C.3   191  LEU191      0.0001
    108  N         27.1230  -36.0380   19.1710 N.3   211  TYR211     -0.1241
    109  CA        26.7700  -35.4470   17.8900 C.3   211  TYR211      0.1605
    110  C         26.7780  -36.4500   16.7400 C.2   211  TYR211      0.2264
    111  O         26.2330  -36.1840   15.6750 O.2   211  TYR211     -0.2867
    112  CB        27.6930  -34.2560   17.6170 C.3   211  TYR211      0.0534
    113  CG        27.3550  -33.4590   16.3860 C.ar  211  TYR211     -0.0201
    114  CD1       28.0600  -33.6490   15.1950 C.ar  211  TYR211     -0.0009
    115  CD2       26.3410  -32.5060   16.4040 C.ar  211  TYR211     -0.0009
    116  CE1       27.7650  -32.9140   14.0520 C.ar  211  TYR211      0.0417
    117  CE2       26.0390  -31.7650   15.2600 C.ar  211  TYR211      0.0417
    118  CZ        26.7590  -31.9790   14.0920 C.ar  211  TYR211      0.1957
    119  OH        26.4740  -31.2630   12.9670 O.3   211  TYR211     -0.2866
    120  N         13.4640  -24.9810    5.5050 N.3   238  ARG238     -0.1245
    121  CA        13.6940  -24.9520    6.9390 C.3   238  ARG238      0.1563
    122  C         14.8370  -23.9910    7.2020 C.2   238  ARG238      0.2260
    123  O         15.9100  -24.1350    6.6230 O.2   238  ARG238     -0.2867
    124  CB        14.0320  -26.3490    7.4730 C.3   238  ARG238      0.0307
    125  CG        14.0720  -26.4190    8.9910 C.3   238  ARG238      0.0489
    126  CD        14.2930  -27.8290    9.5210 C.3   238  ARG238      0.2205
    127  NE        14.3190  -27.8360   10.9820 N.pl3 238  ARG238     -0.0865
    128  CZ        15.4060  -27.6010   11.7130 C.cat 238  ARG238      0.5346
    129  NH1       16.5650  -27.3500   11.1190 N.pl3 238  ARG238      0.1354
    130  NH2       15.3380  -27.6180   13.0380 N.pl3 238  ARG238      0.1354
    131  N         20.4060  -22.8430   11.7890 N.3   241  ARG241     -0.1245
    132  CA        21.2580  -22.1150   12.7170 C.3   241  ARG241      0.1563
    133  C         22.6050  -21.8020   12.0660 C.2   241  ARG241      0.2260
    134  O         22.9730  -22.3990   11.0510 O.2   241  ARG241     -0.2867
    135  CB        21.4770  -22.9360   13.9900 C.3   241  ARG241      0.0307
    136  CG        20.2030  -23.3170   14.7440 C.3   241  ARG241      0.0489
    137  CD        19.5240  -22.1020   15.3610 C.3   241  ARG241      0.2205
    138  NE        18.6650  -21.4070   14.4040 N.pl3 241  ARG241     -0.0865
    139  CZ        18.1990  -20.1730   14.5740 C.cat 241  ARG241      0.5346
    140  NH1       18.5180  -19.4870   15.6630 N.pl3 241  ARG241      0.1354
    141  NH2       17.4200  -19.6190   13.6530 N.pl3 241  ARG241      0.1354
    142  N         25.7580  -22.1570   13.6780 N.3   243  GLN243     -0.1245
    143  CA        26.7350  -22.5970   14.6600 C.3   243  GLN243      0.1566
    144  C         28.1080  -22.0690   14.2240 C.2   243  GLN243      0.2260
    145  O         28.3430  -21.8670   13.0330 O.2   243  GLN243     -0.2867
    146  CB        26.7320  -24.1260   14.7420 C.3   243  GLN243      0.0367
    147  CG        27.5630  -24.7070   15.8770 C.3   243  GLN243      0.0905
    148  CD        26.7540  -24.9500   17.1370 C.2   243  GLN243      0.2608
    149  OE1       25.7290  -25.6340   17.1090 O.2   243  GLN243     -0.2717
    150  NE2       27.2130  -24.3900   18.2530 N.am  243  GLN243     -0.0878
    151  N         31.8840  -26.4380   15.0000 N.3   248  LEU248     -0.1245
    152  CA        31.5050  -27.4580   14.0340 C.3   248  LEU248      0.1561
    153  C         32.6340  -28.4490   13.7960 C.2   248  LEU248      0.2260
    154  O         32.3890  -29.5970   13.4310 O.2   248  LEU248     -0.2867
    155  CB        31.0730  -26.8230   12.7190 C.3   248  LEU248      0.0270
    156  CG        29.7000  -26.1530   12.7160 C.3   248  LEU248      0.0019
    157  CD1       29.4370  -25.5350   11.3540 C.3   248  LEU248      0.0001
    158  CD2       28.5960  -27.1450   13.0780 C.3   248  LEU248      0.0001
    159  N         32.2230  -31.3190   16.0070 N.3   251  MET251     -0.1245
    160  CA        31.1120  -32.0840   15.4570 C.3   251  MET251      0.1570
    161  C         31.5500  -32.9500   14.2680 C.2   251  MET251      0.2261
    162  O         31.3200  -34.1720   14.2650 O.2   251  MET251     -0.2867
    163  CB        29.9790  -31.1330   15.0870 C.3   251  MET251      0.0387
    164  CG        29.7320  -30.0910   16.1970 C.3   251  MET251      0.0595
    165  SD        28.3400  -28.9610   15.9720 S.3   251  MET251     -0.1393
    166  CE        28.3760  -28.0710   17.5300 C.3   251  MET251      0.0692
@<TRIPOS>BOND
     1   120   121    1
     2   123   122    2
     3   121   122    1
     4   121   124    1
     5   124   125    1
     6   100   101    1
     7   125   126    1
     8   105   107    1
     9   105   104    1
    10   105   106    1
    11   101   104    1
    12   101   102    1
    13   126   127    1
    14   102   103    2
    15   127   128    2
    16   134   133    2
    17   129   128    1
    18   157   156    1
    19   128   130    1
    20   131   132    1
    21   133   132    1
    22   156   155    1
    23   156   158    1
    24   132   135    1
    25   155   152    1
    26   119   118    1
    27   145   144    2
    28   154   153    2
    29   141   139    1
    30   142   143    1
    31   153   152    1
    32   135   136    1
    33   152   151    1
    34   116   118   ar
    35   116   114   ar
    36   118   117   ar
    37   144   143    1
    38   162   161    2
    39   161   160    1
    40   138   139    2
    41   138   137    1
    42    86    84   ar
    43   139   140    1
    44   143   146    1
    45   146   147    1
    46   136   137    1
    47   163   160    1
    48   163   164    1
    49    84    83    1
    50    84    85   ar
    51   114   113   ar
    52   117   115   ar
    53    83    80    1
    54   160   159    1
    55   111   110    2
    56   147   148    1
    57    79    80    1
    58   165   164    1
    59   165   166    1
    60   113   115   ar
    61   113   112    1
    62    80    81    1
    63    82    81    2
    64   110   109    1
    65    98    97   ar
    66    95    94    2
    67    73    72    1
    68    99    97   ar
    69    94    93    1
    70   149   148    2
    71   148   150   am
    72    81    87   am
    73    97    96    1
    74   112   109    1
    75   109   108    1
    76    72    71    1
    77    93    92    1
    78    93    96    1
    79    92    89   am
    80    87    88    1
    81    71    70    1
    82    89    88    1
    83    89    90    2
    84    88    91    1
    85     6     7    1
    86     6     5    1
    87     7     1    1
    88    70    69    1
    89    69    66    1
    90     1     2    1
    91     5     2    1
    92     4     3    2
    93    67    68    2
    94    67    66    1
    95    66    65    1
    96    30    29    1
    97     2     3    1
    98     3     8   am
    99    65    63   am
   100    29    31    1
   101    29    26    1
   102    24    22    1
   103    28    27    2
   104    13    12    1
   105     8     9    1
   106    26    27    1
   107    26    25    1
   108    63    64    2
   109    63    62    1
   110     9    12    1
   111     9    10    1
   112    76    77    2
   113    76    75    1
   114    17    16    2
   115    22    21    2
   116    22    23    1
   117    14    10   am
   118    14    15    1
   119    62    61    1
   120    74    75    1
   121    78    75    1
   122    21    20    1
   123    10    11    2
   124    16    15    1
   125    18    15    1
   126    18    19    1
   127    38    36    1
   128    32    33    1
   129    35    34    2
   130    36    33    1
   131    36    37    1
   132    20    19    1
   133    33    34    1
   134    34    39   am
   135    59    58   ar
   136    39    40    1
   137    51    48    1
   138    40    41    1
   139    40    43    1
   140    47    41   am
   141    47    48    1
   142    58    60   ar
   143    58    57    1
   144    45    44   ar
   145    56    57    1
   146    56    53    1
   147    41    42    2
   148    48    49    1
   149    43    44    1
   150    44    46   ar
   151    53    52    1
   152    53    54    1
   153    49    50    2
   154    55    54    2
