@<TRIPOS>MOLECULE
tmp/3o3uA00.pdb
 218 214 0 0 0
SMALL
GASTEIGER

@<TRIPOS>ATOM
      1  N         18.8850    9.6120   71.9820 N.3    11  ASN11      -0.1240
      2  CA        18.4630   10.7010   72.8500 C.3    11  ASN11       0.1653
      3  C         17.1530   10.4100   73.5630 C.2    11  ASN11       0.2266
      4  O         16.2890    9.7090   73.0360 O.2    11  ASN11      -0.2867
      5  CB        18.3400   12.0040   72.0620 C.3    11  ASN11       0.1155
      6  CG        18.4560   13.2170   72.9550 C.2    11  ASN11       0.2627
      7  OD1       19.3080   13.2690   73.8530 O.2    11  ASN11      -0.2716
      8  ND2       17.5980   14.2000   72.7230 N.am   11  ASN11      -0.0877
      9  N         14.5370   12.0410   74.0780 N.3    13  ASP13      -0.1225
     10  CA        13.2780   12.4790   73.4660 C.3    13  ASP13       0.1805
     11  C         12.7590   11.5400   72.3590 C.2    13  ASP13       0.2597
     12  O         11.6520   11.7260   71.8470 O.2    13  ASP13      -0.2718
     13  CB        13.3180   13.9530   73.0030 C.3    13  ASP13       0.1424
     14  CG        14.4170   14.2460   71.9920 C.2    13  ASP13       0.3668
     15  OD1       15.1050   13.3100   71.5410 O.co2  13  ASP13      -0.2456
     16  OD2       14.5960   15.4450   71.6580 O.co2  13  ASP13      -0.2456
     17  N         13.5380   10.5050   72.0340 N.am   14  LYS14      -0.1979
     18  CA        13.1810    9.5730   70.9540 C.3    14  LYS14       0.1596
     19  C         12.5430    8.2880   71.4980 C.2    14  LYS14       0.2287
     20  O         12.4740    8.0770   72.7150 O.2    14  LYS14      -0.2864
     21  CB        14.4140    9.2290   70.1050 C.3    14  LYS14       0.0298
     22  CG        15.1000   10.4360   69.4620 C.3    14  LYS14       0.0038
     23  CD        14.1040   11.2950   68.6860 C.3    14  LYS14       0.0206
     24  CE        14.7890   12.3510   67.8220 C.3    14  LYS14       0.1093
     25  NZ        15.6460   13.2550   68.6200 N.3    14  LYS14      -0.1314
     26  N         25.7550   13.1280   72.8860 N.3    43  GLU43      -0.1231
     27  CA        26.4460   13.6250   71.7010 C.3    43  GLU43       0.1699
     28  C         27.7770   14.2970   72.0320 C.2    43  GLU43       0.2592
     29  O         28.6630   14.3850   71.1770 O.2    43  GLU43      -0.2718
     30  CB        25.5400   14.5650   70.9010 C.3    43  GLU43       0.0402
     31  CG        25.5430   16.0200   71.3510 C.3    43  GLU43       0.1161
     32  CD        24.6920   16.2910   72.5910 C.2    43  GLU43       0.3649
     33  OE1       24.2170   15.3420   73.2480 O.co2  43  GLU43      -0.2457
     34  OE2       24.4970   17.4780   72.9100 O.co2  43  GLU43      -0.2457
     35  N         27.9050   14.7570   73.2770 N.am   44  GLU44      -0.1979
     36  CA        29.1780   15.2510   73.8140 C.3    44  GLU44       0.1602
     37  C         29.9900   14.1360   74.4710 C.2    44  GLU44       0.2287
     38  O         31.2150   14.1260   74.3930 O.2    44  GLU44      -0.2864
     39  CB        28.9400   16.3720   74.8260 C.3    44  GLU44       0.0415
     40  CG        28.4200   17.6440   74.2000 C.3    44  GLU44       0.1163
     41  CD        28.1590   18.7270   75.2230 C.2    44  GLU44       0.3649
     42  OE1       28.1560   18.4150   76.4330 O.co2  44  GLU44      -0.2457
     43  OE2       27.9490   19.8900   74.8130 O.co2  44  GLU44      -0.2457
     44  N         21.9210   10.0480   66.4380 N.3    61  TRP61      -0.1227
     45  CA        21.7530   11.5010   66.5730 C.3    61  TRP61       0.1737
     46  C         21.3620   12.0520   65.2050 C.2    61  TRP61       0.2595
     47  O         21.4510   11.3550   64.2040 O.2    61  TRP61      -0.2718
     48  CB        23.0650   12.1510   67.0420 C.3    61  TRP61       0.0564
     49  CG        22.8890   13.5350   67.5850 C.ar   61  TRP61       0.0003
     50  CD1       23.1240   14.7160   66.9300 C.ar   61  TRP61       0.0946
     51  CD2       22.4380   13.8810   68.8970 C.ar   61  TRP61       0.0152
     52  NE1       22.8410   15.7780   67.7640 N.ar   61  TRP61      -0.2442
     53  CE2       22.4190   15.2900   68.9760 C.ar   61  TRP61       0.0810
     54  CE3       22.0500   13.1340   70.0160 C.ar   61  TRP61       0.0012
     55  CZ2       22.0230   15.9700   70.1340 C.ar   61  TRP61       0.0191
     56  CZ3       21.6510   13.8090   71.1650 C.ar   61  TRP61       0.0001
     57  CH2       21.6480   15.2150   71.2150 C.ar   61  TRP61       0.0015
     58  N         20.9360   13.3110   65.1400 N.am   62  ALA62      -0.1980
     59  CA        20.7970   13.9400   63.8340 C.3    62  ALA62       0.1597
     60  C         22.1560   13.9800   63.1320 C.2    62  ALA62       0.2287
     61  O         23.2100   13.9870   63.7810 O.2    62  ALA62      -0.2864
     62  CB        20.2040   15.3470   63.9740 C.3    62  ALA62       0.0319
     63  N         23.9200   16.0920   61.7170 N.3    64  ASP64      -0.1225
     64  CA        24.8440   17.2200   61.7890 C.3    64  ASP64       0.1805
     65  C         26.0850   16.9500   62.6240 C.2    64  ASP64       0.2597
     66  O         27.1330   17.5410   62.3520 O.2    64  ASP64      -0.2718
     67  CB        24.1640   18.5040   62.2830 C.3    64  ASP64       0.1424
     68  CG        23.6010   18.3810   63.6840 C.2    64  ASP64       0.3668
     69  OD1       22.7630   17.4830   63.9360 O.co2  64  ASP64      -0.2456
     70  OD2       23.9800   19.2070   64.5530 O.co2  64  ASP64      -0.2456
     71  N         25.9740   16.0680   63.6190 N.am   65  ARG65      -0.1979
     72  CA        27.0990   15.7550   64.5030 C.3    65  ARG65       0.1597
     73  C         28.1040   14.8010   63.8640 C.2    65  ARG65       0.2287
     74  O         29.2420   14.6950   64.3240 O.2    65  ARG65      -0.2864
     75  CB        26.5840   15.1220   65.8020 C.3    65  ARG65       0.0334
     76  CG        26.3820   16.1050   66.9450 C.3    65  ARG65       0.0492
     77  CD        27.7590   16.4440   67.5120 C.3    65  ARG65       0.2205
     78  NE        27.7130   17.2840   68.6970 N.pl3  65  ARG65      -0.0865
     79  CZ        28.7900   17.5790   69.4150 C.cat  65  ARG65       0.5346
     80  NH1       29.9670   17.0930   69.0470 N.pl3  65  ARG65       0.1354
     81  NH2       28.6920   18.3550   70.4850 N.pl3  65  ARG65       0.1354
     82  N         13.4670   14.9300   60.0800 N.3   110  GLU110     -0.1245
     83  CA        12.8120   15.7460   61.1000 C.3   110  GLU110      0.1567
     84  C         12.8300   17.2150   60.7310 C.2   110  GLU110      0.2260
     85  O         13.8170   17.7180   60.2030 O.2   110  GLU110     -0.2867
     86  CB        13.5890   15.6510   62.4190 C.3   110  GLU110      0.0388
     87  CG        13.8230   14.2470   62.9630 C.3   110  GLU110      0.1160
     88  CD        14.7920   14.2330   64.1420 C.2   110  GLU110      0.3649
     89  OE1       15.3280   15.3000   64.5200 O.co2 110  GLU110     -0.2457
     90  OE2       15.0230   13.1480   64.7070 O.co2 110  GLU110     -0.2457
     91  N         10.8260   25.9300   73.6120 N.3   149  ASN149     -0.1240
     92  CA        12.1460   25.8500   74.2240 C.3   149  ASN149      0.1653
     93  C         13.0640   26.9730   73.7660 C.2   149  ASN149      0.2266
     94  O         13.4400   27.0310   72.5970 O.2   149  ASN149     -0.2867
     95  CB        12.7600   24.5060   73.8640 C.3   149  ASN149      0.1155
     96  CG        14.0760   24.2450   74.5860 C.2   149  ASN149      0.2627
     97  OD1       14.5220   25.0360   75.4060 O.2   149  ASN149     -0.2716
     98  ND2       14.7010   23.1170   74.2710 N.am  149  ASN149     -0.0877
     99  N         17.6510   26.0240   73.5550 N.3   152  GLU152     -0.1231
    100  CA        18.3710   25.3500   72.4780 C.3   152  GLU152      0.1684
    101  C         18.1560   26.0840   71.1720 C.2   152  GLU152      0.2434
    102  O         17.0140   26.3230   70.7790 O.2   152  GLU152     -0.2733
    103  CB        17.8850   23.9060   72.3390 C.3   152  GLU152      0.0402
    104  CG        18.4180   22.9840   73.4290 C.3   152  GLU152      0.1161
    105  CD        19.9190   22.7370   73.3210 C.2   152  GLU152      0.3649
    106  OE1       20.5070   22.9840   72.2460 O.co2 152  GLU152     -0.2457
    107  OE2       20.5180   22.2780   74.3180 O.co2 152  GLU152     -0.2457
    108  N         19.2480   26.4480   70.4940 N.am  153  PRO153     -0.2718
    109  CA        19.1260   27.2810   69.2890 C.3   153  PRO153      0.1535
    110  C         18.3980   26.5920   68.1240 C.2   153  PRO153      0.2599
    111  O         17.9480   27.2750   67.1990 O.2   153  PRO153     -0.2715
    112  CB        20.5810   27.6140   68.9360 C.3   153  PRO153      0.0310
    113  CG        21.3960   26.5330   69.6130 C.3   153  PRO153      0.0237
    114  CD        20.6530   26.2290   70.8790 C.3   153  PRO153      0.0939
    115  N         18.2790   25.2670   68.1580 N.am  154  TYR154     -0.1960
    116  CA        17.4880   24.5630   67.1590 C.3   154  TYR154      0.1771
    117  C         16.0880   25.1570   67.0480 C.2   154  TYR154      0.2619
    118  O         15.5290   25.2240   65.9550 O.2   154  TYR154     -0.2715
    119  CB        17.3860   23.1020   67.5780 C.3   154  TYR154      0.0574
    120  CG        16.6180   22.1690   66.6680 C.ar  154  TYR154     -0.0198
    121  CD1       17.1570   21.7420   65.4670 C.ar  154  TYR154     -0.0009
    122  CD2       15.3810   21.6640   67.0570 C.ar  154  TYR154     -0.0009
    123  CE1       16.4570   20.8570   64.6470 C.ar  154  TYR154      0.0417
    124  CE2       14.6880   20.7700   66.2580 C.ar  154  TYR154      0.0417
    125  CZ        15.2310   20.3750   65.0590 C.ar  154  TYR154      0.1957
    126  OH        14.5400   19.4880   64.2550 O.3   154  TYR154     -0.2866
    127  N         15.5040   25.5600   68.1810 N.am  155  PHE155     -0.1974
    128  CA        14.1060   26.0070   68.1770 C.3   155  PHE155      0.1639
    129  C         13.9290   27.4690   67.7880 C.2   155  PHE155      0.2290
    130  O         12.8580   27.8550   67.3240 O.2   155  PHE155     -0.2864
    131  CB        13.4580   25.7770   69.5480 C.3   155  PHE155      0.0560
    132  CG        13.3490   24.3330   69.9330 C.ar  155  PHE155     -0.0200
    133  CD1       14.4390   23.6510   70.4670 C.ar  155  PHE155     -0.0042
    134  CD2       12.1500   23.6510   69.7660 C.ar  155  PHE155     -0.0042
    135  CE1       14.3420   22.3070   70.8130 C.ar  155  PHE155     -0.0003
    136  CE2       12.0510   22.3020   70.1120 C.ar  155  PHE155     -0.0003
    137  CZ        13.1500   21.6390   70.6380 C.ar  155  PHE155     -0.0000
    138  N         12.5020   23.0390   77.4030 N.3   209  TYR209     -0.1241
    139  CA        11.7030   22.0130   76.7550 C.3   209  TYR209      0.1605
    140  C         10.5820   21.5200   77.6700 C.2   209  TYR209      0.2264
    141  O          9.4220   21.4550   77.2560 O.2   209  TYR209     -0.2867
    142  CB        12.5890   20.8390   76.2900 C.3   209  TYR209      0.0534
    143  CG        11.8560   19.8680   75.3960 C.ar  209  TYR209     -0.0201
    144  CD1       11.0450   18.8750   75.9340 C.ar  209  TYR209     -0.0009
    145  CD2       11.9440   19.9680   74.0110 C.ar  209  TYR209     -0.0009
    146  CE1       10.3550   17.9960   75.1200 C.ar  209  TYR209      0.0417
    147  CE2       11.2630   19.0870   73.1880 C.ar  209  TYR209      0.0417
    148  CZ        10.4680   18.1050   73.7550 C.ar  209  TYR209      0.1957
    149  OH         9.7870   17.2400   72.9370 O.3   209  TYR209     -0.2866
    150  N          8.6120   13.8700   67.4930 N.3   229  TRP229     -0.1241
    151  CA         8.7970   13.0820   68.7140 C.3   229  TRP229      0.1605
    152  C          7.8640   13.5350   69.8490 C.2   229  TRP229      0.2264
    153  O          7.5910   12.7740   70.7750 O.2   229  TRP229     -0.2867
    154  CB        10.2600   13.1570   69.1800 C.3   229  TRP229      0.0550
    155  CG        10.7200   14.5810   69.3210 C.ar  229  TRP229      0.0003
    156  CD1       10.5420   15.3900   70.4020 C.ar  229  TRP229      0.0946
    157  CD2       11.3820   15.3760   68.3250 C.ar  229  TRP229      0.0152
    158  NE1       11.0710   16.6350   70.1540 N.ar  229  TRP229     -0.2442
    159  CE2       11.5830   16.6580   68.8830 C.ar  229  TRP229      0.0810
    160  CE3       11.8250   15.1280   67.0210 C.ar  229  TRP229      0.0012
    161  CZ2       12.2120   17.6970   68.1770 C.ar  229  TRP229      0.0191
    162  CZ3       12.4480   16.1620   66.3190 C.ar  229  TRP229      0.0001
    163  CH2       12.6360   17.4250   66.9000 C.ar  229  TRP229      0.0015
    164  N         16.8690   17.8620   60.0300 N.3   259  GLY259     -0.1225
    165  CA        17.7730   16.8920   60.6110 C.3   259  GLY259      0.1811
    166  C         17.4050   15.4900   60.1670 C.2   259  GLY259      0.2280
    167  O         16.2310   15.1370   60.0830 O.2   259  GLY259     -0.2866
    168  N         20.6870   20.5160   57.4420 N.3   329  MET329     -0.1245
    169  CA        21.8650   20.8610   58.2300 C.3   329  MET329      0.1570
    170  C         23.1080   20.3830   57.5100 C.2   329  MET329      0.2261
    171  O         23.1190   19.2940   56.9340 O.2   329  MET329     -0.2867
    172  CB        21.8150   20.2390   59.6300 C.3   329  MET329      0.0387
    173  CG        20.7500   20.8920   60.4790 C.3   329  MET329      0.0595
    174  SD        20.9560   20.5560   62.2160 S.3   329  MET329     -0.1393
    175  CE        20.5740   18.9260   62.1250 C.3   329  MET329      0.0692
    176  N         29.4340   22.0100   65.1730 N.3   336  SER336     -0.1217
    177  CA        29.4530   22.0660   66.6300 C.3   336  SER336      0.1889
    178  C         29.7200   23.4900   67.1060 C.2   336  SER336      0.2288
    179  O         29.0160   24.0120   67.9810 O.2   336  SER336     -0.2866
    180  CB        30.5540   21.1490   67.1780 C.3   336  SER336      0.2089
    181  OG        30.1500   19.8020   67.1420 O.3   336  SER336     -0.2183
    182  N         26.7370   25.7570   66.5030 N.3   339  TRP339     -0.1227
    183  CA        25.6440   25.6120   67.4690 C.3   339  TRP339      0.1737
    184  C         25.9930   26.1860   68.8480 C.2   339  TRP339      0.2595
    185  O         25.1680   26.8490   69.4760 O.2   339  TRP339     -0.2718
    186  CB        25.2550   24.1490   67.6360 C.3   339  TRP339      0.0564
    187  CG        24.4000   23.5500   66.5490 C.ar  339  TRP339      0.0003
    188  CD1       24.6650   22.4040   65.8470 C.ar  339  TRP339      0.0946
    189  CD2       23.1300   24.0230   66.0780 C.ar  339  TRP339      0.0152
    190  NE1       23.6420   22.1400   64.9700 N.ar  339  TRP339     -0.2442
    191  CE2       22.6890   23.1150   65.0890 C.ar  339  TRP339      0.0810
    192  CE3       22.3250   25.1250   66.3900 C.ar  339  TRP339      0.0012
    193  CZ2       21.4720   23.2810   64.4050 C.ar  339  TRP339      0.0191
    194  CZ3       21.1130   25.2820   65.7060 C.ar  339  TRP339      0.0001
    195  CH2       20.7070   24.3640   64.7330 C.ar  339  TRP339      0.0015
    196  N         27.1990   25.9190   69.3370 N.am  340  TYR340     -0.1976
    197  CA        27.5970   26.4750   70.6210 C.3   340  TYR340      0.1639
    198  C         27.5680   28.0020   70.5780 C.2   340  TYR340      0.2290
    199  O         27.1000   28.6510   71.5200 O.2   340  TYR340     -0.2864
    200  CB        28.9920   25.9820   71.0260 C.3   340  TYR340      0.0560
    201  CG        29.0650   24.5220   71.4200 C.ar  340  TYR340     -0.0198
    202  CD1       28.3210   24.0260   72.4880 C.ar  340  TYR340     -0.0009
    203  CD2       29.9090   23.6480   70.7520 C.ar  340  TYR340     -0.0009
    204  CE1       28.4070   22.6980   72.8660 C.ar  340  TYR340      0.0417
    205  CE2       29.9970   22.3190   71.1180 C.ar  340  TYR340      0.0417
    206  CZ        29.2450   21.8490   72.1690 C.ar  340  TYR340      0.1957
    207  OH        29.3460   20.5190   72.5230 O.3   340  TYR340     -0.2866
    208  N         23.9000   29.2300   70.4880 N.3   343  ARG343     -0.1245
    209  CA        23.2520   28.9970   71.7750 C.3   343  ARG343      0.1563
    210  C         23.5690   30.1350   72.7430 C.2   343  ARG343      0.2260
    211  O         22.6800   30.6830   73.3810 O.2   343  ARG343     -0.2867
    212  CB        23.6970   27.6630   72.3810 C.3   343  ARG343      0.0307
    213  CG        23.0240   27.3990   73.7210 C.3   343  ARG343      0.0489
    214  CD        23.5380   26.1480   74.4070 C.3   343  ARG343      0.2205
    215  NE        23.1800   26.1570   75.8240 N.pl3 343  ARG343     -0.0865
    216  CZ        23.8820   26.7870   76.7610 C.cat 343  ARG343      0.5346
    217  NH1       24.9810   27.4520   76.4280 N.pl3 343  ARG343      0.1354
    218  NH2       23.4910   26.7550   78.0280 N.pl3 343  ARG343      0.1354
@<TRIPOS>BOND
     1   171   170    2
     2   168   169    1
     3   170   169    1
     4   169   172    1
     5   172   173    1
     6   164   165    1
     7    82    83    1
     8   167   166    2
     9   166   165    1
    10    85    84    2
    11   173   174    1
    12    84    83    1
    13    83    86    1
    14    63    64    1
    15    64    67    1
    16    64    65    1
    17   175   174    1
    18    67    68    1
    19    66    65    2
    20    86    87    1
    21    65    71   am
    22    87    88    1
    23    60    61    2
    24    60    59    1
    25    71    72    1
    26    68    69   ar
    27    68    70   ar
    28    59    62    1
    29    59    58    1
    30    73    74    2
    31    73    72    1
    32    88    89   ar
    33    88    90   ar
    34    47    46    2
    35   126   125    1
    36   193   195   ar
    37   193   191   ar
    38    72    75    1
    39   123   125   ar
    40   123   121   ar
    41   195   194   ar
    42   190   191   ar
    43   190   188   ar
    44   125   124   ar
    45   191   189   ar
    46    58    46   am
    47   176   177    1
    48    46    45    1
    49   121   120   ar
    50   194   192   ar
    51    75    76    1
    52   188   187   ar
    53   118   117    2
    54   189   192   ar
    55   189   187   ar
    56   124   122   ar
    57   162   163   ar
    58   162   160   ar
    59    44    45    1
    60   182   183    1
    61   187   186    1
    62    45    48    1
    63   177   178    1
    64   177   180    1
    65   120   122   ar
    66   120   119    1
    67   163   161   ar
    68    50    49   ar
    69    50    52   ar
    70    76    77    1
    71   160   157   ar
    72    48    49    1
    73   117   116    1
    74   117   127   am
    75   178   179    2
    76   181   180    1
    77   116   119    1
    78   116   115    1
    79   111   110    2
    80   130   129    2
    81   183   186    1
    82   183   184    1
    83   150   151    1
    84    77    78    1
    85    49    51   ar
    86    52    53   ar
    87   129   128    1
    88    24    25    1
    89    24    23    1
    90   110   115   am
    91   110   109    1
    92   128   127    1
    93   128   131    1
    94   161   159   ar
    95   157   159   ar
    96   157   155   ar
    97    23    22    1
    98    78    79    2
    99   151   154    1
   100   151   152    1
   101   184   196   am
   102   184   185    2
   103   159   158   ar
   104    51    53   ar
   105    51    54   ar
   106   112   109    1
   107   112   113    1
   108    53    55   ar
   109    80    79    1
   110   154   155    1
   111   109   108    1
   112   155   156   ar
   113   196   197    1
   114    79    81    1
   115    22    21    1
   116   131   132    1
   117   113   114    1
   118   134   132   ar
   119   134   136   ar
   120   152   153    2
   121   132   133   ar
   122    54    56   ar
   123    21    18    1
   124   136   137   ar
   125    55    57   ar
   126   158   156   ar
   127   133   135   ar
   128   208   209    1
   129   108   114    1
   130   108   101   am
   131   198   197    1
   132   198   199    2
   133   197   200    1
   134   137   135   ar
   135   203   205   ar
   136   203   201   ar
   137   102   101    2
   138    30    31    1
   139    30    27    1
   140    18    19    1
   141    18    17    1
   142   200   201    1
   143   205   206   ar
   144    56    57   ar
   145   101   100    1
   146    29    28    2
   147    31    32    1
   148   201   202   ar
   149    19    20    2
   150    15    14   ar
   151    16    14   ar
   152    27    28    1
   153    27    26    1
   154   209   212    1
   155   209   210    1
   156    12    11    2
   157     1     2    1
   158    14    13    1
   159    28    35   am
   160    17    11   am
   161     5     2    1
   162     5     6    1
   163   206   207    1
   164   206   204   ar
   165   106   105   ar
   166   103   100    1
   167   103   104    1
   168    11    10    1
   169   212   213    1
   170   100    99    1
   171   202   204   ar
   172    32    34   ar
   173    32    33   ar
   174    94    93    2
   175     8     6   am
   176   210   211    2
   177     2     3    1
   178   149   148    1
   179     6     7    2
   180    13    10    1
   181     4     3    2
   182   147   148   ar
   183   147   145   ar
   184    35    36    1
   185   105   104    1
   186   105   107   ar
   187    10     9    1
   188    91    92    1
   189   213   214    1
   190   148   146   ar
   191    93    92    1
   192    36    37    1
   193    36    39    1
   194    95    92    1
   195    95    96    1
   196   145   143   ar
   197    40    39    1
   198    40    41    1
   199    98    96   am
   200    38    37    2
   201   214   215    1
   202    96    97    2
   203    43    41   ar
   204   146   144   ar
   205    41    42   ar
   206   143   144   ar
   207   143   142    1
   208   215   216    2
   209   142   139    1
   210   217   216    1
   211   139   138    1
   212   139   140    1
   213   216   218    1
   214   141   140    2
