@<TRIPOS>MOLECULE
tmp/3o47B00.pdb
 111 105 0 0 0
SMALL
GASTEIGER

@<TRIPOS>ATOM
      1  N          3.3990  -47.0740   77.0470 N.3   142  ASP142     -0.1225
      2  CA         1.9970  -46.7340   77.2830 C.3   142  ASP142      0.1805
      3  C          1.5470  -45.9410   76.0410 C.2   142  ASP142      0.2598
      4  O          2.3880  -45.2960   75.4010 O.2   142  ASP142     -0.2718
      5  CB         1.8440  -45.9020   78.5830 C.3   142  ASP142      0.1424
      6  CG         2.4700  -44.5070   78.5070 C.2   142  ASP142      0.3668
      7  OD1        3.7150  -44.4080   78.5760 O.co2 142  ASP142     -0.2456
      8  OD2        1.7080  -43.5150   78.3280 O.co2 142  ASP142     -0.2456
      9  N          0.2600  -46.0630   75.6630 N.am  143  ALA143     -0.1966
     10  CA        -0.3740  -45.3920   74.5100 C.3   143  ALA143      0.1728
     11  C          0.1620  -45.8520   73.1250 C.2   143  ALA143      0.2616
     12  O         -0.0940  -45.1880   72.1270 O.2   143  ALA143     -0.2715
     13  CB        -0.2910  -43.8750   74.6460 C.3   143  ALA143      0.0334
     14  N          0.8360  -47.0170   73.0620 N.am  144  ALA144     -0.1963
     15  CA         1.3770  -47.5980   71.8270 C.3   144  ALA144      0.1728
     16  C          0.2330  -48.1730   70.9700 C.2   144  ALA144      0.2617
     17  O          0.3270  -48.1570   69.7440 O.2   144  ALA144     -0.2715
     18  CB         2.4010  -48.6720   72.1470 C.3   144  ALA144      0.0334
     19  N         -0.8490  -48.6210   71.6100 N.am  145  GLY145     -0.1940
     20  CA        -2.0050  -49.1220   70.8740 C.3   145  GLY145      0.2014
     21  C         -2.4810  -50.4920   71.2740 C.2   145  GLY145      0.2639
     22  O         -3.5250  -50.9340   70.8000 O.2   145  GLY145     -0.2714
     23  N         -1.7280  -51.1510   72.1580 N.am  146  LYS146     -0.1963
     24  CA        -1.9120  -52.5050   72.6570 C.3   146  LYS146      0.1728
     25  C         -3.3650  -52.8980   72.9430 C.2   146  LYS146      0.2617
     26  O         -3.8360  -53.9210   72.4300 O.2   146  LYS146     -0.2715
     27  CB        -1.0570  -52.6920   73.8970 C.3   146  LYS146      0.0311
     28  CG         0.4370  -52.5820   73.6180 C.3   146  LYS146      0.0038
     29  CD         1.2170  -53.0860   74.8200 C.3   146  LYS146      0.0206
     30  CE         2.0330  -52.0260   75.4840 C.3   146  LYS146      0.1093
     31  NZ         1.3010  -50.7750   75.7900 N.3   146  LYS146     -0.1314
     32  N         -4.0720  -52.0870   73.7530 N.am  147  THR147     -0.1937
     33  CA        -5.4830  -52.2950   74.1210 C.3   147  THR147      0.2028
     34  C         -6.3830  -52.1780   72.8900 C.2   147  THR147      0.2642
     35  O         -7.3820  -52.9030   72.7930 O.2   147  THR147     -0.2714
     36  CB        -5.9400  -51.2510   75.1330 C.3   147  THR147      0.1808
     37  OG1       -4.8420  -50.8650   75.9540 O.3   147  THR147     -0.2208
     38  CG2       -7.1030  -51.7290   75.9730 C.3   147  THR147      0.0379
     39  N         -6.0460  -51.2450   71.9630 N.am  148  THR148     -0.1950
     40  CA        -6.8380  -51.0370   70.7580 C.3   148  THR148      0.1897
     41  C         -6.7780  -52.3250   69.9380 C.2   148  THR148      0.2313
     42  O         -7.8290  -52.8480   69.5800 O.2   148  THR148     -0.2863
     43  CB        -6.4090  -49.7550   70.0410 C.3   148  THR148      0.1794
     44  OG1       -6.3860  -48.6850   70.9950 O.3   148  THR148     -0.2208
     45  CG2       -7.3250  -49.4000   68.8800 C.3   148  THR148      0.0378
     46  N         -0.7850  -58.8590   77.6540 N.3   181  VAL181     -0.1245
     47  CA        -0.4070  -57.4650   77.3670 C.3   181  VAL181      0.1561
     48  C         -0.1300  -56.6310   78.6260 C.2   181  VAL181      0.2260
     49  O         -0.8830  -56.7310   79.6040 O.2   181  VAL181     -0.2867
     50  CB        -1.5270  -56.8010   76.5300 C.3   181  VAL181      0.0252
     51  CG1       -1.3480  -55.2910   76.4160 C.3   181  VAL181      0.0019
     52  CG2       -1.6450  -57.4410   75.1610 C.3   181  VAL181      0.0019
     53  N          2.2160  -52.5590   79.7630 N.3   183  ASP183     -0.1239
     54  CA         3.0670  -51.4300   79.3830 C.3   183  ASP183      0.1674
     55  C          4.5020  -51.6140   79.9080 C.2   183  ASP183      0.2266
     56  O          4.7050  -52.2390   80.9480 O.2   183  ASP183     -0.2867
     57  CB         2.4740  -50.1100   79.9130 C.3   183  ASP183      0.1410
     58  CG         1.0530  -49.8020   79.4720 C.2   183  ASP183      0.3668
     59  OD1        0.6860  -50.1870   78.3480 O.co2 183  ASP183     -0.2456
     60  OD2        0.3240  -49.1340   80.2400 O.co2 183  ASP183     -0.2456
     61  N          2.5770  -49.1450   64.8490 N.3   237  ASN237     -0.1225
     62  CA         1.2080  -48.6690   64.9300 C.3   237  ASN237      0.1785
     63  C          1.0420  -47.1860   64.6500 C.2   237  ASN237      0.2597
     64  O          2.0280  -46.4530   64.5960 O.2   237  ASN237     -0.2718
     65  CB         0.6030  -49.0180   66.2920 C.3   237  ASN237      0.1169
     66  CG        -0.8920  -49.1980   66.2210 C.2   237  ASN237      0.2627
     67  OD1       -1.4640  -49.4780   65.1650 O.2   237  ASN237     -0.2716
     68  ND2       -1.5620  -48.9920   67.3290 N.am  237  ASN237     -0.0877
     69  N         -0.2310  -46.7540   64.4850 N.am  238  LYS238     -0.1980
     70  CA        -0.6750  -45.3800   64.2200 C.3   238  LYS238      0.1596
     71  C         -0.1190  -44.8920   62.8970 C.2   238  LYS238      0.2287
     72  O          0.2470  -43.7190   62.7510 O.2   238  LYS238     -0.2864
     73  CB        -0.3340  -44.4170   65.3860 C.3   238  LYS238      0.0298
     74  CG        -0.5860  -44.9960   66.7790 C.3   238  LYS238      0.0038
     75  CD        -0.7630  -43.8900   67.7670 C.3   238  LYS238      0.0206
     76  CE        -0.9370  -44.4150   69.1570 C.3   238  LYS238      0.1093
     77  NZ        -0.9200  -43.3020   70.1380 N.3   238  LYS238     -0.1314
     78  N         -1.8090  -44.5220   60.3150 N.3   240  ASP240     -0.1225
     79  CA        -2.8930  -43.7290   59.7360 C.3   240  ASP240      0.1805
     80  C         -2.6120  -42.2440   59.8990 C.2   240  ASP240      0.2597
     81  O         -3.0550  -41.4410   59.0670 O.2   240  ASP240     -0.2718
     82  CB        -4.2350  -44.0860   60.3900 C.3   240  ASP240      0.1424
     83  CG        -4.3040  -43.8150   61.8720 C.2   240  ASP240      0.3668
     84  OD1       -3.7170  -44.5970   62.6390 O.co2 240  ASP240     -0.2456
     85  OD2       -4.9370  -42.8060   62.2620 O.co2 240  ASP240     -0.2456
     86  N         -1.8700  -41.8800   60.9730 N.am  241  LEU241     -0.1979
     87  CA        -1.5120  -40.5030   61.3050 C.3   241  LEU241      0.1596
     88  C         -0.6480  -39.8440   60.2060 C.2   241  LEU241      0.2287
     89  O          0.1060  -40.5390   59.5190 O.2   241  LEU241     -0.2864
     90  CB        -0.8600  -40.4270   62.6850 C.3   241  LEU241      0.0297
     91  CG        -1.8060  -40.7550   63.8360 C.3   241  LEU241      0.0022
     92  CD1       -1.0750  -40.7540   65.1570 C.3   241  LEU241      0.0001
     93  CD2       -2.9980  -39.8360   63.8500 C.3   241  LEU241      0.0001
     94  N         -2.5040  -50.0960   61.7820 N.3   270  CYS270     -0.1221
     95  CA        -3.4780  -49.1480   62.2620 C.3   270  CYS270      0.1808
     96  C         -4.4670  -49.9660   63.0460 C.2   270  CYS270      0.2601
     97  O         -5.3180  -50.6420   62.4640 O.2   270  CYS270     -0.2717
     98  CB        -4.1490  -48.3830   61.1310 C.3   270  CYS270      0.0970
     99  SG        -5.5030  -47.3390   61.6980 S.3   270  CYS270     -0.0800
    100  N         -4.3140  -49.9460   64.3680 N.am  271  ALA271     -0.1965
    101  CA        -5.1510  -50.6920   65.2890 C.3   271  ALA271      0.1728
    102  C         -6.6200  -50.2880   65.2270 C.2   271  ALA271      0.2616
    103  O         -7.4710  -51.1340   65.4590 O.2   271  ALA271     -0.2715
    104  CB        -4.6320  -50.5080   66.6890 C.3   271  ALA271      0.0334
    105  N         -6.9120  -49.0070   64.9130 N.am  272  THR272     -0.1951
    106  CA        -8.2670  -48.4740   64.8880 C.3   272  THR272      0.1897
    107  C         -9.0290  -48.9690   63.6850 C.2   272  THR272      0.2313
    108  O        -10.2240  -49.2030   63.7870 O.2   272  THR272     -0.2863
    109  CB        -8.2830  -46.9480   65.0120 C.3   272  THR272      0.1794
    110  OG1       -7.6320  -46.3560   63.8880 O.3   272  THR272     -0.2208
    111  CG2       -7.6440  -46.4680   66.2970 C.3   272  THR272      0.0378
@<TRIPOS>BOND
     1    81    80    2
     2    89    88    2
     3    79    80    1
     4    79    78    1
     5    79    82    1
     6    80    86   am
     7    88    87    1
     8    82    83    1
     9    86    87    1
    10    98    99    1
    11    98    95    1
    12    87    90    1
    13    94    95    1
    14    83    85   ar
    15    83    84   ar
    16    95    96    1
    17    97    96    2
    18    90    91    1
    19    72    71    2
    20    71    70    1
    21    96   100   am
    22   107   108    2
    23   107   106    1
    24    91    93    1
    25    91    92    1
    26   110   109    1
    27    70    69    1
    28    70    73    1
    29   100   101    1
    30    69    63   am
    31    64    63    2
    32    63    62    1
    33    61    62    1
    34   106   105    1
    35   106   109    1
    36   105   102   am
    37    62    65    1
    38   109   111    1
    39    67    66    2
    40   102   101    1
    41   102   103    2
    42   101   104    1
    43    73    74    1
    44    66    65    1
    45    66    68   am
    46    74    75    1
    47    75    76    1
    48    45    43    1
    49    76    77    1
    50    42    41    2
    51    17    16    2
    52    41    40    1
    53    43    40    1
    54    43    44    1
    55    40    39    1
    56    22    21    2
    57    20    21    1
    58    20    19    1
    59    16    19   am
    60    16    15    1
    61    21    23   am
    62    15    18    1
    63    15    14    1
    64    39    34   am
    65    12    11    2
    66    23    24    1
    67    26    25    2
    68    24    25    1
    69    24    27    1
    70    35    34    2
    71    34    33    1
    72    25    32   am
    73    14    11   am
    74    11    10    1
    75    28    27    1
    76    28    29    1
    77    32    33    1
    78    33    36    1
    79    10    13    1
    80    10     9    1
    81    29    30    1
    82    36    37    1
    83    36    38    1
    84    52    50    1
    85     4     3    2
    86    30    31    1
    87     9     3   am
    88     3     2    1
    89    51    50    1
    90    50    47    1
    91     1     2    1
    92     2     5    1
    93    47    46    1
    94    47    48    1
    95     8     6   ar
    96    59    58   ar
    97     6     7   ar
    98     6     5    1
    99    48    49    2
   100    54    53    1
   101    54    55    1
   102    54    57    1
   103    58    57    1
   104    58    60   ar
   105    55    56    2
