@<TRIPOS>MOLECULE
tmp/3o4kD00.pdb
 150 151 0 0 0
SMALL
GASTEIGER

@<TRIPOS>ATOM
      1  N          7.9140   33.3150  -29.9930 N.3    32  TYR32      -0.1241
      2  CA         7.3240   32.7460  -28.7850 C.3    32  TYR32       0.1605
      3  C          7.3830   33.5850  -27.5140 C.2    32  TYR32       0.2264
      4  O          8.3220   34.3360  -27.2930 O.2    32  TYR32      -0.2867
      5  CB         7.9690   31.3830  -28.5000 C.3    32  TYR32       0.0534
      6  CG         7.8510   30.3940  -29.6340 C.ar   32  TYR32      -0.0201
      7  CD1        6.6690   29.6790  -29.8510 C.ar   32  TYR32      -0.0009
      8  CD2        8.9090   30.2050  -30.5240 C.ar   32  TYR32      -0.0009
      9  CE1        6.5430   28.8010  -30.9310 C.ar   32  TYR32       0.0417
     10  CE2        8.7930   29.3300  -31.6110 C.ar   32  TYR32       0.0417
     11  CZ         7.6070   28.6350  -31.8070 C.ar   32  TYR32       0.1957
     12  OH         7.4780   27.7920  -32.8900 O.3    32  TYR32      -0.2866
     13  N         23.7750   34.8000  -12.1410 N.3    66  TRP66      -0.1241
     14  CA        23.4080   35.1710  -13.5050 C.3    66  TRP66       0.1605
     15  C         23.7450   36.6190  -13.8450 C.2    66  TRP66       0.2264
     16  O         23.8360   37.4650  -12.9650 O.2    66  TRP66      -0.2867
     17  CB        21.9170   34.9420  -13.7180 C.3    66  TRP66       0.0550
     18  CG        21.5180   33.5030  -13.7210 C.ar   66  TRP66       0.0003
     19  CD1       22.3520   32.4220  -13.7290 C.ar   66  TRP66       0.0946
     20  CD2       20.1890   32.9850  -13.8420 C.ar   66  TRP66       0.0152
     21  NE1       21.6260   31.2640  -13.8610 N.ar   66  TRP66      -0.2442
     22  CE2       20.2950   31.5800  -13.9330 C.ar   66  TRP66       0.0810
     23  CE3       18.9160   33.5730  -13.8880 C.ar   66  TRP66       0.0012
     24  CZ2       19.1770   30.7530  -14.0700 C.ar   66  TRP66       0.0191
     25  CZ3       17.8050   32.7520  -14.0220 C.ar   66  TRP66       0.0001
     26  CH2       17.9450   31.3560  -14.1140 C.ar   66  TRP66       0.0015
     27  N         16.8720   33.9750  -19.3330 N.3    92  ALA92      -0.1231
     28  CA        17.1450   32.7070  -18.6770 C.3    92  ALA92       0.1694
     29  C         15.8680   32.4020  -17.8920 C.2    92  ALA92       0.2592
     30  O         15.7830   32.6850  -16.6890 O.2    92  ALA92      -0.2718
     31  CB        18.3190   32.8640  -17.7260 C.3    92  ALA92       0.0304
     32  N         14.8800   31.8150  -18.5600 N.am   93  HIS93      -0.1962
     33  CA        13.6100   31.5340  -17.9100 C.3    93  HIS93       0.1787
     34  C         12.9150   30.2670  -18.3850 C.2    93  HIS93       0.2620
     35  O         11.9260   29.8550  -17.7770 O.2    93  HIS93      -0.2715
     36  CB        12.6670   32.7110  -18.1480 C.3    93  HIS93       0.0785
     37  CG        12.4770   33.0250  -19.6020 C.ar   93  HIS93       0.0821
     38  ND1       11.5910   32.3370  -20.4010 N.ar   93  HIS93      -0.2267
     39  CD2       13.1480   33.8660  -20.4250 C.ar   93  HIS93       0.1154
     40  CE1       11.7280   32.7320  -21.6530 C.ar   93  HIS93       0.1986
     41  NE2       12.6690   33.6590  -21.6950 N.ar   93  HIS93      -0.2212
     42  N         13.3730   29.6690  -19.4840 N.am   94  ALA94      -0.1963
     43  CA        12.7200   28.4420  -19.9550 C.3    94  ALA94       0.1728
     44  C         13.6410   27.3520  -20.5240 C.2    94  ALA94       0.2617
     45  O         13.1740   26.4330  -21.1930 O.2    94  ALA94      -0.2715
     46  CB        11.6220   28.7900  -20.9820 C.3    94  ALA94       0.0334
     47  N         14.9400   27.4530  -20.2680 N.am   95  GLY95      -0.1941
     48  CA        15.8570   26.4470  -20.7710 C.3    95  GLY95       0.1998
     49  C         16.5540   26.8570  -22.0430 C.2    95  GLY95       0.2481
     50  O         16.1260   27.8140  -22.6920 O.2    95  GLY95      -0.2729
     51  N         17.6360   26.1470  -22.4180 N.am   96  PRO96      -0.2715
     52  CA        18.4570   26.3830  -23.6150 C.3    96  PRO96       0.1536
     53  C         17.7150   26.2870  -24.9490 C.2    96  PRO96       0.2599
     54  O         18.1600   26.8360  -25.9590 O.2    96  PRO96      -0.2715
     55  CB        19.5590   25.3370  -23.4810 C.3    96  PRO96       0.0310
     56  CG        18.8900   24.2270  -22.7100 C.3    96  PRO96       0.0237
     57  CD        18.1640   25.0050  -21.6480 C.3    96  PRO96       0.0939
     58  N         16.5740   25.6120  -24.9530 N.am   97  THR97      -0.1937
     59  CA        15.7930   25.4850  -26.1830 C.3    97  THR97       0.2028
     60  C         14.8830   26.6960  -26.4320 C.2    97  THR97       0.2642
     61  O         14.8110   27.2010  -27.5550 O.2    97  THR97      -0.2714
     62  CB        14.9280   24.2080  -26.1530 C.3    97  THR97       0.1808
     63  OG1       15.7810   23.0710  -25.9620 O.3    97  THR97      -0.2208
     64  CG2       14.1580   24.0450  -27.4590 C.3    97  THR97       0.0379
     65  N         14.2040   27.1700  -25.3900 N.am   98  TRP98      -0.1959
     66  CA        13.2980   28.3030  -25.5370 C.3    98  TRP98       0.1771
     67  C         13.8680   29.6810  -25.1870 C.2    98  TRP98       0.2619
     68  O         13.3030   30.6940  -25.6010 O.2    98  TRP98      -0.2715
     69  CB        12.0110   28.0450  -24.7400 C.3    98  TRP98       0.0590
     70  CG        11.2810   26.8290  -25.2250 C.ar   98  TRP98       0.0006
     71  CD1       11.5280   25.5360  -24.8790 C.ar   98  TRP98       0.0946
     72  CD2       10.2620   26.7880  -26.2250 C.ar   98  TRP98       0.0152
     73  NE1       10.7330   24.6910  -25.6040 N.ar   98  TRP98      -0.2442
     74  CE2        9.9440   25.4330  -26.4410 C.ar   98  TRP98       0.0810
     75  CE3        9.5910   27.7680  -26.9650 C.ar   98  TRP98       0.0012
     76  CZ2        8.9800   25.0270  -27.3670 C.ar   98  TRP98       0.0191
     77  CZ3        8.6340   27.3680  -27.8870 C.ar   98  TRP98       0.0001
     78  CH2        8.3370   26.0050  -28.0800 C.ar   98  TRP98       0.0015
     79  N         14.9840   29.7430  -24.4630 N.am   99  ASN99      -0.1972
     80  CA        15.5530   31.0410  -24.1200 C.3    99  ASN99       0.1688
     81  C         15.9740   31.8430  -25.3550 C.2    99  ASN99       0.2292
     82  O         15.6320   33.0160  -25.4910 O.2    99  ASN99      -0.2864
     83  CB        16.7500   30.8870  -23.1760 C.3    99  ASN99       0.1181
     84  CG        16.3410   30.5220  -21.7560 C.2    99  ASN99       0.2629
     85  OD1       15.2090   30.7450  -21.3510 O.2    99  ASN99      -0.2716
     86  ND2       17.2740   29.9740  -20.9900 N.am   99  ASN99      -0.0877
     87  N          3.3560   33.0760  -30.4690 N.3   142  GLU142     -0.1245
     88  CA         2.6930   32.0180  -29.7150 C.3   142  GLU142      0.1567
     89  C          2.9950   32.0620  -28.2290 C.2   142  GLU142      0.2260
     90  O          4.1490   32.1820  -27.8220 O.2   142  GLU142     -0.2867
     91  CB         3.1030   30.6480  -30.2640 C.3   142  GLU142      0.0388
     92  CG         2.5680   30.3540  -31.6660 C.3   142  GLU142      0.1160
     93  CD         3.0430   29.0230  -32.2320 C.2   142  GLU142      0.3649
     94  OE1        3.1080   28.0250  -31.4840 O.co2 142  GLU142     -0.2457
     95  OE2        3.3370   28.9780  -33.4430 O.co2 142  GLU142     -0.2457
     96  N          3.0950   30.2480  -24.5770 N.3   144  LYS144     -0.1245
     97  CA         3.2010   28.9450  -23.9240 C.3   144  LYS144      0.1561
     98  C          3.2290   29.1980  -22.4240 C.2   144  LYS144      0.2260
     99  O          3.5700   30.2920  -21.9780 O.2   144  LYS144     -0.2867
    100  CB         4.5120   28.2380  -24.2940 C.3   144  LYS144      0.0271
    101  CG         4.7910   28.0790  -25.7690 C.3   144  LYS144      0.0035
    102  CD         4.2440   26.7850  -26.3160 C.3   144  LYS144      0.0206
    103  CE         4.6610   26.6390  -27.7710 C.3   144  LYS144      0.1093
    104  NZ         3.8820   25.6110  -28.4820 N.3   144  LYS144     -0.1314
    105  N          4.9610   28.1400  -18.8470 N.3   146  HIS146     -0.1241
    106  CA         6.2880   27.6360  -18.4890 C.3   146  HIS146      0.1621
    107  C          6.2510   26.0940  -18.4130 C.2   146  HIS146      0.2264
    108  O          7.1510   25.4330  -18.9080 O.2   146  HIS146     -0.2867
    109  CB         6.6960   28.2440  -17.1420 C.3   146  HIS146      0.0745
    110  CG         8.1300   28.0370  -16.7760 C.ar  146  HIS146      0.0817
    111  ND1        8.6350   28.3940  -15.5450 N.ar  146  HIS146     -0.2268
    112  CD2        9.1620   27.4960  -17.4650 C.ar  146  HIS146      0.1154
    113  CE1        9.9160   28.0770  -15.4890 C.ar  146  HIS146      0.1986
    114  NE2       10.2600   27.5290  -16.6400 N.ar  146  HIS146     -0.2212
    115  N          4.6320   24.0730  -20.0950 N.3   148  ASP148     -0.1225
    116  CA         4.4320   23.4650  -21.4090 C.3   148  ASP148      0.1805
    117  C          5.7750   23.2100  -22.0580 C.2   148  ASP148      0.2598
    118  O          5.8720   22.4280  -23.0050 O.2   148  ASP148     -0.2718
    119  CB         3.6300   24.3750  -22.3370 C.3   148  ASP148      0.1424
    120  CG         2.1730   24.4720  -21.9480 C.2   148  ASP148      0.3668
    121  OD1        1.6240   23.4840  -21.4040 O.co2 148  ASP148     -0.2456
    122  OD2        1.5670   25.5390  -22.2100 O.co2 148  ASP148     -0.2456
    123  N          6.8120   23.8700  -21.5460 N.am  149  VAL149     -0.1966
    124  CA         8.1560   23.7270  -22.1080 C.3   149  VAL149      0.1727
    125  C          9.1930   23.3030  -21.0870 C.2   149  VAL149      0.2616
    126  O         10.3190   23.0040  -21.4350 O.2   149  VAL149     -0.2715
    127  CB         8.6600   25.0450  -22.7700 C.3   149  VAL149      0.0290
    128  CG1        7.7050   25.4740  -23.8960 C.3   149  VAL149      0.0023
    129  CG2        8.7880   26.1450  -21.7310 C.3   149  VAL149      0.0023
    130  N          8.8270   23.3000  -19.8180 N.am  150  GLN150     -0.1964
    131  CA         9.7590   22.8960  -18.7800 C.3   150  GLN150      0.1718
    132  C          8.9680   22.2230  -17.7030 C.2   150  GLN150      0.2458
    133  O          7.7860   22.5090  -17.5230 O.2   150  GLN150     -0.2730
    134  CB        10.4470   24.1070  -18.1630 C.3   150  GLN150      0.0407
    135  CG        11.2340   24.8930  -19.1330 C.3   150  GLN150      0.0908
    136  CD        12.6450   24.3700  -19.2740 C.2   150  GLN150      0.2608
    137  OE1       12.8620   23.3210  -19.8510 O.2   150  GLN150     -0.2717
    138  NE2       13.5750   25.0550  -18.6370 N.am  150  GLN150     -0.0878
    139  N          9.6020   21.3070  -16.9700 N.am  151  PRO151     -0.2727
    140  CA         8.8660   20.6450  -15.8970 C.3   151  PRO151      0.1402
    141  C          8.8650   21.5860  -14.6820 C.2   151  PRO151      0.2269
    142  O          9.9170   21.8600  -14.0830 O.2   151  PRO151     -0.2865
    143  CB         9.6670   19.3620  -15.6860 C.3   151  PRO151      0.0296
    144  CG        11.0510   19.8630  -15.8490 C.3   151  PRO151      0.0237
    145  CD        10.9460   20.7250  -17.1110 C.3   151  PRO151      0.0939
    146  N         -0.4320   25.3800  -27.2270 N.3   171  ALA171     -0.1245
    147  CA         0.2980   24.3980  -26.4230 C.3   171  ALA171      0.1562
    148  C          1.2340   23.5220  -27.2550 C.2   171  ALA171      0.2260
    149  O          2.0130   22.7390  -26.7010 O.2   171  ALA171     -0.2867
    150  CB        -0.6940   23.5240  -25.6520 C.3   171  ALA171      0.0290
@<TRIPOS>BOND
     1    95    93   ar
     2    12    11    1
     3    93    92    1
     4    93    94   ar
     5    11    10   ar
     6    11     9   ar
     7    92    91    1
     8    10     8   ar
     9     9     7   ar
    10     8     6   ar
    11    87    88    1
    12    91    88    1
    13     1     2    1
    14     7     6   ar
    15    88    89    1
    16     6     5    1
    17     2     5    1
    18     2     3    1
    19   104   103    1
    20    89    90    2
    21    78    77   ar
    22    78    76   ar
    23    77    75   ar
    24   103   102    1
    25    61    60    2
    26     3     4    2
    27    64    62    1
    28    76    74   ar
    29   148   149    2
    30   148   147    1
    31   146   147    1
    32    75    72   ar
    33    74    72   ar
    34    74    73   ar
    35    60    59    1
    36    60    65   am
    37   147   150    1
    38   102   101    1
    39    72    70   ar
    40    59    62    1
    41    59    58    1
    42    62    63    1
    43    54    53    2
    44   101   100    1
    45    73    71   ar
    46    68    67    2
    47    66    65    1
    48    66    67    1
    49    66    69    1
    50    82    81    2
    51    81    80    1
    52    70    71   ar
    53    70    69    1
    54    67    79   am
    55    58    53   am
    56    53    52    1
    57    96    97    1
    58    79    80    1
    59   100    97    1
    60    80    83    1
    61    97    98    1
    62   128   127    1
    63    52    55    1
    64    52    51    1
    65    55    56    1
    66    83    84    1
    67   118   117    2
    68   127   124    1
    69   127   129    1
    70    56    57    1
    71    50    49    2
    72    98    99    2
    73    51    49   am
    74    51    57    1
    75   119   120    1
    76   119   116    1
    77   122   120   ar
    78   124   123    1
    79   124   125    1
    80   117   123   am
    81   117   116    1
    82    49    48    1
    83   120   121   ar
    84    84    85    2
    85    84    86   am
    86    41    40   ar
    87    41    39   ar
    88    40    38   ar
    89   126   125    2
    90   116   115    1
    91    45    44    2
    92   125   130   am
    93    46    43    1
    94    48    47    1
    95    44    47   am
    96    44    43    1
    97    39    37   ar
    98    38    37   ar
    99    43    42    1
   100   137   136    2
   101   130   131    1
   102    37    36    1
   103    42    34   am
   104    27    28    1
   105   136   135    1
   106   136   138   am
   107   135   134    1
   108   108   107    2
   109   105   106    1
   110   131   134    1
   111   131   132    1
   112    28    29    1
   113    28    31    1
   114    32    33    1
   115    32    29   am
   116   106   107    1
   117   106   109    1
   118    34    33    1
   119    34    35    2
   120    36    33    1
   121    29    30    2
   122   132   133    2
   123   132   139   am
   124   112   110   ar
   125   112   114   ar
   126   109   110    1
   127   145   139    1
   128   145   144    1
   129   139   140    1
   130   110   111   ar
   131   114   113   ar
   132   140   143    1
   133   140   141    1
   134   144   143    1
   135   111   113   ar
   136   141   142    2
   137    26    24   ar
   138    26    25   ar
   139    24    22   ar
   140    25    23   ar
   141    22    21   ar
   142    22    20   ar
   143    23    20   ar
   144    21    19   ar
   145    15    14    1
   146    15    16    2
   147    20    18   ar
   148    19    18   ar
   149    18    17    1
   150    17    14    1
   151    14    13    1
