@<TRIPOS>MOLECULE
tmp/3o4kC00.pdb
 174 172 0 0 0
SMALL
GASTEIGER

@<TRIPOS>ATOM
      1  N         15.5940    7.5500  -25.2440 N.3    21  GLU21      -0.1231
      2  CA        16.2080    7.9520  -26.4980 C.3    21  GLU21       0.1699
      3  C         17.4090    8.8560  -26.2290 C.2    21  GLU21       0.2592
      4  O         17.9510    9.4560  -27.1560 O.2    21  GLU21      -0.2718
      5  CB        15.1890    8.6830  -27.3800 C.3    21  GLU21       0.0402
      6  CG        14.0870    7.7940  -27.9550 C.3    21  GLU21       0.1161
      7  CD        13.1170    8.5590  -28.8540 C.2    21  GLU21       0.3649
      8  OE1       13.5490    9.5190  -29.5320 O.co2  21  GLU21      -0.2457
      9  OE2       11.9210    8.1930  -28.8900 O.co2  21  GLU21      -0.2457
     10  N         17.8190    8.9520  -24.9610 N.am   22  CYS22      -0.1956
     11  CA        18.9620    9.7920  -24.5900 C.3    22  CYS22       0.1843
     12  C         20.2540    9.0660  -24.9040 C.2    22  CYS22       0.2625
     13  O         20.3450    7.8450  -24.7410 O.2    22  CYS22      -0.2714
     14  CB        18.9650   10.1350  -23.0940 C.3    22  CYS22       0.0997
     15  SG        17.4180   10.8020  -22.4120 S.3    22  CYS22      -0.0797
     16  N         21.2570    9.8180  -25.3350 N.am   23  ARG23      -0.1963
     17  CA        22.5300    9.2260  -25.6760 C.3    23  ARG23       0.1729
     18  C         23.7210    9.9720  -25.0900 C.2    23  ARG23       0.2616
     19  O         24.8110    9.4240  -25.0180 O.2    23  ARG23      -0.2715
     20  CB        22.6620    9.1320  -27.2020 C.3    23  ARG23       0.0348
     21  CG        21.6440    8.2050  -27.8610 C.3    23  ARG23       0.0492
     22  CD        21.9730    6.7380  -27.6270 C.3    23  ARG23       0.2205
     23  NE        21.0200    5.8600  -28.3030 N.pl3  23  ARG23      -0.0865
     24  CZ        19.8430    5.4990  -27.7990 C.cat  23  ARG23       0.5346
     25  NH1       19.4630    5.9310  -26.6010 N.pl3  23  ARG23       0.1354
     26  NH2       19.0330    4.7180  -28.4980 N.pl3  23  ARG23       0.1354
     27  N         23.5400   11.2050  -24.6480 N.am   24  GLU24      -0.1977
     28  CA        24.6910   11.9080  -24.0980 C.3    24  GLU24       0.1602
     29  C         25.1480   11.3690  -22.7500 C.2    24  GLU24       0.2287
     30  O         24.3310   11.1630  -21.8500 O.2    24  GLU24      -0.2864
     31  CB        24.3900   13.3780  -23.9500 C.3    24  GLU24       0.0415
     32  CG        25.6180   14.1930  -23.7870 C.3    24  GLU24       0.1163
     33  CD        25.5270   15.3930  -24.6560 C.2    24  GLU24       0.3649
     34  OE1       24.7100   15.3300  -25.5940 O.co2  24  GLU24      -0.2457
     35  OE2       26.2500   16.3810  -24.4240 O.co2  24  GLU24      -0.2457
     36  N          7.4510   14.2780  -18.9550 N.3    60  HIS60      -0.1241
     37  CA         8.6910   14.6660  -19.6240 C.3    60  HIS60       0.1621
     38  C          8.8330   14.2000  -21.0660 C.2    60  HIS60       0.2264
     39  O          9.3500   14.9360  -21.9100 O.2    60  HIS60      -0.2867
     40  CB         9.8950   14.1460  -18.8370 C.3    60  HIS60       0.0745
     41  CG        10.0470   14.7610  -17.4810 C.ar   60  HIS60       0.0817
     42  ND1       11.2230   14.6920  -16.7690 N.ar   60  HIS60      -0.2268
     43  CD2        9.1750   15.4400  -16.6990 C.ar   60  HIS60       0.1154
     44  CE1       11.0700   15.2970  -15.6060 C.ar   60  HIS60       0.1986
     45  NE2        9.8360   15.7610  -15.5380 N.ar   60  HIS60      -0.2212
     46  N          4.7000   15.1250  -22.9110 N.3    63  ASN63      -0.1225
     47  CA         4.3160   16.5380  -22.9250 C.3    63  ASN63       0.1785
     48  C          5.4410   17.4710  -23.3490 C.2    63  ASN63       0.2597
     49  O          5.2470   18.3520  -24.1940 O.2    63  ASN63      -0.2718
     50  CB         3.7790   16.9630  -21.5600 C.3    63  ASN63       0.1169
     51  CG         2.5810   16.1450  -21.1290 C.2    63  ASN63       0.2627
     52  OD1        1.6610   15.9210  -21.9110 O.2    63  ASN63      -0.2716
     53  ND2        2.5810   15.7050  -19.8790 N.am   63  ASN63      -0.0877
     54  N          6.6170   17.2660  -22.7640 N.am   64  LEU64      -0.1966
     55  CA         7.7860   18.0850  -23.0520 C.3    64  LEU64       0.1728
     56  C          8.5840   17.5550  -24.2340 C.2    64  LEU64       0.2617
     57  O          9.5200   18.2090  -24.6880 O.2    64  LEU64      -0.2715
     58  CB         8.6830   18.1630  -21.8140 C.3    64  LEU64       0.0311
     59  CG         8.0030   18.6680  -20.5360 C.3    64  LEU64       0.0022
     60  CD1        8.9720   18.6260  -19.3680 C.3    64  LEU64       0.0001
     61  CD2        7.5080   20.0850  -20.7520 C.3    64  LEU64       0.0001
     62  N          8.2220   16.3730  -24.7260 N.am   65  GLY65      -0.1940
     63  CA         8.9230   15.7980  -25.8590 C.3    65  GLY65       0.2014
     64  C         10.3760   15.4140  -25.6390 C.2    65  GLY65       0.2639
     65  O         11.1450   15.3780  -26.5930 O.2    65  GLY65      -0.2714
     66  N         10.7520   15.1120  -24.3980 N.am   66  TRP66      -0.1959
     67  CA        12.1240   14.7200  -24.0680 C.3    66  TRP66       0.1771
     68  C         12.4460   13.2430  -24.3180 C.2    66  TRP66       0.2619
     69  O         11.5450   12.4170  -24.3820 O.2    66  TRP66      -0.2715
     70  CB        12.4380   15.0120  -22.6050 C.3    66  TRP66       0.0590
     71  CG        12.3440   16.4280  -22.2280 C.ar   66  TRP66       0.0006
     72  CD1       12.0270   17.4770  -23.0340 C.ar   66  TRP66       0.0946
     73  CD2       12.5750   16.9690  -20.9300 C.ar   66  TRP66       0.0152
     74  NE1       12.0460   18.6440  -22.3160 N.ar   66  TRP66      -0.2442
     75  CE2       12.3800   18.3610  -21.0180 C.ar   66  TRP66       0.0810
     76  CE3       12.9260   16.4100  -19.6980 C.ar   66  TRP66       0.0012
     77  CZ2       12.5240   19.2060  -19.9200 C.ar   66  TRP66       0.0191
     78  CZ3       13.0680   17.2430  -18.6110 C.ar   66  TRP66       0.0001
     79  CH2       12.8670   18.6260  -18.7300 C.ar   66  TRP66       0.0015
     80  N         13.7440   12.9310  -24.4250 N.am   67  CYS67      -0.1968
     81  CA        14.2490   11.5670  -24.6630 C.3    67  CYS67       0.1712
     82  C         13.9450   10.6300  -23.5100 C.2    67  CYS67       0.2296
     83  O         13.7800    9.4270  -23.7020 O.2    67  CYS67      -0.2864
     84  CB        15.7690   11.5570  -24.9140 C.3    67  CYS67       0.0983
     85  SG        16.8590   12.3140  -23.6630 S.3    67  CYS67      -0.0798
     86  N         15.4120   13.2340  -14.6550 N.3    71  TYR71      -0.1241
     87  CA        16.2370   12.9290  -13.4900 C.3    71  TYR71       0.1605
     88  C         17.0740   11.6610  -13.6260 C.2    71  TYR71       0.2264
     89  O         16.6950   10.7420  -14.3400 O.2    71  TYR71      -0.2867
     90  CB        15.3570   12.8040  -12.2550 C.3    71  TYR71       0.0534
     91  CG        14.2970   13.8730  -12.1360 C.ar   71  TYR71      -0.0201
     92  CD1       14.6370   15.1920  -11.8380 C.ar   71  TYR71      -0.0009
     93  CD2       12.9520   13.5610  -12.3130 C.ar   71  TYR71      -0.0009
     94  CE1       13.6540   16.1830  -11.7170 C.ar   71  TYR71       0.0417
     95  CE2       11.9690   14.5340  -12.1970 C.ar   71  TYR71       0.0417
     96  CZ        12.3270   15.8420  -11.8980 C.ar   71  TYR71       0.1957
     97  OH        11.3390   16.7910  -11.7800 O.3    71  TYR71      -0.2866
     98  N         17.7020    8.1890  -15.5650 N.3    85  ARG85      -0.1245
     99  CA        18.6950    8.0760  -16.6240 C.3    85  ARG85       0.1563
    100  C         19.9360    7.3390  -16.1400 C.2    85  ARG85       0.2260
    101  O         20.8100    7.0170  -16.9380 O.2    85  ARG85      -0.2867
    102  CB        19.0830    9.4610  -17.1680 C.3    85  ARG85       0.0307
    103  CG        17.9190   10.2090  -17.7810 C.3    85  ARG85       0.0489
    104  CD        18.3500   11.4120  -18.6390 C.3    85  ARG85       0.2205
    105  NE        17.1730   12.1390  -19.1140 N.pl3  85  ARG85      -0.0865
    106  CZ        17.1820   13.1830  -19.9390 C.cat  85  ARG85       0.5346
    107  NH1       18.3230   13.6640  -20.4130 N.pl3  85  ARG85       0.1354
    108  NH2       16.0320   13.7410  -20.2940 N.pl3  85  ARG85       0.1354
    109  N         23.7190   11.8970  -18.9860 N.3    90  LYS90      -0.1231
    110  CA        23.4290   13.2380  -18.5270 C.3    90  LYS90       0.1693
    111  C         21.9350   13.4750  -18.4520 C.2    90  LYS90       0.2593
    112  O         21.2290   13.1800  -19.3580 O.2    90  LYS90      -0.2718
    113  CB        24.0450   14.2410  -19.4690 C.3    90  LYS90       0.0285
    114  CG        23.8730   15.6270  -19.0200 C.3    90  LYS90       0.0035
    115  CD        24.6260   16.5830  -19.8510 C.3    90  LYS90       0.0206
    116  CE        24.3100   16.3950  -21.2570 C.3    90  LYS90       0.1093
    117  NZ        22.9700   16.7290  -21.5540 N.3    90  LYS90      -0.1314
    118  N         21.4600   14.0210  -17.3590 N.am   91  GLY91      -0.1942
    119  CA        20.0370   14.2630  -17.1870 C.3    91  GLY91       0.2014
    120  C         19.6810   15.6760  -17.6150 C.2    91  GLY91       0.2639
    121  O         20.5400   16.4430  -18.0500 O.2    91  GLY91      -0.2714
    122  N         18.4010   16.0010  -17.5190 N.am   92  ALA92      -0.1963
    123  CA        17.8620   17.3180  -17.8510 C.3    92  ALA92       0.1728
    124  C         17.0740   17.7410  -16.6000 C.2    92  ALA92       0.2616
    125  O         15.8470   17.6290  -16.5520 O.2    92  ALA92      -0.2715
    126  CB        16.9230   17.2040  -19.0530 C.3    92  ALA92       0.0334
    127  N         17.7770   18.2580  -15.6020 N.am   93  HIS93      -0.1973
    128  CA        17.1280   18.6080  -14.3550 C.3    93  HIS93       0.1656
    129  C         17.6110   19.9000  -13.7230 C.2    93  HIS93       0.2291
    130  O         16.9170   20.4630  -12.8760 O.2    93  HIS93      -0.2864
    131  CB        17.3570   17.4630  -13.3800 C.3    93  HIS93       0.0771
    132  CG        18.8000   17.0840  -13.2560 C.ar   93  HIS93       0.0820
    133  ND1       19.6950   17.8160  -12.5100 N.ar   93  HIS93      -0.2267
    134  CD2       19.5220   16.1050  -13.8560 C.ar   93  HIS93       0.1154
    135  CE1       20.9070   17.3100  -12.6570 C.ar   93  HIS93       0.1986
    136  NE2       20.8290   16.2720  -13.4700 N.ar   93  HIS93      -0.2212
    137  N         19.5760   22.5340  -15.7330 N.3    95  GLY95      -0.1210
    138  CA        20.1110   23.4960  -16.6840 C.3    95  GLY95       0.1940
    139  C         21.3540   23.0550  -17.4310 C.2    95  GLY95       0.2453
    140  O         21.9730   22.0520  -17.0740 O.2    95  GLY95      -0.2732
    141  N         21.7510   23.8080  -18.4770 N.am   96  PRO96      -0.2728
    142  CA        22.9270   23.5240  -19.3150 C.3    96  PRO96       0.1401
    143  C         24.2850   23.6340  -18.6280 C.2    96  PRO96       0.2269
    144  O         25.2650   23.0110  -19.0530 O.2    96  PRO96      -0.2865
    145  CB        22.7730   24.5120  -20.4690 C.3    96  PRO96       0.0296
    146  CG        22.0700   25.6770  -19.8120 C.3    96  PRO96       0.0237
    147  CD        21.0150   24.9820  -18.9850 C.3    96  PRO96       0.0939
    148  N         23.5550   20.3650  -15.6550 N.3    99  ASN99      -0.1240
    149  CA        23.2600   19.0000  -16.0880 C.3    99  ASN99       0.1653
    150  C         24.4820   18.1300  -16.4030 C.2    99  ASN99       0.2266
    151  O         24.5740   16.9950  -15.9430 O.2    99  ASN99      -0.2867
    152  CB        22.3290   18.9830  -17.3040 C.3    99  ASN99       0.1155
    153  CG        20.9200   19.4160  -16.9690 C.2    99  ASN99       0.2627
    154  OD1       20.4070   19.1340  -15.8950 O.2    99  ASN99      -0.2716
    155  ND2       20.2860   20.0940  -17.8970 N.am   99  ASN99      -0.0877
    156  N         18.1040   22.2950   -5.6660 N.3   146  HIS146     -0.1241
    157  CA        17.7130   22.7430   -7.0040 C.3   146  HIS146      0.1621
    158  C         17.5800   24.2680   -7.0300 C.2   146  HIS146      0.2264
    159  O         18.0480   24.9090   -7.9610 O.2   146  HIS146     -0.2867
    160  CB        16.3910   22.0960   -7.4080 C.3   146  HIS146      0.0745
    161  CG        16.0440   22.2730   -8.8510 C.ar  146  HIS146      0.0817
    162  ND1       14.8160   21.9200   -9.3690 N.ar  146  HIS146     -0.2268
    163  CD2       16.7600   22.7750   -9.8860 C.ar  146  HIS146      0.1154
    164  CE1       14.7900   22.2010  -10.6580 C.ar  146  HIS146      0.1986
    165  NE2       15.9570   22.7220  -10.9960 N.ar  146  HIS146     -0.2212
    166  N         18.9730   27.0600   -9.9260 N.3   150  GLN150     -0.1245
    167  CA        17.9040   27.4780  -10.8120 C.3   150  GLN150      0.1566
    168  C         16.8400   28.1360   -9.9830 C.2   150  GLN150      0.2260
    169  O         16.6490   27.7900   -8.8150 O.2   150  GLN150     -0.2867
    170  CB        17.2350   26.2900  -11.5110 C.3   150  GLN150      0.0367
    171  CG        18.1140   25.4570  -12.3900 C.3   150  GLN150      0.0905
    172  CD        17.3390   24.9080  -13.5770 C.2   150  GLN150      0.2608
    173  OE1       16.4900   24.0200  -13.4410 O.2   150  GLN150     -0.2717
    174  NE2       17.6130   25.4530  -14.7450 N.am  150  GLN150     -0.0878
@<TRIPOS>BOND
     1     8     7   ar
     2     9     7   ar
     3     7     6    1
     4    26    24    1
     5    23    24    2
     6    23    22    1
     7     6     5    1
     8    21    22    1
     9    21    20    1
    10    24    25    1
    11     5     2    1
    12    20    17    1
    13     4     3    2
    14    65    64    2
    15     2     3    1
    16     2     1    1
    17     3    10   am
    18    63    64    1
    19    63    62    1
    20    17    16    1
    21    17    18    1
    22    64    66   am
    23    34    33   ar
    24    16    12   am
    25    18    19    2
    26    18    27   am
    27    10    11    1
    28    84    81    1
    29    84    85    1
    30    12    13    2
    31    12    11    1
    32    62    56   am
    33    57    56    2
    34    81    80    1
    35    81    82    1
    36    33    35   ar
    37    33    32    1
    38    27    28    1
    39    11    14    1
    40    80    68   am
    41    66    67    1
    42    69    68    2
    43    68    67    1
    44    56    55    1
    45    49    48    2
    46    28    31    1
    47    28    29    1
    48    67    70    1
    49    31    32    1
    50    83    82    2
    51    85    15    1
    52    48    47    1
    53    48    54   am
    54    14    15    1
    55    55    54    1
    56    55    58    1
    57    72    74   ar
    58    72    71   ar
    59    47    46    1
    60    47    50    1
    61    29    30    2
    62    70    71    1
    63    74    75   ar
    64    71    73   ar
    65    52    51    2
    66    39    38    2
    67    58    59    1
    68    50    51    1
    69   117   116    1
    70   116   115    1
    71    51    53   am
    72    38    37    1
    73    75    73   ar
    74    75    77   ar
    75    73    76   ar
    76    61    59    1
    77    59    60    1
    78   145   146    1
    79   145   142    1
    80   107   106    1
    81   108   106    1
    82   106   105    2
    83    77    79   ar
    84   115   114    1
    85   146   147    1
    86    76    78   ar
    87    37    36    1
    88    37    40    1
    89   113   114    1
    90   113   110    1
    91   112   111    2
    92   142   143    1
    93   142   141    1
    94   105   104    1
    95   126   123    1
    96   144   143    2
    97   109   110    1
    98   147   141    1
    99    40    41    1
   100    79    78   ar
   101   104   103    1
   102   110   111    1
   103   141   139   am
   104   111   118   am
   105   121   120    2
   106   155   153   am
   107   123   122    1
   108   123   124    1
   109   103   102    1
   110   120   122   am
   111   120   119    1
   112    41    42   ar
   113    41    43   ar
   114   139   140    2
   115   139   138    1
   116   118   119    1
   117   152   153    1
   118   152   149    1
   119   102    99    1
   120   153   154    2
   121   101   100    2
   122    42    44   ar
   123    43    45   ar
   124   138   137    1
   125    99   100    1
   126    99    98    1
   127   124   125    2
   128   124   127   am
   129   150   149    1
   130   150   151    2
   131   149   148    1
   132    44    45   ar
   133   127   128    1
   134   174   172   am
   135    86    87    1
   136   128   129    1
   137   128   131    1
   138    89    88    2
   139   134   136   ar
   140   134   132   ar
   141   129   130    2
   142    88    87    1
   143   172   173    2
   144   172   171    1
   145    87    90    1
   146   136   135   ar
   147   131   132    1
   148   132   133   ar
   149   135   133   ar
   150   171   170    1
   151    93    95   ar
   152    93    91   ar
   153    90    91    1
   154    95    96   ar
   155    91    92   ar
   156    96    97    1
   157    96    94   ar
   158    92    94   ar
   159   170   167    1
   160   165   164   ar
   161   165   163   ar
   162   167   168    1
   163   167   166    1
   164   164   162   ar
   165   168   169    2
   166   163   161   ar
   167   162   161   ar
   168   161   160    1
   169   159   158    2
   170   160   157    1
   171   158   157    1
   172   157   156    1
