@<TRIPOS>MOLECULE
tmp/3o4mA00.pdb
 111 108 0 0 0
SMALL
GASTEIGER

@<TRIPOS>ATOM
      1  N         34.2050  -10.1820   22.6530 N.3     2  LEU2       -0.1245
      2  CA        33.5660  -11.4830   22.4920 C.3     2  LEU2        0.1561
      3  C         32.0510  -11.4400   22.7300 C.2     2  LEU2        0.2260
      4  O         31.2830  -11.9130   21.8790 O.2     2  LEU2       -0.2867
      5  CB        34.2050  -12.5350   23.4490 C.3     2  LEU2        0.0270
      6  CG        33.7760  -14.0120   23.3890 C.3     2  LEU2        0.0019
      7  CD1       33.9360  -14.5370   21.9860 C.3     2  LEU2        0.0001
      8  CD2       34.5870  -14.8530   24.3850 C.3     2  LEU2        0.0001
      9  N         30.1740  -10.0640   19.8770 N.3     5  PHE5       -0.1227
     10  CA        30.1530  -10.9530   18.7170 C.3     5  PHE5        0.1736
     11  C         29.0570  -12.0180   18.9040 C.2     5  PHE5        0.2595
     12  O         28.2690  -12.2100   18.0140 O.2     5  PHE5       -0.2718
     13  CB        31.5280  -11.5600   18.5570 C.3     5  PHE5        0.0547
     14  CG        31.6860  -12.4530   17.3500 C.ar    5  PHE5       -0.0202
     15  CD1       30.9760  -12.2020   16.1650 C.ar    5  PHE5       -0.0042
     16  CD2       32.5950  -13.5180   17.3980 C.ar    5  PHE5       -0.0042
     17  CE1       31.1500  -12.9920   15.0650 C.ar    5  PHE5       -0.0003
     18  CE2       32.8170  -14.3350   16.2910 C.ar    5  PHE5       -0.0003
     19  CZ        32.0890  -14.0860   15.1190 C.ar    5  PHE5       -0.0000
     20  N         28.9510  -12.6740   20.0650 N.am    6  ARG6       -0.1980
     21  CA        27.8620  -13.6610   20.2730 C.3     6  ARG6        0.1597
     22  C         26.5630  -12.9680   20.0150 C.2     6  ARG6        0.2287
     23  O         25.6000  -13.5040   19.4780 O.2     6  ARG6       -0.2864
     24  CB        27.7920  -14.2000   21.7160 C.3     6  ARG6        0.0334
     25  CG        29.0210  -15.0530   22.1620 C.3     6  ARG6        0.0492
     26  CD        28.8080  -15.6200   23.6090 C.3     6  ARG6        0.2205
     27  NE        29.9390  -15.2970   24.5050 N.pl3   6  ARG6       -0.0865
     28  CZ        29.8610  -14.3940   25.4790 C.cat   6  ARG6        0.5346
     29  NH1       28.6960  -13.7720   25.6850 N.pl3   6  ARG6        0.1354
     30  NH2       30.9240  -14.1070   26.2450 N.pl3   6  ARG6        0.1354
     31  N         25.7240  -12.3310   16.2810 N.3     9  ILE9       -0.1245
     32  CA        25.2730  -13.6140   15.7060 C.3     9  ILE9        0.1561
     33  C         23.8090  -13.8520   16.0180 C.2     9  ILE9        0.2260
     34  O         23.0290  -14.3580   15.1970 O.2     9  ILE9       -0.2867
     35  CB        26.0670  -14.7630   16.2780 C.3     9  ILE9        0.0252
     36  CG1       27.5040  -14.6490   15.8080 C.3     9  ILE9        0.0019
     37  CG2       25.4580  -16.0500   15.8600 C.3     9  ILE9        0.0019
     38  CD1       28.4520  -15.4790   16.6320 C.3     9  ILE9        0.0001
     39  N         24.8110  -19.2080   19.9660 N.3    18  PRO18      -0.2102
     40  CA        26.1630  -19.0680   19.4140 C.3    18  PRO18       0.1504
     41  C         27.2270  -20.0310   19.9920 C.2    18  PRO18       0.2575
     42  O         27.8550  -20.7690   19.2240 O.2    18  PRO18      -0.2718
     43  CB        26.4850  -17.6000   19.6910 C.3    18  PRO18       0.0282
     44  CG        25.1040  -16.9340   19.5970 C.3    18  PRO18       0.0208
     45  CD        24.1950  -17.8970   20.2580 C.3    18  PRO18       0.0893
     46  N         27.4240  -20.0480   21.3160 N.am   19  LEU19      -0.1980
     47  CA        28.4120  -20.9740   21.8980 C.3    19  LEU19       0.1596
     48  C         28.0610  -22.4400   21.5860 C.2    19  LEU19       0.2287
     49  O         28.9450  -23.2150   21.2430 O.2    19  LEU19      -0.2864
     50  CB        28.6240  -20.7560   23.4130 C.3    19  LEU19       0.0297
     51  CG        29.4710  -21.8710   24.0930 C.3    19  LEU19       0.0022
     52  CD1       30.9860  -21.5630   24.1170 C.3    19  LEU19       0.0001
     53  CD2       28.9500  -22.3160   25.5200 C.3    19  LEU19       0.0001
     54  N         28.1940  -22.6060   17.1360 N.3    22  PHE22      -0.1227
     55  CA        29.3700  -22.2630   16.3010 C.3    22  PHE22       0.1736
     56  C         30.6770  -22.3500   17.0020 C.2    22  PHE22       0.2595
     57  O         31.6260  -21.8190   16.5200 O.2    22  PHE22      -0.2718
     58  CB        29.2530  -20.8340   15.7700 C.3    22  PHE22       0.0547
     59  CG        27.9850  -20.5870   15.0490 C.ar   22  PHE22      -0.0202
     60  CD1       27.8450  -20.9780   13.7130 C.ar   22  PHE22      -0.0042
     61  CD2       26.9010  -20.0550   15.7100 C.ar   22  PHE22      -0.0042
     62  CE1       26.6330  -20.7980   13.0200 C.ar   22  PHE22      -0.0003
     63  CE2       25.6900  -19.8610   15.0330 C.ar   22  PHE22      -0.0003
     64  CZ        25.5590  -20.2430   13.6660 C.ar   22  PHE22      -0.0000
     65  N         30.7200  -22.9730   18.1540 N.am   23  ASN23      -0.1974
     66  CA        31.9480  -23.1190   18.8800 C.3    23  ASN23       0.1688
     67  C         32.3010  -24.6170   18.8710 C.2    23  ASN23       0.2292
     68  O         31.4480  -25.4890   19.0930 O.2    23  ASN23      -0.2864
     69  CB        31.8020  -22.5040   20.2810 C.3    23  ASN23       0.1181
     70  CG        33.0770  -22.5780   21.0970 C.2    23  ASN23       0.2629
     71  OD1       33.2480  -23.4900   21.9360 O.2    23  ASN23      -0.2716
     72  ND2       33.9730  -21.6010   20.8960 N.am   23  ASN23      -0.0877
     73  N         36.2810  -22.7440   13.9720 N.3    29  CYS29      -0.1221
     74  CA        35.3350  -22.1750   14.9830 C.3    29  CYS29       0.1808
     75  C         35.5860  -22.7470   16.3930 C.2    29  CYS29       0.2601
     76  O         35.1140  -23.8730   16.6930 O.2    29  CYS29      -0.2717
     77  CB        33.8810  -22.4670   14.6000 C.3    29  CYS29       0.0970
     78  SG        33.5820  -22.4880   12.8470 S.3    29  CYS29      -0.0800
     79  N         36.2690  -22.0380   17.2750 N.am   30  GLY30      -0.1957
     80  CA        36.5140  -22.5920   18.5970 C.3    30  GLY30       0.1869
     81  C         37.7590  -21.9340   19.1140 C.2    30  GLY30       0.2309
     82  O         37.7610  -20.7180   19.3040 O.2    30  GLY30      -0.2863
     83  N         34.6050  -18.9490    9.6590 N.3    45  CYS45      -0.1235
     84  CA        35.3750  -18.9490   10.8930 C.3    45  CYS45       0.1677
     85  C         36.8290  -18.6320   10.5960 C.2    45  CYS45       0.2270
     86  O         37.4480  -17.8190   11.2830 O.2    45  CYS45      -0.2867
     87  CB        35.2630  -20.3030   11.5960 C.3    45  CYS45       0.0956
     88  SG        33.7030  -20.2680   12.5290 S.3    45  CYS45      -0.0801
     89  N         39.3420   -9.6860   21.1320 N.3    69  TYR69      -0.1241
     90  CA        38.0620  -10.0000   21.7970 C.3    69  TYR69       0.1605
     91  C         37.7760   -9.1770   23.0560 C.2    69  TYR69       0.2264
     92  O         36.6400   -9.1620   23.5440 O.2    69  TYR69      -0.2867
     93  CB        37.9690  -11.4710   22.1700 C.3    69  TYR69       0.0534
     94  CG        37.5450  -12.4050   21.0470 C.ar   69  TYR69      -0.0201
     95  CD1       36.3470  -12.2110   20.3370 C.ar   69  TYR69      -0.0009
     96  CD2       38.3340  -13.5130   20.7120 C.ar   69  TYR69      -0.0009
     97  CE1       35.9470  -13.1110   19.3180 C.ar   69  TYR69       0.0417
     98  CE2       37.9550  -14.4060   19.6900 C.ar   69  TYR69       0.0417
     99  CZ        36.7570  -14.2200   19.0180 C.ar   69  TYR69       0.1957
    100  OH        36.4070  -15.1200   18.0010 O.3    69  TYR69      -0.2866
    101  N         28.0770  -16.3220    8.7240 N.3   106  PHE106     -0.1241
    102  CA        27.4010  -17.4280    9.4040 C.3   106  PHE106      0.1605
    103  C         25.9690  -17.5560    8.9190 C.2   106  PHE106      0.2264
    104  O         25.5110  -18.6330    8.6150 O.2   106  PHE106     -0.2867
    105  CB        27.3710  -17.2030   10.9180 C.3   106  PHE106      0.0534
    106  CG        28.7080  -17.3100   11.5900 C.ar  106  PHE106     -0.0203
    107  CD1       29.8870  -17.4300   10.8580 C.ar  106  PHE106     -0.0042
    108  CD2       28.7870  -17.2500   12.9910 C.ar  106  PHE106     -0.0042
    109  CE1       31.1270  -17.5030   11.5260 C.ar  106  PHE106     -0.0003
    110  CE2       30.0040  -17.3140   13.6400 C.ar  106  PHE106     -0.0003
    111  CZ        31.1750  -17.4400   12.9200 C.ar  106  PHE106     -0.0000
@<TRIPOS>BOND
     1   104   103    2
     2   101   102    1
     3   103   102    1
     4   102   105    1
     5    83    84    1
     6    85    84    1
     7    85    86    2
     8   107   109   ar
     9   107   106   ar
    10    84    87    1
    11   105   106    1
    12   109   111   ar
    13   106   108   ar
    14    87    88    1
    15    88    78    1
    16    78    77    1
    17   111   110   ar
    18   108   110   ar
    19    62    64   ar
    20    62    60   ar
    21    64    63   ar
    22    60    59   ar
    23    73    74    1
    24    77    74    1
    25    74    75    1
    26    63    61   ar
    27    59    61   ar
    28    59    58    1
    29    17    19   ar
    30    17    15   ar
    31    19    18   ar
    32    34    33    2
    33    32    33    1
    34    32    35    1
    35    32    31    1
    36    58    55    1
    37    36    35    1
    38    36    38    1
    39    37    35    1
    40    15    14   ar
    41    18    16   ar
    42    55    56    1
    43    55    54    1
    44    75    76    2
    45    75    79   am
    46    57    56    2
    47    56    65   am
    48    79    80    1
    49    14    16   ar
    50    14    13    1
    51   100    99    1
    52    12    11    2
    53    65    66    1
    54    13    10    1
    55    80    81    1
    56    10    11    1
    57    10     9    1
    58    67    66    1
    59    67    68    2
    60    66    69    1
    61    11    20   am
    62    99    97   ar
    63    99    98   ar
    64    81    82    2
    65    42    41    2
    66    97    95   ar
    67    40    43    1
    68    40    39    1
    69    40    41    1
    70    23    22    2
    71    44    43    1
    72    44    45    1
    73    98    96   ar
    74    39    45    1
    75    41    46   am
    76    22    21    1
    77    20    21    1
    78    21    24    1
    79    69    70    1
    80    95    94   ar
    81    96    94   ar
    82    72    70   am
    83    94    93    1
    84    70    71    2
    85    89    90    1
    86    49    48    2
    87    46    47    1
    88    48    47    1
    89    24    25    1
    90    90    93    1
    91    90    91    1
    92     4     3    2
    93    47    50    1
    94     7     6    1
    95    25    26    1
    96     2     1    1
    97     2     3    1
    98     2     5    1
    99    91    92    2
   100     6     5    1
   101     6     8    1
   102    50    51    1
   103    26    27    1
   104    51    52    1
   105    51    53    1
   106    27    28    2
   107    28    29    1
   108    28    30    1
