@<TRIPOS>MOLECULE
tmp/3o4oC00.pdb
 97 93 0 0 0
SMALL
GASTEIGER

@<TRIPOS>ATOM
      1  N         -1.0170   -3.4150   10.6470 N.3     6  LEU6       -0.1245
      2  CA        -1.2840   -2.8090    9.3420 C.3     6  LEU6        0.1561
      3  C         -2.4460   -3.4680    8.5990 C.2     6  LEU6        0.2260
      4  O         -2.7190   -4.6540    8.7790 O.2     6  LEU6       -0.2867
      5  CB        -0.0250   -2.8100    8.4680 C.3     6  LEU6        0.0270
      6  CG         1.0170   -3.9110    8.6740 C.3     6  LEU6        0.0019
      7  CD1        0.3900   -5.2930    8.6280 C.3     6  LEU6        0.0001
      8  CD2        2.1170   -3.7830    7.6320 C.3     6  LEU6        0.0001
      9  N         -3.1910   -5.2810    6.2530 N.3     8  THR8       -0.1218
     10  CA        -2.5170   -6.2020    5.3430 C.3     8  THR8        0.1862
     11  C         -3.2750   -6.4200    4.0400 C.2     8  THR8        0.2287
     12  O         -2.7480   -6.1690    2.9580 O.2     8  THR8       -0.2866
     13  CB        -2.2730   -7.5710    6.0060 C.3     8  THR8        0.1770
     14  OG1       -3.3100   -7.8320    6.9600 O.3     8  THR8       -0.2211
     15  CG2       -0.9290   -7.5910    6.7110 C.3     8  THR8        0.0375
     16  N          9.7480    1.8620    5.2430 N.3    51  ARG51      -0.1231
     17  CA        10.2100    1.2460    4.0030 C.3    51  ARG51       0.1694
     18  C         10.2930   -0.2680    4.1700 C.2    51  ARG51       0.2592
     19  O         10.1290   -0.7860    5.2750 O.2    51  ARG51      -0.2718
     20  CB        11.5770    1.8120    3.6020 C.3    51  ARG51       0.0321
     21  CG        12.1960    1.1720    2.3690 C.3    51  ARG51       0.0489
     22  CD        13.4720    1.8870    1.9570 C.3    51  ARG51       0.2205
     23  NE        14.1600    1.2030    0.8640 N.pl3  51  ARG51      -0.0865
     24  CZ        13.7930    1.2720   -0.4130 C.cat  51  ARG51       0.5346
     25  NH1       12.7340    1.9880   -0.7640 N.pl3  51  ARG51       0.1354
     26  NH2       14.4830    0.6180   -1.3390 N.pl3  51  ARG51       0.1354
     27  N         10.5260   -0.9770    3.0690 N.am   52  GLN52      -0.1966
     28  CA        10.7840   -2.4090    3.1230 C.3    52  GLN52       0.1733
     29  C         12.1270   -2.6160    3.8100 C.2    52  GLN52       0.2616
     30  O         13.1600   -2.7460    3.1500 O.2    52  GLN52      -0.2715
     31  CB        10.8070   -2.9940    1.7100 C.3    52  GLN52       0.0408
     32  CG        10.8430   -4.5150    1.6460 C.3    52  GLN52       0.0908
     33  CD        10.5090   -5.0420    0.2610 C.2    52  GLN52       0.2608
     34  OE1        9.9290   -4.3310   -0.5610 O.2    52  GLN52      -0.2717
     35  NE2       10.8720   -6.2930   -0.0020 N.am   52  GLN52      -0.0878
     36  N         12.1050   -2.6510    5.1390 N.am   53  ASP53      -0.1957
     37  CA        13.3330   -2.6120    5.9210 C.3    53  ASP53       0.1840
     38  C         13.1050   -3.1660    7.3260 C.2    53  ASP53       0.2621
     39  O         12.3330   -4.1070    7.5130 O.2    53  ASP53      -0.2715
     40  CB        13.8460   -1.1730    6.0060 C.3    53  ASP53       0.1450
     41  CG        15.3300   -1.0630    5.7200 C.2    53  ASP53       0.3671
     42  OD1       15.9160   -2.0460    5.2210 O.co2  53  ASP53      -0.2456
     43  OD2       15.9080    0.0140    5.9830 O.co2  53  ASP53      -0.2456
     44  N         13.7730   -2.5690    8.3100 N.am   54  ARG54      -0.1977
     45  CA        13.7230   -3.0600    9.6850 C.3    54  ARG54       0.1597
     46  C         13.7650   -1.9430   10.7260 C.2    54  ARG54       0.2287
     47  O         14.0020   -2.2030   11.9050 O.2    54  ARG54      -0.2864
     48  CB        14.8760   -4.0350    9.9470 C.3    54  ARG54       0.0334
     49  CG        14.5850   -5.4720    9.5550 C.3    54  ARG54       0.0492
     50  CD        13.4840   -6.0620   10.4220 C.3    54  ARG54       0.2205
     51  NE        13.1150   -7.4080    9.9930 N.pl3  54  ARG54      -0.0865
     52  CZ        12.2080   -7.6720    9.0580 C.cat  54  ARG54       0.5346
     53  NH1       11.5680   -6.6820    8.4470 N.pl3  54  ARG54       0.1354
     54  NH2       11.9390   -8.9290    8.7320 N.pl3  54  ARG54       0.1354
     55  N          7.9660    3.2370   -1.7410 N.3    86  THR86      -0.1203
     56  CA         7.3870    1.9570   -1.3530 C.3    86  THR86       0.1994
     57  C          7.8090    1.5850    0.0610 C.2    86  THR86       0.2618
     58  O          8.9790    1.7110    0.4190 O.2    86  THR86      -0.2717
     59  CB         7.8170    0.8260   -2.3040 C.3    86  THR86       0.1784
     60  OG1        7.3910    1.1270   -3.6370 O.3    86  THR86      -0.2211
     61  CG2        7.2040   -0.4960   -1.8700 C.3    86  THR86       0.0376
     62  N          6.8500    1.1320    0.8610 N.am   87  GLY87      -0.1942
     63  CA         7.1270    0.7170    2.2230 C.3    87  GLY87       0.2014
     64  C          5.9330    0.9190    3.1330 C.2    87  GLY87       0.2638
     65  O          4.9620    1.5720    2.7570 O.2    87  GLY87      -0.2714
     66  N          6.1020    0.4600    4.3090 N.am   88  ASN88      -0.1972
     67  CA         5.0150    0.5800    5.2670 C.3    88  ASN88       0.1688
     68  C          4.9990    1.9490    5.9390 C.2    88  ASN88       0.2292
     69  O          6.0520    2.5300    6.2090 O.2    88  ASN88      -0.2864
     70  CB         5.1070   -0.5560    6.2820 C.3    88  ASN88       0.1181
     71  CG         4.9560   -1.9160    5.6320 C.2    88  ASN88       0.2629
     72  OD1        3.9950   -2.1500    4.8870 O.2    88  ASN88      -0.2716
     73  ND2        5.8940   -2.8280    5.9080 N.am   88  ASN88      -0.0877
     74  N          0.8460   -0.7230    4.1430 N.3   105  PRO105     -0.2102
     75  CA         1.8670   -0.9210    3.1100 C.3   105  PRO105      0.1504
     76  C          1.5350   -0.1640    1.8320 C.2   105  PRO105      0.2576
     77  O          0.5130   -0.4360    1.2020 O.2   105  PRO105     -0.2718
     78  CB         1.8030   -2.4320    2.8510 C.3   105  PRO105      0.0282
     79  CG         0.4450   -2.8330    3.3390 C.3   105  PRO105      0.0208
     80  CD         0.2670   -2.0070    4.5630 C.3   105  PRO105      0.0893
     81  N          2.3970    0.7790    1.4650 N.am  106  LEU106     -0.1966
     82  CA         2.2320    1.5460    0.2370 C.3   106  LEU106      0.1728
     83  C          3.1530    1.0340   -0.8660 C.2   106  LEU106      0.2616
     84  O          4.3550    1.2980   -0.8580 O.2   106  LEU106     -0.2715
     85  CB         2.5000    3.0280    0.4950 C.3   106  LEU106      0.0311
     86  CG         2.4580    3.9210   -0.7440 C.3   106  LEU106      0.0022
     87  CD1        1.2560    3.5740   -1.6010 C.3   106  LEU106      0.0001
     88  CD2        2.4310    5.3880   -0.3520 C.3   106  LEU106      0.0001
     89  N          2.5780    0.3000   -1.8110 N.am  107  GLU107     -0.1977
     90  CA         3.3290   -0.2360   -2.9360 C.3   107  GLU107      0.1602
     91  C          3.2550    0.7360   -4.1080 C.2   107  GLU107      0.2287
     92  O          2.1700    0.9860   -4.6360 O.2   107  GLU107     -0.2864
     93  CB         2.7350   -1.5820   -3.3500 C.3   107  GLU107      0.0415
     94  CG         2.0470   -2.3230   -2.2110 C.3   107  GLU107      0.1163
     95  CD         1.0240   -3.3300   -2.7000 C.2   107  GLU107      0.3649
     96  OE1       -0.1530   -3.2250   -2.2940 O.co2 107  GLU107     -0.2457
     97  OE2        1.3920   -4.2160   -3.4990 O.co2 107  GLU107     -0.2457
@<TRIPOS>BOND
     1    92    91    2
     2    91    90    1
     3    60    59    1
     4    97    95   ar
     5    93    90    1
     6    93    94    1
     7    90    89    1
     8    95    96   ar
     9    95    94    1
    10    59    61    1
    11    59    56    1
    12    89    83   am
    13    55    56    1
    14    87    86    1
    15    56    57    1
    16    26    24    1
    17    83    84    2
    18    83    82    1
    19    25    24    1
    20    86    88    1
    21    86    85    1
    22    34    33    2
    23    24    23    2
    24    35    33   am
    25    57    58    2
    26    57    62   am
    27    82    85    1
    28    82    81    1
    29    33    32    1
    30    62    63    1
    31    23    22    1
    32    77    76    2
    33    81    76   am
    34    32    31    1
    35    31    28    1
    36    76    75    1
    37    22    21    1
    38    63    64    1
    39    21    20    1
    40    65    64    2
    41    78    75    1
    42    78    79    1
    43    12    11    2
    44    27    28    1
    45    27    18   am
    46    75    74    1
    47    28    29    1
    48    64    66   am
    49    30    29    2
    50    79    80    1
    51    20    17    1
    52    29    36   am
    53    17    18    1
    54    17    16    1
    55    11    10    1
    56    74    80    1
    57    18    19    2
    58    66    67    1
    59    72    71    2
    60    36    37    1
    61    42    41   ar
    62    67    68    1
    63    67    70    1
    64    10    13    1
    65    10     9    1
    66    71    73   am
    67    71    70    1
    68    41    43   ar
    69    41    40    1
    70    37    40    1
    71    37    38    1
    72    68    69    2
    73    13    15    1
    74    13    14    1
    75    38    39    2
    76    38    44   am
    77     8     6    1
    78    44    45    1
    79    53    52    1
    80     5     6    1
    81     5     2    1
    82     3     4    2
    83     3     2    1
    84     7     6    1
    85    54    52    1
    86    52    51    2
    87     2     1    1
    88    49    48    1
    89    49    50    1
    90    45    48    1
    91    45    46    1
    92    51    50    1
    93    46    47    2
