@<TRIPOS>MOLECULE
tmp/3o4uA00.pdb
 89 85 0 0 0
SMALL
GASTEIGER

@<TRIPOS>ATOM
      1  N        -30.4220   15.7350  -11.6070 N.3    61  TYR61      -0.1241
      2  CA       -31.2510   15.7050  -12.8100 C.3    61  TYR61       0.1605
      3  C        -31.8770   14.3230  -12.9580 C.2    61  TYR61       0.2264
      4  O        -31.1880   13.3020  -12.8480 O.2    61  TYR61      -0.2867
      5  CB       -30.4190   16.0520  -14.0500 C.3    61  TYR61       0.0534
      6  CG       -29.6920   17.3810  -13.9480 C.ar   61  TYR61      -0.0201
      7  CD1      -30.3220   18.5740  -14.3090 C.ar   61  TYR61      -0.0009
      8  CD2      -28.3800   17.4460  -13.4870 C.ar   61  TYR61      -0.0009
      9  CE1      -29.6610   19.8000  -14.2140 C.ar   61  TYR61       0.0417
     10  CE2      -27.7090   18.6680  -13.3890 C.ar   61  TYR61       0.0417
     11  CZ       -28.3580   19.8350  -13.7540 C.ar   61  TYR61       0.1957
     12  OH       -27.7020   21.0390  -13.6580 O.3    61  TYR61      -0.2866
     13  N        -30.4570   12.2460  -15.9920 N.3    64  ILE64      -0.1245
     14  CA       -29.0260   11.9330  -15.9960 C.3    64  ILE64       0.1561
     15  C        -28.6860   10.9970  -14.8270 C.2    64  ILE64       0.2260
     16  O        -28.4880   11.4350  -13.6860 O.2    64  ILE64      -0.2867
     17  CB       -28.1420   13.2090  -16.0180 C.3    64  ILE64       0.0252
     18  CG1      -28.5310   14.0910  -17.2130 C.3    64  ILE64       0.0019
     19  CG2      -26.6590   12.8220  -16.0630 C.3    64  ILE64       0.0019
     20  CD1      -28.2380   15.5680  -17.0390 C.3    64  ILE64       0.0001
     21  N        -18.8430   18.7250  -12.6210 N.3   211  CYS211     -0.1221
     22  CA       -19.2550   20.1080  -12.3970 C.3   211  CYS211      0.1808
     23  C        -20.6650   20.1820  -11.8320 C.2   211  CYS211      0.2602
     24  O        -20.8300   20.4800  -10.6460 O.2   211  CYS211     -0.2717
     25  CB       -19.0890   21.0130  -13.6210 C.3   211  CYS211      0.0970
     26  SG       -19.7010   22.7230  -13.2940 S.3   211  CYS211     -0.0800
     27  N        -21.6630   19.9060  -12.6750 N.am  212  SER212     -0.1938
     28  CA       -23.0710   19.9690  -12.2710 C.3   212  SER212      0.2055
     29  C        -23.7920   18.6420  -12.5590 C.2   212  SER212      0.2643
     30  O        -24.3180   18.0110  -11.6400 O.2   212  SER212     -0.2714
     31  CB       -23.7760   21.1640  -12.9380 C.3   212  SER212      0.2130
     32  OG       -23.9970   20.9420  -14.3200 O.3   212  SER212     -0.2179
     33  N        -23.7970   18.2230  -13.8270 N.am  213  ALA213     -0.1963
     34  CA       -24.4150   16.9540  -14.2410 C.3   213  ALA213      0.1728
     35  C        -23.4160   15.8090  -14.3860 C.2   213  ALA213      0.2617
     36  O        -23.8020   14.6440  -14.3400 O.2   213  ALA213     -0.2715
     37  CB       -25.2010   17.1300  -15.5320 C.3   213  ALA213      0.0334
     38  N        -22.1410   16.1390  -14.5700 N.am  214  GLY214     -0.1940
     39  CA       -21.0880   15.1220  -14.7020 C.3   214  GLY214      0.2014
     40  C        -20.9800   14.4360  -16.0560 C.2   214  GLY214      0.2639
     41  O        -20.4490   13.3280  -16.1490 O.2   214  GLY214     -0.2714
     42  N        -21.4840   15.0780  -17.1090 N.am  215  ILE215     -0.1963
     43  CA       -21.4760   14.4780  -18.4520 C.3   215  ILE215      0.1727
     44  C        -20.9050   15.3820  -19.5610 C.2   215  ILE215      0.2617
     45  O        -20.3250   14.8860  -20.5160 O.2   215  ILE215     -0.2715
     46  CB       -22.8780   13.9240  -18.8730 C.3   215  ILE215      0.0290
     47  CG1      -23.9350   15.0290  -18.9230 C.3   215  ILE215      0.0022
     48  CG2      -23.3270   12.7700  -17.9450 C.3   215  ILE215      0.0023
     49  CD1      -25.1910   14.6230  -19.6650 C.3   215  ILE215      0.0001
     50  N        -21.0570   16.6960  -19.4160 N.am  216  GLY216     -0.1940
     51  CA       -20.6570   17.6590  -20.4470 C.3   216  GLY216      0.2014
     52  C        -19.1850   18.0230  -20.4000 C.2   216  GLY216      0.2639
     53  O        -18.3670   17.3710  -21.0430 O.2   216  GLY216     -0.2714
     54  N        -18.8340   19.0590  -19.6400 N.am  217  ARG217     -0.1963
     55  CA       -17.4200   19.4390  -19.5180 C.3   217  ARG217      0.1729
     56  C        -16.5580   18.3870  -18.8180 C.2   217  ARG217      0.2616
     57  O        -15.3600   18.2890  -19.0790 O.2   217  ARG217     -0.2715
     58  CB       -17.2180   20.8270  -18.8910 C.3   217  ARG217      0.0348
     59  CG       -18.2720   21.3200  -17.9460 C.3   217  ARG217      0.0492
     60  CD       -18.3780   22.8400  -18.0370 C.3   217  ARG217      0.2205
     61  NE       -19.3560   23.3900  -17.1040 N.pl3 217  ARG217     -0.0865
     62  CZ       -19.5470   24.6900  -16.8840 C.cat 217  ARG217      0.5346
     63  NH1      -18.8320   25.6010  -17.5360 N.pl3 217  ARG217      0.1354
     64  NH2      -20.4630   25.0800  -16.0090 N.pl3 217  ARG217      0.1354
     65  N        -17.1900   17.6110  -17.9450 N.am  218  THR218     -0.1951
     66  CA       -16.5730   16.4570  -17.2930 C.3   218  THR218      0.1897
     67  C        -16.1020   15.4500  -18.3440 C.2   218  THR218      0.2313
     68  O        -14.9660   14.9640  -18.2860 O.2   218  THR218     -0.2863
     69  CB       -17.5720   15.8070  -16.2980 C.3   218  THR218      0.1794
     70  OG1      -17.8390   16.7410  -15.2480 O.3   218  THR218     -0.2208
     71  CG2      -17.0320   14.5030  -15.6920 C.3   218  THR218      0.0378
     72  N        -21.8180   16.6480  -24.5830 N.3   255  GLN255     -0.1245
     73  CA       -23.2200   16.9580  -24.8210 C.3   255  GLN255      0.1566
     74  C        -23.5300   17.5320  -26.1900 C.2   255  GLN255      0.2260
     75  O        -24.6080   17.2860  -26.7240 O.2   255  GLN255     -0.2867
     76  CB       -23.7530   17.8920  -23.7310 C.3   255  GLN255      0.0367
     77  CG       -23.9070   17.2230  -22.3850 C.3   255  GLN255      0.0905
     78  CD       -24.4620   18.1660  -21.3420 C.2   255  GLN255      0.2608
     79  OE1      -25.5860   17.9990  -20.8870 O.2   255  GLN255     -0.2717
     80  NE2      -23.6790   19.1700  -20.9680 N.am  255  GLN255     -0.0878
     81  N        -18.7100   21.0420  -28.4340 N.3   259  GLN259     -0.1245
     82  CA       -17.7590   20.3680  -27.5350 C.3   259  GLN259      0.1566
     83  C        -16.9190   19.3120  -28.2790 C.2   259  GLN259      0.2260
     84  O        -15.7100   19.2140  -28.0620 O.2   259  GLN259     -0.2867
     85  CB       -18.5080   19.7190  -26.3590 C.3   259  GLN259      0.0367
     86  CG       -19.0270   20.6950  -25.3130 C.3   259  GLN259      0.0905
     87  CD       -19.9090   20.0260  -24.2670 C.2   259  GLN259      0.2608
     88  OE1      -20.3420   18.8830  -24.4340 O.2   259  GLN259     -0.2717
     89  NE2      -20.1780   20.7450  -23.1710 N.am  259  GLN259     -0.0878
@<TRIPOS>BOND
     1    81    82    1
     2    83    84    2
     3    83    82    1
     4    82    85    1
     5    75    74    2
     6    85    86    1
     7    74    73    1
     8    86    87    1
     9    73    72    1
    10    73    76    1
    11    88    87    2
    12    87    89   am
    13    76    77    1
    14    77    78    1
    15    78    80   am
    16    78    79    2
    17    53    52    2
    18    45    44    2
    19    51    52    1
    20    51    50    1
    21    52    54   am
    22    49    47    1
    23    54    55    1
    24    44    50   am
    25    44    43    1
    26    55    58    1
    27    55    56    1
    28    57    56    2
    29    47    46    1
    30    58    59    1
    31    46    43    1
    32    46    48    1
    33    56    65   am
    34    43    42    1
    35    67    68    2
    36    67    66    1
    37    60    59    1
    38    60    61    1
    39    65    66    1
    40    63    62    1
    41    66    69    1
    42    18    20    1
    43    18    17    1
    44    42    40   am
    45    61    62    2
    46    62    64    1
    47    69    71    1
    48    69    70    1
    49    41    40    2
    50    19    17    1
    51    40    39    1
    52    17    14    1
    53    14    13    1
    54    14    15    1
    55    37    34    1
    56    15    16    2
    57    39    38    1
    58    38    35   am
    59    35    36    2
    60    35    34    1
    61    32    31    1
    62     7     9   ar
    63     7     6   ar
    64    34    33    1
    65     9    11   ar
    66     5     6    1
    67     5     2    1
    68     6     8   ar
    69    33    29   am
    70    11    12    1
    71    11    10   ar
    72    25    26    1
    73    25    22    1
    74     8    10   ar
    75     3     4    2
    76     3     2    1
    77    31    28    1
    78     2     1    1
    79    27    28    1
    80    27    23   am
    81    21    22    1
    82    29    28    1
    83    29    30    2
    84    22    23    1
    85    23    24    2
