@<TRIPOS>MOLECULE
tmp/3o4vB00.pdb
 143 135 0 0 0
SMALL
GASTEIGER

@<TRIPOS>ATOM
      1  N         54.5800   85.8780   46.7610 N.3     8  ALA8       -0.1231
      2  CA        54.7930   86.4680   45.4420 C.3     8  ALA8        0.1694
      3  C         54.8060   88.0020   45.5320 C.2     8  ALA8        0.2591
      4  O         55.7630   88.6830   45.0750 O.2     8  ALA8       -0.2718
      5  CB        53.6380   85.9890   44.4880 C.3     8  ALA8        0.0304
      6  N         53.7120   88.5750   46.0440 N.am    9  MET9       -0.1979
      7  CA        53.5700   90.0430   46.0830 C.3     9  MET9        0.1605
      8  C         54.3130   90.5820   47.3230 C.2     9  MET9        0.2287
      9  O         54.4420   89.8670   48.3460 O.2     9  MET9       -0.2864
     10  CB        52.0990   90.4240   46.2740 C.3     9  MET9        0.0413
     11  CG        51.2100   89.9150   45.0440 C.3     9  MET9        0.0598
     12  SD        49.5080   90.4540   45.3350 S.3     9  MET9       -0.1393
     13  CE        49.6040   92.2120   45.0680 C.3     9  MET9        0.0692
     14  N         52.2130   90.2560   50.2600 N.3    12  GLU12      -0.1245
     15  CA        52.0920   88.8740   50.7570 C.3    12  GLU12       0.1567
     16  C         53.2960   88.4780   51.6290 C.2    12  GLU12       0.2260
     17  O         53.2120   87.4740   52.3230 O.2    12  GLU12      -0.2867
     18  CB        51.8940   87.8070   49.6070 C.3    12  GLU12       0.0388
     19  CG        50.4950   88.0020   49.0120 C.3    12  GLU12       0.1160
     20  CD        50.3000   87.1890   47.6990 C.2    12  GLU12       0.3649
     21  OE1       51.2960   87.1070   46.9700 O.co2  12  GLU12      -0.2457
     22  OE2       49.2010   86.6440   47.4330 O.co2  12  GLU12      -0.2457
     23  N         55.5270   87.7440   40.5320 N.3    50  ILE50      -0.1245
     24  CA        54.2120   87.2050   40.1950 C.3    50  ILE50       0.1561
     25  C         54.2740   86.1620   39.0830 C.2    50  ILE50       0.2260
     26  O         54.9040   86.4450   38.0590 O.2    50  ILE50      -0.2867
     27  CB        53.2640   88.3480   39.7390 C.3    50  ILE50       0.0252
     28  CG1       53.1800   89.4870   40.7820 C.3    50  ILE50       0.0019
     29  CG2       51.8290   87.7740   39.5040 C.3    50  ILE50       0.0019
     30  CD1       52.9820   88.9940   42.1770 C.3    50  ILE50       0.0001
     31  N         47.7180   85.0440   49.0950 N.3    76  SER76      -0.1202
     32  CA        46.2540   85.0390   48.8610 C.3    76  SER76       0.2020
     33  C         45.8900   83.9350   47.8270 C.2    76  SER76       0.2619
     34  O         46.7570   83.2860   47.2450 O.2    76  SER76      -0.2717
     35  CB        45.8250   86.4410   48.3200 C.3    76  SER76       0.2103
     36  OG        46.4940   86.7410   47.0570 O.3    76  SER76      -0.2182
     37  N         44.6080   83.7430   47.5700 N.am   77  ALA77      -0.1965
     38  CA        44.1750   82.7210   46.5850 C.3    77  ALA77       0.1728
     39  C         42.7510   83.0230   46.2040 C.2    77  ALA77       0.2616
     40  O         42.0330   83.6120   47.0160 O.2    77  ALA77      -0.2715
     41  CB        44.3130   81.2430   47.1900 C.3    77  ALA77       0.0334
     42  N         42.3180   82.5880   45.0120 N.am   78  GLY78      -0.1955
     43  CA        40.8750   82.6320   44.6240 C.3    78  GLY78       0.1869
     44  C         40.2160   81.3790   45.1410 C.2    78  GLY78       0.2309
     45  O         40.6740   80.2650   44.7860 O.2    78  GLY78      -0.2863
     46  N         47.2320   83.2110   35.0290 N.3   150  ALA150     -0.1231
     47  CA        46.1050   84.0940   34.8450 C.3   150  ALA150      0.1694
     48  C         45.4270   84.4500   36.1690 C.2   150  ALA150      0.2592
     49  O         45.2740   83.5870   37.0390 O.2   150  ALA150     -0.2718
     50  CB        45.0660   83.3950   33.9270 C.3   150  ALA150      0.0304
     51  N         44.9990   85.7160   36.2890 N.am  151  PHE151     -0.1962
     52  CA        44.1310   86.0750   37.3960 C.3   151  PHE151      0.1771
     53  C         42.6890   85.7200   36.9880 C.2   151  PHE151      0.2619
     54  O         42.1340   86.3160   36.0350 O.2   151  PHE151     -0.2715
     55  CB        44.2520   87.5770   37.7100 C.3   151  PHE151      0.0574
     56  CG        43.4220   87.9570   38.8740 C.ar  151  PHE151     -0.0200
     57  CD1       42.1240   88.4740   38.6880 C.ar  151  PHE151     -0.0042
     58  CD2       43.9320   87.8100   40.1500 C.ar  151  PHE151     -0.0042
     59  CE1       41.3390   88.7820   39.7780 C.ar  151  PHE151     -0.0003
     60  CE2       43.1210   88.1470   41.2820 C.ar  151  PHE151     -0.0003
     61  CZ        41.8420   88.6280   41.0900 C.ar  151  PHE151     -0.0000
     62  N         42.0640   84.7590   37.6690 N.am  152  ILE152     -0.1977
     63  CA        40.8190   84.1970   37.3730 C.3   152  ILE152      0.1596
     64  C         39.7220   85.1470   37.7650 C.2   152  ILE152      0.2287
     65  O         39.6550   85.5060   38.8970 O.2   152  ILE152     -0.2864
     66  CB        40.6790   82.7870   37.9470 C.3   152  ILE152      0.0276
     67  CG1       41.9330   81.9720   37.5060 C.3   152  ILE152      0.0022
     68  CG2       39.3810   82.1210   37.4080 C.3   152  ILE152      0.0022
     69  CD1       42.0420   81.7780   35.9170 C.3   152  ILE152      0.0001
     70  N         42.5480   78.6260   43.4780 N.3   171  VAL171     -0.1231
     71  CA        43.4050   78.8890   42.3490 C.3   171  VAL171      0.1692
     72  C         44.3070   80.0790   42.6040 C.2   171  VAL171      0.2592
     73  O         43.9310   81.0010   43.2160 O.2   171  VAL171     -0.2718
     74  CB        42.6010   79.1280   41.0600 C.3   171  VAL171      0.0266
     75  CG1       41.5380   80.1980   41.2580 C.3   171  VAL171      0.0020
     76  CG2       43.4800   79.4390   39.8310 C.3   171  VAL171      0.0020
     77  N         45.5000   80.0030   42.0790 N.am  172  GLU172     -0.1966
     78  CA        46.4240   81.0560   42.2190 C.3   172  GLU172      0.1733
     79  C         47.4850   80.9940   41.0920 C.2   172  GLU172      0.2616
     80  O         47.2330   80.4290   40.1000 O.2   172  GLU172     -0.2715
     81  CB        46.9380   81.1920   43.6300 C.3   172  GLU172      0.0429
     82  CG        47.4000   79.9270   44.2500 C.3   172  GLU172      0.1163
     83  CD        48.6010   79.3640   43.5400 C.2   172  GLU172      0.3649
     84  OE1       48.3800   78.4550   42.8060 O.co2 172  GLU172     -0.2457
     85  OE2       49.6660   79.8680   43.7550 O.co2 172  GLU172     -0.2457
     86  N         48.6070   81.6620   41.2490 N.am  173  MET173     -0.1963
     87  CA        49.5470   81.7460   40.1580 C.3   173  MET173      0.1736
     88  C         51.0120   81.2840   40.3760 C.2   173  MET173      0.2616
     89  O         51.8000   81.4570   39.5160 O.2   173  MET173     -0.2715
     90  CB        49.4950   83.1720   39.5660 C.3   173  MET173      0.0427
     91  CG        48.1400   83.5730   39.1410 C.3   173  MET173      0.0599
     92  SD        48.0470   85.3720   38.8400 S.3   173  MET173     -0.1393
     93  CE        49.2170   85.5350   37.4860 C.3   173  MET173      0.0692
     94  N         51.3170   80.7570   41.5580 N.am  174  GLU174     -0.1977
     95  CA        52.6820   80.3530   41.8230 C.3   174  GLU174      0.1602
     96  C         52.9630   78.9780   42.4870 C.2   174  GLU174      0.2287
     97  O         53.9570   78.3860   42.3560 O.2   174  GLU174     -0.2864
     98  CB        53.2980   81.3790   42.7410 C.3   174  GLU174      0.0415
     99  CG        53.4250   82.7820   42.2210 C.3   174  GLU174      0.1163
    100  CD        52.2400   83.7050   42.5240 C.2   174  GLU174      0.3649
    101  OE1       52.0710   84.6500   41.7530 O.co2 174  GLU174     -0.2457
    102  OE2       51.5810   83.4830   43.5080 O.co2 174  GLU174     -0.2457
    103  N         47.5490   79.2450   52.1010 N.3   193  ARG193     -0.1245
    104  CA        47.1440   80.5840   51.5920 C.3   193  ARG193      0.1563
    105  C         45.7830   80.8820   52.1610 C.2   193  ARG193      0.2260
    106  O         45.1960   80.0470   52.8920 O.2   193  ARG193     -0.2867
    107  CB        47.0980   80.5420   50.0240 C.3   193  ARG193      0.0307
    108  CG        48.5570   80.5870   49.4340 C.3   193  ARG193      0.0489
    109  CD        48.4340   80.4280   47.8970 C.3   193  ARG193      0.2205
    110  NE        49.7320   80.5050   47.1970 N.pl3 193  ARG193     -0.0865
    111  CZ        50.1260   81.5890   46.5370 C.cat 193  ARG193      0.5346
    112  NH1       49.4060   82.7450   46.6290 N.pl3 193  ARG193      0.1354
    113  NH2       51.2660   81.5180   45.8280 N.pl3 193  ARG193      0.1354
    114  N         41.2030   85.6270   49.1180 N.3   196  SER196     -0.1202
    115  CA        40.9700   87.0740   48.9110 C.3   196  SER196      0.2020
    116  C         39.7010   87.3250   48.0280 C.2   196  SER196      0.2618
    117  O         39.2450   88.4710   47.8780 O.2   196  SER196     -0.2717
    118  CB        42.1900   87.6540   48.2290 C.3   196  SER196      0.2103
    119  OG        42.5700   86.8990   47.0600 O.3   196  SER196     -0.2182
    120  N         39.2520   86.2910   47.3200 N.am  197  ASP197     -0.1973
    121  CA        38.1520   86.4300   46.3810 C.3   197  ASP197      0.1709
    122  C         37.7300   85.0240   45.9870 C.2   197  ASP197      0.2293
    123  O         38.3750   84.0600   46.3880 O.2   197  ASP197     -0.2864
    124  CB        38.6330   87.2260   45.1360 C.3   197  ASP197      0.1436
    125  CG        39.8080   86.4780   44.3900 C.2   197  ASP197      0.3671
    126  OD1       39.5100   85.6000   43.5160 O.co2 197  ASP197     -0.2456
    127  OD2       40.9990   86.8090   44.7230 O.co2 197  ASP197     -0.2456
    128  N         37.2310   84.1370   42.6120 N.3   199  ALA199     -0.1245
    129  CA        37.6720   83.8700   41.2310 C.3   199  ALA199      0.1562
    130  C         36.4960   84.0100   40.2380 C.2   199  ALA199      0.2260
    131  O         36.5600   83.4990   39.0920 O.2   199  ALA199     -0.2867
    132  CB        38.3000   82.3900   41.1550 C.3   199  ALA199      0.0290
    133  N         39.4260   91.2490   45.4600 N.3   207  PHE207     -0.1241
    134  CA        40.8700   91.2870   45.7080 C.3   207  PHE207      0.1605
    135  C         41.3240   92.7350   46.1130 C.2   207  PHE207      0.2264
    136  O         42.0980   92.9000   47.0350 O.2   207  PHE207     -0.2867
    137  CB        41.5650   90.8490   44.4340 C.3   207  PHE207      0.0534
    138  CG        43.0580   90.7530   44.5870 C.ar  207  PHE207     -0.0203
    139  CD1       43.8660   91.8130   44.2460 C.ar  207  PHE207     -0.0042
    140  CD2       43.6040   89.5340   45.0070 C.ar  207  PHE207     -0.0042
    141  CE1       45.3180   91.7010   44.3410 C.ar  207  PHE207     -0.0003
    142  CE2       45.0790   89.4110   45.1220 C.ar  207  PHE207     -0.0003
    143  CZ        45.8890   90.5390   44.7960 C.ar  207  PHE207     -0.0000
@<TRIPOS>BOND
     1    50    47    1
     2    47    46    1
     3    47    48    1
     4    69    67    1
     5    54    53    2
     6    48    51   am
     7    48    49    2
     8    51    52    1
     9    53    52    1
    10    53    62   am
    11    63    62    1
    12    63    64    1
    13    63    66    1
    14    52    55    1
    15    68    66    1
    16    93    92    1
    17    67    66    1
    18    55    56    1
    19    64    65    2
    20    26    25    2
    21    57    56   ar
    22    57    59   ar
    23    92    91    1
    24    56    58   ar
    25    25    24    1
    26   131   130    2
    27    91    90    1
    28    29    27    1
    29    89    88    2
    30    90    87    1
    31    27    24    1
    32    27    28    1
    33    59    61   ar
    34    76    74    1
    35    80    79    2
    36    58    60   ar
    37    87    88    1
    38    87    86    1
    39    24    23    1
    40   130   129    1
    41    88    94   am
    42    28    30    1
    43    74    75    1
    44    74    71    1
    45    61    60   ar
    46    79    86   am
    47    79    78    1
    48   132   129    1
    49   129   128    1
    50    94    95    1
    51   101   100   ar
    52    95    96    1
    53    95    98    1
    54    77    78    1
    55    77    72   am
    56    78    81    1
    57    99   100    1
    58    99    98    1
    59    71    72    1
    60    71    70    1
    61    97    96    2
    62   100   102   ar
    63    72    73    2
    64    84    83   ar
    65   126   125   ar
    66    83    85   ar
    67    83    82    1
    68    81    82    1
    69   139   141   ar
    70   139   138   ar
    71   141   143   ar
    72   125   127   ar
    73   125   124    1
    74   137   138    1
    75   137   134    1
    76     5     2    1
    77   138   140   ar
    78    43    42    1
    79    43    44    1
    80    45    44    2
    81   143   142   ar
    82   140   142   ar
    83    42    39   am
    84    11    12    1
    85    11    10    1
    86    13    12    1
    87     4     3    2
    88   124   121    1
    89     2     3    1
    90     2     1    1
    91   133   134    1
    92     3     6   am
    93   134   135    1
    94   113   111    1
    95   122   121    1
    96   122   123    2
    97     6     7    1
    98     7    10    1
    99     7     8    1
   100   135   136    2
   101    39    38    1
   102    39    40    2
   103   121   120    1
   104   111   112    1
   105   111   110    2
   106    38    41    1
   107    38    37    1
   108    21    20   ar
   109    36    35    1
   110   119   118    1
   111   110   109    1
   112    34    33    2
   113   120   116   am
   114     8     9    2
   115    22    20   ar
   116    37    33   am
   117    20    19    1
   118    33    32    1
   119   117   116    2
   120   109   108    1
   121   116   115    1
   122   118   115    1
   123    35    32    1
   124    32    31    1
   125   115   114    1
   126    19    18    1
   127   108   107    1
   128    18    15    1
   129   107   104    1
   130    14    15    1
   131    15    16    1
   132   104   103    1
   133   104   105    1
   134    16    17    2
   135   105   106    2
