@<TRIPOS>MOLECULE
tmp/3o52B01.pdb
 99 89 0 0 0
SMALL
GASTEIGER

@<TRIPOS>ATOM
      1  N         71.6590   43.9220  108.5970 N.3    41  ARG41      -0.1245
      2  CA        70.2750   43.4760  108.7590 C.3    41  ARG41       0.1563
      3  C         70.0960   42.5960  109.9830 C.2    41  ARG41       0.2260
      4  O         69.1900   41.7730  110.0060 O.2    41  ARG41      -0.2867
      5  CB        69.6920   42.7970  107.4890 C.3    41  ARG41       0.0307
      6  CG        70.6850   42.3540  106.4730 C.3    41  ARG41       0.0489
      7  CD        70.0800   41.3440  105.5270 C.3    41  ARG41       0.2205
      8  NE        68.7030   41.6460  105.1830 N.pl3  41  ARG41      -0.0865
      9  CZ        67.6810   40.8240  105.3890 C.cat  41  ARG41       0.5346
     10  NH1       67.8640   39.6410  105.9350 N.pl3  41  ARG41       0.1354
     11  NH2       66.4720   41.1730  105.0290 N.pl3  41  ARG41       0.1354
     12  N         70.8700   36.0780  112.2340 N.3    44  GLY44      -0.1210
     13  CA        69.8040   35.1000  112.0260 C.3    44  GLY44       0.1956
     14  C         70.1420   33.7040  112.5220 C.2    44  GLY44       0.2611
     15  O         71.2220   33.4470  113.0960 O.2    44  GLY44      -0.2717
     16  N         69.2180   32.7810  112.3070 N.am   45  ALA45      -0.1979
     17  CA        69.4880   31.4120  112.6510 C.3    45  ALA45       0.1597
     18  C         68.7200   30.5650  111.6960 C.2    45  ALA45       0.2287
     19  O         67.6940   31.0100  111.1540 O.2    45  ALA45      -0.2864
     20  CB        69.0620   31.1170  114.0920 C.3    45  ALA45       0.0319
     21  N         60.7630   34.6420   97.3780 N.3    64  ARG64      -0.1245
     22  CA        61.8640   35.5020   97.8040 C.3    64  ARG64       0.1563
     23  C         62.2100   36.5760   96.7730 C.2    64  ARG64       0.2260
     24  O         62.8840   36.2880   95.7780 O.2    64  ARG64      -0.2867
     25  CB        63.0940   34.6370   98.1110 C.3    64  ARG64       0.0307
     26  CG        62.9910   33.7920   99.3500 C.3    64  ARG64       0.0489
     27  CD        63.0570   34.6390  100.6260 C.3    64  ARG64       0.2205
     28  NE        63.7790   33.9380  101.6910 N.pl3  64  ARG64      -0.0865
     29  CZ        63.7150   34.2370  102.9910 C.cat  64  ARG64       0.5346
     30  NH1       62.9200   35.2100  103.4330 N.pl3  64  ARG64       0.1354
     31  NH2       64.4430   33.5220  103.8590 N.pl3  64  ARG64       0.1354
     32  N         64.3630   26.3470  101.1410 N.3    79  GLU79      -0.1245
     33  CA        65.3670   26.6240  102.1400 C.3    79  GLU79       0.1567
     34  C         65.1280   25.7790  103.3820 C.2    79  GLU79       0.2260
     35  O         64.0300   25.2440  103.6060 O.2    79  GLU79      -0.2867
     36  CB        65.2800   28.0790  102.5880 C.3    79  GLU79       0.0388
     37  CG        65.5250   29.1620  101.5580 C.3    79  GLU79       0.1160
     38  CD        65.0700   30.5180  102.0820 C.2    79  GLU79       0.3649
     39  OE1       64.0290   31.0320  101.5930 O.co2  79  GLU79      -0.2457
     40  OE2       65.7370   31.0550  103.0190 O.co2  79  GLU79      -0.2457
     41  N         64.3250   29.1410  108.9200 N.3    82  ALA82      -0.1231
     42  CA        65.2190   30.2360  109.2750 C.3    82  ALA82       0.1694
     43  C         64.4560   31.4950  109.6470 C.2    82  ALA82       0.2593
     44  O         63.2650   31.6260  109.3410 O.2    82  ALA82      -0.2718
     45  CB        66.1850   30.5240  108.1610 C.3    82  ALA82       0.0304
     46  N         65.1530   32.4080  110.3310 N.am   83  GLY83      -0.1942
     47  CA        64.5930   33.6710  110.7420 C.3    83  GLY83       0.2014
     48  C         65.6130   34.5900  111.3840 C.2    83  GLY83       0.2638
     49  O         66.6930   34.1730  111.8220 O.2    83  GLY83      -0.2714
     50  N         65.2670   35.8630  111.4320 N.am   84  LEU84      -0.1977
     51  CA        66.1060   36.8320  112.0770 C.3    84  LEU84       0.1596
     52  C         65.9010   36.6880  113.5860 C.2    84  LEU84       0.2287
     53  O         64.7820   36.5090  114.0600 O.2    84  LEU84      -0.2864
     54  CB        65.7630   38.2470  111.5820 C.3    84  LEU84       0.0297
     55  CG        66.2640   38.5820  110.1610 C.3    84  LEU84       0.0022
     56  CD1       65.7730   39.9530  109.7100 C.3    84  LEU84       0.0001
     57  CD2       67.8050   38.4690  110.0380 C.3    84  LEU84       0.0001
     58  N         77.5240   34.8300  106.1960 N.3   117  MET117     -0.1245
     59  CA        77.1760   34.3490  104.8610 C.3   117  MET117      0.1570
     60  C         77.7470   35.1870  103.7470 C.2   117  MET117      0.2261
     61  O         78.1160   34.6560  102.7000 O.2   117  MET117     -0.2867
     62  CB        75.6680   34.2370  104.6940 C.3   117  MET117      0.0387
     63  CG        75.0490   33.0450  105.4470 C.3   117  MET117      0.0595
     64  SD        75.8770   31.4420  105.1730 S.3   117  MET117     -0.1393
     65  CE        76.4290   31.3120  106.8230 C.3   117  MET117      0.0692
     66  N         75.7850   40.0490  108.5310 N.3   124  GLU124     -0.1245
     67  CA        74.9590   38.9260  109.0060 C.3   124  GLU124      0.1567
     68  C         75.7120   37.6820  109.4680 C.2   124  GLU124      0.2260
     69  O         76.4880   37.0880  108.7030 O.2   124  GLU124     -0.2867
     70  CB        73.9990   38.5430  107.8800 C.3   124  GLU124      0.0388
     71  CG        72.9690   37.4880  108.2050 C.3   124  GLU124      0.1160
     72  CD        71.9700   37.3950  107.0780 C.2   124  GLU124      0.3649
     73  OE1       72.2200   36.6580  106.0640 O.co2 124  GLU124     -0.2457
     74  OE2       70.9500   38.1200  107.2030 O.co2 124  GLU124     -0.2457
     75  N         74.8610   33.8960  110.8280 N.3   126  ILE126     -0.1245
     76  CA        73.7980   32.9050  110.9290 C.3   126  ILE126      0.1561
     77  C         74.2300   31.8340  111.9050 C.2   126  ILE126      0.2260
     78  O         75.3440   31.3150  111.8180 O.2   126  ILE126     -0.2867
     79  CB        73.4920   32.2500  109.5510 C.3   126  ILE126      0.0252
     80  CG1       72.9390   33.2800  108.5580 C.3   126  ILE126      0.0019
     81  CG2       72.5070   31.0490  109.6760 C.3   126  ILE126      0.0019
     82  CD1       71.5670   33.7680  108.9250 C.3   126  ILE126      0.0001
     83  N         70.3340   27.2490   97.6580 N.3   159  ASP159     -0.1239
     84  CA        70.4320   28.2030   98.7450 C.3   159  ASP159      0.1674
     85  C         71.5570   27.8190   99.7050 C.2   159  ASP159      0.2266
     86  O         71.6190   26.6790  100.1870 O.2   159  ASP159     -0.2867
     87  CB        69.1210   28.2310   99.4900 C.3   159  ASP159      0.1410
     88  CG        69.2390   28.9600  100.7680 C.2   159  ASP159      0.3668
     89  OD1       69.0640   28.3160  101.8470 O.co2 159  ASP159     -0.2456
     90  OD2       69.5660   30.1700  100.6830 O.co2 159  ASP159     -0.2456
     91  N         72.7310   28.2650  102.9110 N.3   161  LYS161     -0.1245
     92  CA        72.5690   27.6610  104.2260 C.3   161  LYS161      0.1561
     93  C         71.9590   26.2660  104.1970 C.2   161  LYS161      0.2260
     94  O         72.2680   25.4250  105.0390 O.2   161  LYS161     -0.2867
     95  CB        71.7420   28.5750  105.1320 C.3   161  LYS161      0.0271
     96  CG        70.3800   28.9500  104.5690 C.3   161  LYS161      0.0035
     97  CD        69.6220   29.9310  105.5100 C.3   161  LYS161      0.0206
     98  CE        68.2050   30.1360  105.0040 C.3   161  LYS161      0.1093
     99  NZ        68.2200   30.5040  103.5180 N.3   161  LYS161     -0.1314
@<TRIPOS>BOND
     1    24    23    2
     2    23    22    1
     3    21    22    1
     4    83    84    1
     5    22    25    1
     6    25    26    1
     7    84    87    1
     8    84    85    1
     9    26    27    1
    10    87    88    1
    11    85    86    2
    12    27    28    1
    13    90    88   ar
    14    88    89   ar
    15    32    33    1
    16    37    38    1
    17    37    36    1
    18    39    38   ar
    19    28    29    2
    20    38    40   ar
    21    33    36    1
    22    33    34    1
    23    61    60    2
    24    91    92    1
    25    29    30    1
    26    29    31    1
    27    34    35    2
    28    99    98    1
    29    60    59    1
    30    93    92    1
    31    93    94    2
    32    92    95    1
    33    96    95    1
    34    96    97    1
    35    62    59    1
    36    62    63    1
    37    59    58    1
    38    98    97    1
    39    11     9    1
    40    64    63    1
    41    64    65    1
    42     8     9    2
    43     8     7    1
    44     9    10    1
    45     7     6    1
    46    73    72   ar
    47     6     5    1
    48    72    74   ar
    49    72    71    1
    50     5     2    1
    51    70    71    1
    52    70    67    1
    53    45    42    1
    54    66    67    1
    55    80    82    1
    56    80    79    1
    57     1     2    1
    58    69    68    2
    59     2     3    1
    60    41    42    1
    61    67    68    1
    62    42    43    1
    63    44    43    2
    64    79    81    1
    65    79    76    1
    66    43    46   am
    67    56    55    1
    68     3     4    2
    69    57    55    1
    70    55    54    1
    71    46    47    1
    72    47    48    1
    73    75    76    1
    74    76    77    1
    75    19    18    2
    76    48    50   am
    77    48    49    2
    78    50    51    1
    79    54    51    1
    80    18    17    1
    81    78    77    2
    82    13    12    1
    83    13    14    1
    84    51    52    1
    85    16    14   am
    86    16    17    1
    87    14    15    2
    88    17    20    1
    89    52    53    2
