@<TRIPOS>MOLECULE
tmp/3o56A00.pdb
 182 178 0 0 0
SMALL
GASTEIGER

@<TRIPOS>ATOM
      1  N         44.2820   36.2090   62.4110 N.3    81  TYR81      -0.1227
      2  CA        44.0160   37.3930   61.5720 C.3    81  TYR81       0.1736
      3  C         44.7240   37.3020   60.2300 C.2    81  TYR81       0.2595
      4  O         44.1280   37.5050   59.1890 O.2    81  TYR81      -0.2718
      5  CB        44.4500   38.6690   62.2920 C.3    81  TYR81       0.0548
      6  CG        44.1380   39.9270   61.5370 C.ar   81  TYR81      -0.0200
      7  CD1       45.0450   40.4510   60.6260 C.ar   81  TYR81      -0.0009
      8  CD2       42.9500   40.5960   61.7250 C.ar   81  TYR81      -0.0009
      9  CE1       44.7640   41.5990   59.8760 C.ar   81  TYR81       0.0417
     10  CE2       42.6710   41.7670   61.0360 C.ar   81  TYR81       0.0417
     11  CZ        43.5840   42.2530   60.0890 C.ar   81  TYR81       0.1957
     12  OH        43.3480   43.4110   59.4020 O.3    81  TYR81      -0.2866
     13  N         45.9950   36.9770   60.2850 N.am   82  HIS82      -0.1975
     14  CA        46.8760   37.0380   59.1540 C.3    82  HIS82       0.1656
     15  C         46.7870   35.7500   58.2910 C.2    82  HIS82       0.2291
     16  O         47.7870   35.1160   57.9920 O.2    82  HIS82      -0.2864
     17  CB        48.2980   37.3730   59.6410 C.3    82  HIS82       0.0771
     18  CG        48.5180   38.8480   59.8050 C.ar   82  HIS82       0.0820
     19  ND1       48.7480   39.4550   61.0230 N.ar   82  HIS82      -0.2267
     20  CD2       48.4930   39.8500   58.8840 C.ar   82  HIS82       0.1154
     21  CE1       48.8680   40.7620   60.8470 C.ar   82  HIS82       0.1986
     22  NE2       48.7040   41.0320   59.5550 N.ar   82  HIS82      -0.2212
     23  N         52.5100   34.2600   56.8600 N.3   126  HIS126     -0.1241
     24  CA        52.7090   35.0320   58.0760 C.3   126  HIS126      0.1621
     25  C         52.6320   34.0350   59.2580 C.2   126  HIS126      0.2264
     26  O         51.7070   33.2670   59.3510 O.2   126  HIS126     -0.2867
     27  CB        51.6210   36.1260   58.1600 C.3   126  HIS126      0.0745
     28  CG        51.9260   37.2250   59.1100 C.ar  126  HIS126      0.0817
     29  ND1       51.9510   37.0390   60.4790 N.ar  126  HIS126     -0.2268
     30  CD2       52.1710   38.5380   58.9020 C.ar  126  HIS126      0.1154
     31  CE1       52.2310   38.1870   61.0660 C.ar  126  HIS126      0.1986
     32  NE2       52.3650   39.1130   60.1350 N.ar  126  HIS126     -0.2212
     33  N         53.9220   47.9530   53.0710 N.3   193  THR193     -0.1218
     34  CA        52.9860   47.5270   54.1040 C.3   193  THR193      0.1862
     35  C         53.6620   47.3700   55.4870 C.2   193  THR193      0.2287
     36  O         52.9660   47.1230   56.4790 O.2   193  THR193     -0.2866
     37  CB        52.2910   46.2400   53.7230 C.3   193  THR193      0.1770
     38  OG1       53.1460   45.1210   53.9890 O.3   193  THR193     -0.2211
     39  CG2       51.8940   46.2570   52.2560 C.3   193  THR193      0.0375
     40  N         54.6970   48.3550   58.8480 N.3   195  MET195     -0.1245
     41  CA        54.2740   49.4670   59.7120 C.3   195  MET195      0.1570
     42  C         55.4430   50.3390   60.1100 C.2   195  MET195      0.2261
     43  O         55.2980   51.5460   60.1950 O.2   195  MET195     -0.2867
     44  CB        53.5110   49.0090   60.9700 C.3   195  MET195      0.0387
     45  CG        52.0370   48.7210   60.7360 C.3   195  MET195      0.0595
     46  SD        51.1960   50.0970   59.9240 S.3   195  MET195     -0.1393
     47  CE        51.2210   51.3030   61.2720 C.3   195  MET195      0.0692
     48  N         48.4230   50.2200   51.3370 N.3   237  HIS237     -0.1241
     49  CA        48.6390   50.4100   52.7470 C.3   237  HIS237      0.1621
     50  C         47.3030   50.7480   53.3670 C.2   237  HIS237      0.2264
     51  O         46.9310   50.2110   54.4260 O.2   237  HIS237     -0.2867
     52  CB        49.6830   51.5040   52.9680 C.3   237  HIS237      0.0745
     53  CG        50.0010   51.7470   54.4010 C.ar  237  HIS237      0.0817
     54  ND1       50.1190   50.7240   55.3160 N.ar  237  HIS237     -0.2268
     55  CD2       50.2210   52.8930   55.0840 C.ar  237  HIS237      0.1154
     56  CE1       50.3970   51.2310   56.5020 C.ar  237  HIS237      0.1986
     57  NE2       50.4610   52.5430   56.3910 N.ar  237  HIS237     -0.2212
     58  N         45.1620   47.6380   53.6080 N.3   240  ASP240     -0.1225
     59  CA        45.6160   46.8220   54.7460 C.3   240  ASP240      0.1805
     60  C         45.1040   47.4570   56.0800 C.2   240  ASP240      0.2597
     61  O         44.6490   46.7530   56.9640 O.2   240  ASP240     -0.2718
     62  CB        47.1380   46.7760   54.6950 C.3   240  ASP240      0.1424
     63  CG        47.7640   45.5910   55.4290 C.2   240  ASP240      0.3668
     64  OD1       47.1580   44.5090   55.6870 O.co2 240  ASP240     -0.2456
     65  OD2       48.9410   45.7940   55.7540 O.co2 240  ASP240     -0.2456
     66  N         45.1470   48.7820   56.1740 N.am  241  LEU241     -0.1979
     67  CA        44.5690   49.5260   57.2860 C.3   241  LEU241      0.1596
     68  C         43.1580   50.0080   57.0420 C.2   241  LEU241      0.2287
     69  O         42.8280   51.1560   57.3920 O.2   241  LEU241     -0.2864
     70  CB        45.4260   50.7620   57.5760 C.3   241  LEU241      0.0297
     71  CG        46.8960   50.5170   57.9330 C.3   241  LEU241      0.0022
     72  CD1       47.4880   51.7860   58.5000 C.3   241  LEU241      0.0001
     73  CD2       46.9910   49.3970   58.8980 C.3   241  LEU241      0.0001
     74  N         40.2370   47.8880   57.8890 N.3   243  ASN243     -0.1226
     75  CA        39.2050   47.2590   58.6980 C.3   243  ASN243      0.1770
     76  C         38.3090   48.2840   59.4090 C.2   243  ASN243      0.2439
     77  O         37.0880   48.1380   59.3790 O.2   243  ASN243     -0.2733
     78  CB        39.8000   46.3030   59.7490 C.3   243  ASN243      0.1168
     79  CG        40.5020   45.0760   59.1480 C.2   243  ASN243      0.2627
     80  OD1       41.2120   44.3740   59.8800 O.2   243  ASN243     -0.2716
     81  ND2       40.3280   44.8220   57.8260 N.am  243  ASN243     -0.0877
     82  N         38.9000   49.3180   60.0670 N.am  244  PRO244     -0.2729
     83  CA        38.0350   50.2640   60.7820 C.3   244  PRO244      0.1401
     84  C         37.1500   51.1240   59.8900 C.2   244  PRO244      0.2269
     85  O         36.2320   51.7620   60.3880 O.2   244  PRO244     -0.2865
     86  CB        39.0310   51.1330   61.5820 C.3   244  PRO244      0.0296
     87  CG        40.1880   50.3130   61.7420 C.3   244  PRO244      0.0237
     88  CD        40.3040   49.5600   60.4340 C.3   244  PRO244      0.0939
     89  N         34.0500   45.2780   61.1500 N.3   251  TYR251     -0.1241
     90  CA        35.1430   45.7720   61.9570 C.3   251  TYR251      0.1605
     91  C         35.2860   44.9800   63.2520 C.2   251  TYR251      0.2264
     92  O         36.3750   44.5830   63.6200 O.2   251  TYR251     -0.2867
     93  CB        34.9120   47.2330   62.2410 C.3   251  TYR251      0.0534
     94  CG        35.9760   47.9730   63.0300 C.ar  251  TYR251     -0.0201
     95  CD1       37.2660   47.4570   63.2350 C.ar  251  TYR251     -0.0009
     96  CD2       35.6940   49.2280   63.5400 C.ar  251  TYR251     -0.0009
     97  CE1       38.2210   48.1790   63.9530 C.ar  251  TYR251      0.0417
     98  CE2       36.6460   49.9500   64.2300 C.ar  251  TYR251      0.0417
     99  CZ        37.8980   49.4220   64.4330 C.ar  251  TYR251      0.1957
    100  OH        38.7950   50.1810   65.1110 O.3   251  TYR251     -0.2866
    101  N         36.9370   41.5490   62.6990 N.3   254  TRP254     -0.1227
    102  CA        38.3210   41.7100   62.3800 C.3   254  TRP254      0.1737
    103  C         39.1000   42.0180   63.6470 C.2   254  TRP254      0.2596
    104  O         40.1350   41.4120   63.9080 O.2   254  TRP254     -0.2718
    105  CB        38.5190   42.8660   61.4140 C.3   254  TRP254      0.0564
    106  CG        38.1260   42.6260   60.0130 C.ar  254  TRP254      0.0003
    107  CD1       37.3150   43.4120   59.2720 C.ar  254  TRP254      0.0946
    108  CD2       38.5570   41.5650   59.1490 C.ar  254  TRP254      0.0152
    109  NE1       37.1900   42.9060   58.0140 N.ar  254  TRP254     -0.2442
    110  CE2       37.9440   41.7720   57.9070 C.ar  254  TRP254      0.0810
    111  CE3       39.3960   40.4620   59.3070 C.ar  254  TRP254      0.0012
    112  CZ2       38.1480   40.9250   56.8130 C.ar  254  TRP254      0.0191
    113  CZ3       39.5790   39.6060   58.2280 C.ar  254  TRP254      0.0001
    114  CH2       38.9570   39.8530   56.9920 C.ar  254  TRP254      0.0015
    115  N         38.6150   43.0070   64.3870 N.am  255  THR255     -0.1953
    116  CA        39.1590   43.3660   65.6870 C.3   255  THR255      0.1897
    117  C         39.2920   42.1520   66.5930 C.2   255  THR255      0.2313
    118  O         40.3740   41.8620   67.0870 O.2   255  THR255     -0.2863
    119  CB        38.2890   44.4030   66.3610 C.3   255  THR255      0.1794
    120  OG1       38.4570   45.6570   65.6740 O.3   255  THR255     -0.2208
    121  CG2       38.6570   44.5140   67.8490 C.3   255  THR255      0.0378
    122  N         42.3950   39.9590   65.2670 N.3   258  ILE258     -0.1231
    123  CA        43.7200   40.4540   65.4570 C.3   258  ILE258      0.1692
    124  C         44.1320   40.4170   66.9490 C.2   258  ILE258      0.2591
    125  O         45.2680   40.0140   67.2580 O.2   258  ILE258     -0.2718
    126  CB        43.8870   41.8530   64.8640 C.3   258  ILE258      0.0266
    127  CG1       45.3250   41.9730   64.3210 C.3   258  ILE258      0.0019
    128  CG2       43.4810   42.9130   65.8880 C.3   258  ILE258      0.0020
    129  CD1       45.7150   43.3090   63.9040 C.3   258  ILE258      0.0001
    130  N         43.2140   40.7750   67.8600 N.am  259  MET259     -0.1979
    131  CA        43.4680   40.6190   69.3010 C.3   259  MET259      0.1605
    132  C         43.7300   39.1700   69.6540 C.2   259  MET259      0.2287
    133  O         44.5570   38.8800   70.5150 O.2   259  MET259     -0.2864
    134  CB        42.3010   41.1300   70.1710 C.3   259  MET259      0.0413
    135  CG        41.9550   42.5870   70.0230 C.3   259  MET259      0.0598
    136  SD        43.4050   43.6170   69.8700 S.3   259  MET259     -0.1393
    137  CE        44.2650   43.2550   71.3960 C.3   259  MET259      0.0692
    138  N         47.4140   38.7030   68.4890 N.3   262  PHE262     -0.1241
    139  CA        48.2260   39.4590   69.4450 C.3   262  PHE262      0.1605
    140  C         48.3420   38.8040   70.8370 C.2   262  PHE262      0.2264
    141  O         49.4310   38.7370   71.3840 O.2   262  PHE262     -0.2867
    142  CB        47.6260   40.8460   69.6380 C.3   262  PHE262      0.0534
    143  CG        47.8910   41.7960   68.5230 C.ar  262  PHE262     -0.0203
    144  CD1       48.5460   41.4020   67.3490 C.ar  262  PHE262     -0.0042
    145  CD2       47.4500   43.0980   68.6290 C.ar  262  PHE262     -0.0042
    146  CE1       48.7740   42.2980   66.3240 C.ar  262  PHE262     -0.0003
    147  CE2       47.6590   44.0220   67.5830 C.ar  262  PHE262     -0.0003
    148  CZ        48.3250   43.6190   66.4410 C.ar  262  PHE262     -0.0000
    149  N         50.4590   45.5880   74.1310 N.3   279  MET279     -0.1245
    150  CA        49.2130   45.3500   73.3970 C.3   279  MET279      0.1570
    151  C         48.9610   43.8530   73.1530 C.2   279  MET279      0.2261
    152  O         47.8730   43.4600   72.7150 O.2   279  MET279     -0.2867
    153  CB        49.2100   46.1370   72.0830 C.3   279  MET279      0.0387
    154  CG        47.9560   46.9650   71.8670 C.3   279  MET279      0.0595
    155  SD        48.3540   48.5730   71.1270 S.3   279  MET279     -0.1393
    156  CE        49.2540   49.3630   72.4810 C.3   279  MET279      0.0692
    157  N         42.5960   49.9040   72.4630 N.3   290  SER290     -0.1202
    158  CA        43.4910   49.5970   71.3550 C.3   290  SER290      0.2020
    159  C         42.9590   50.1280   70.0200 C.2   290  SER290      0.2618
    160  O         43.6800   50.8000   69.2860 O.2   290  SER290     -0.2717
    161  CB        43.6940   48.0850   71.2640 C.3   290  SER290      0.2103
    162  OG        44.2540   47.5950   72.4770 O.3   290  SER290     -0.2182
    163  N         41.6910   49.8560   69.7310 N.am  291  GLN291     -0.1979
    164  CA        41.0580   50.3600   68.5080 C.3   291  GLN291      0.1601
    165  C         40.8910   51.8680   68.4640 C.2   291  GLN291      0.2287
    166  O         41.1140   52.4800   67.4190 O.2   291  GLN291     -0.2864
    167  CB        39.7150   49.6750   68.2820 C.3   291  GLN291      0.0394
    168  CG        39.8400   48.1820   67.9750 C.3   291  GLN291      0.0908
    169  CD        40.9080   47.9200   66.9440 C.2   291  GLN291      0.2608
    170  OE1       40.9990   48.6330   65.9690 O.2   291  GLN291     -0.2717
    171  NE2       41.7320   46.9150   67.1680 N.am  291  GLN291     -0.0878
    172  N         44.3450   53.0170   67.8920 N.3   294  PHE294     -0.1241
    173  CA        44.7510   52.7000   66.5080 C.3   294  PHE294      0.1605
    174  C         44.1660   53.6790   65.5060 C.2   294  PHE294      0.2264
    175  O         44.8850   54.2140   64.6440 O.2   294  PHE294     -0.2867
    176  CB        44.3640   51.2580   66.1340 C.3   294  PHE294      0.0534
    177  CG        45.0010   50.7670   64.8720 C.ar  294  PHE294     -0.0203
    178  CD1       46.3720   50.8430   64.6970 C.ar  294  PHE294     -0.0042
    179  CD2       44.2280   50.2200   63.8530 C.ar  294  PHE294     -0.0042
    180  CE1       46.9630   50.3960   63.5300 C.ar  294  PHE294     -0.0003
    181  CE2       44.8090   49.7630   62.6890 C.ar  294  PHE294     -0.0003
    182  CZ        46.1770   49.8550   62.5240 C.ar  294  PHE294     -0.0000
@<TRIPOS>BOND
     1    48    49    1
     2    39    37    1
     3    49    52    1
     4    49    50    1
     5    52    53    1
     6    33    34    1
     7    50    51    2
     8    58    59    1
     9    37    38    1
    10    37    34    1
    11    34    35    1
    12    53    55   ar
    13    53    54   ar
    14    62    59    1
    15    62    63    1
    16    59    60    1
    17    55    57   ar
    18    54    56   ar
    19    63    64   ar
    20    63    65   ar
    21    35    36    2
    22    60    66   am
    23    60    61    2
    24    66    67    1
    25    57    56   ar
    26   112   114   ar
    27   112   110   ar
    28    23    24    1
    29   114   113   ar
    30    68    67    1
    31    68    69    2
    32    67    70    1
    33    70    71    1
    34    81    79   am
    35    74    75    1
    36   110   109   ar
    37   110   108   ar
    38    71    72    1
    39    71    73    1
    40    16    15    2
    41   109   107   ar
    42    24    27    1
    43    24    25    1
    44    27    28    1
    45   113   111   ar
    46    15    14    1
    47    75    76    1
    48    75    78    1
    49    40    41    1
    50    20    22   ar
    51    20    18   ar
    52    30    28   ar
    53    30    32   ar
    54    28    29   ar
    55    79    78    1
    56    79    80    2
    57   108   111   ar
    58   108   106   ar
    59    14    17    1
    60    14    13    1
    61     4     3    2
    62    25    26    2
    63   107   106   ar
    64    77    76    2
    65    12    11    1
    66    76    82   am
    67    22    21   ar
    68    17    18    1
    69    41    42    1
    70    41    44    1
    71    18    19   ar
    72     9    11   ar
    73     9     7   ar
    74    84    85    2
    75    84    83    1
    76    46    45    1
    77    46    47    1
    78   106   105    1
    79    82    88    1
    80    82    83    1
    81    11    10   ar
    82    42    43    2
    83    32    31   ar
    84     3    13   am
    85     3     2    1
    86    88    87    1
    87    29    31   ar
    88     7     6   ar
    89    45    44    1
    90    83    86    1
    91    21    19   ar
    92    10     8   ar
    93    89    90    1
    94   105   102    1
    95     6     8   ar
    96     6     5    1
    97     2     5    1
    98     2     1    1
    99    86    87    1
   100    90    93    1
   101    90    91    1
   102    93    94    1
   103   102   101    1
   104   102   103    1
   105   182   181   ar
   106   182   180   ar
   107   181   179   ar
   108    94    95   ar
   109    94    96   ar
   110    95    97   ar
   111    91    92    2
   112   180   178   ar
   113    96    98   ar
   114   103   104    2
   115   103   115   am
   116   179   177   ar
   117   129   127    1
   118    97    99   ar
   119    98    99   ar
   120   127   126    1
   121   115   116    1
   122    99   100    1
   123   175   174    2
   124   178   177   ar
   125   126   123    1
   126   126   128    1
   127   177   176    1
   128   122   123    1
   129   123   124    1
   130   174   173    1
   131   120   119    1
   132   116   119    1
   133   116   117    1
   134   170   169    2
   135   176   173    1
   136   146   148   ar
   137   146   144   ar
   138   119   121    1
   139   148   147   ar
   140   173   172    1
   141   117   118    2
   142   169   171   am
   143   169   168    1
   144   124   125    2
   145   124   130   am
   146   144   143   ar
   147   166   165    2
   148   147   145   ar
   149   130   131    1
   150   168   167    1
   151   167   164    1
   152   165   164    1
   153   138   139    1
   154   164   163    1
   155   143   145   ar
   156   143   142    1
   157   160   159    2
   158   131   132    1
   159   131   134    1
   160   139   142    1
   161   139   140    1
   162   132   133    2
   163   163   159   am
   164   136   135    1
   165   136   137    1
   166   159   158    1
   167   135   134    1
   168   140   141    2
   169   155   154    1
   170   155   156    1
   171   161   158    1
   172   161   162    1
   173   158   157    1
   174   154   153    1
   175   153   150    1
   176   152   151    2
   177   151   150    1
   178   150   149    1
