@<TRIPOS>MOLECULE
tmp/3o57A00.pdb
 206 202 0 0 0
SMALL
GASTEIGER

@<TRIPOS>ATOM
      1  N         44.3680   36.3030   62.8810 N.3    82  TYR82      -0.1227
      2  CA        44.0940   37.4110   62.0490 C.3    82  TYR82       0.1736
      3  C         44.7850   37.3390   60.6610 C.2    82  TYR82       0.2595
      4  O         44.1310   37.5200   59.6270 O.2    82  TYR82      -0.2718
      5  CB        44.5050   38.6770   62.7800 C.3    82  TYR82       0.0548
      6  CG        44.2370   39.9080   61.9890 C.ar   82  TYR82      -0.0200
      7  CD1       43.0230   40.5540   62.0710 C.ar   82  TYR82      -0.0009
      8  CD2       45.2160   40.4530   61.1720 C.ar   82  TYR82      -0.0009
      9  CE1       42.7740   41.7050   61.3690 C.ar   82  TYR82       0.0417
     10  CE2       44.9650   41.5920   60.4340 C.ar   82  TYR82       0.0417
     11  CZ        43.7160   42.2090   60.5320 C.ar   82  TYR82       0.1957
     12  OH        43.4400   43.3780   59.8080 O.3    82  TYR82      -0.2866
     13  N         46.1040   37.1730   60.6770 N.am   83  HIS83      -0.1975
     14  CA        46.9200   37.2020   59.4510 C.3    83  HIS83       0.1656
     15  C         46.8130   35.8540   58.6960 C.2    83  HIS83       0.2291
     16  O         47.8210   35.2150   58.4240 O.2    83  HIS83      -0.2864
     17  CB        48.3840   37.5810   59.7790 C.3    83  HIS83       0.0771
     18  CG        48.5560   39.0210   60.2180 C.ar   83  HIS83       0.0820
     19  ND1       48.7520   39.3790   61.5300 N.ar   83  HIS83      -0.2267
     20  CD2       48.5020   40.1840   59.5240 C.ar   83  HIS83       0.1154
     21  CE1       48.8440   40.6940   61.6260 C.ar   83  HIS83       0.1986
     22  NE2       48.7000   41.2100   60.4230 N.ar   83  HIS83      -0.2212
     23  N         52.5940   34.3210   57.1530 N.3   127  HIS127     -0.1241
     24  CA        52.7480   35.0920   58.4070 C.3   127  HIS127      0.1621
     25  C         52.6280   34.1100   59.5740 C.2   127  HIS127      0.2264
     26  O         51.6690   33.3660   59.6310 O.2   127  HIS127     -0.2867
     27  CB        51.6390   36.1300   58.5200 C.3   127  HIS127      0.0745
     28  CG        51.9130   37.2150   59.5090 C.ar  127  HIS127      0.0817
     29  ND1       52.0320   36.9780   60.8620 N.ar  127  HIS127     -0.2268
     30  CD2       52.1060   38.5490   59.3380 C.ar  127  HIS127      0.1154
     31  CE1       52.2850   38.1250   61.4790 C.ar  127  HIS127      0.1986
     32  NE2       52.3450   39.0900   60.5750 N.ar  127  HIS127     -0.2212
     33  N         53.9180   48.1210   53.6520 N.3   194  THR194     -0.1218
     34  CA        52.9810   47.6910   54.6540 C.3   194  THR194      0.1862
     35  C         53.6630   47.4760   56.0270 C.2   194  THR194      0.2287
     36  O         52.9790   47.2110   57.0050 O.2   194  THR194     -0.2866
     37  CB        52.1650   46.4140   54.2090 C.3   194  THR194      0.1770
     38  OG1       53.0310   45.2850   54.1040 O.3   194  THR194     -0.2211
     39  CG2       51.5120   46.6510   52.8460 C.3   194  THR194      0.0375
     40  N         54.7070   48.4410   59.4270 N.3   196  MET196     -0.1245
     41  CA        54.2480   49.5840   60.2580 C.3   196  MET196      0.1570
     42  C         55.3940   50.4900   60.7260 C.2   196  MET196      0.2261
     43  O         55.1810   51.6680   60.9830 O.2   196  MET196     -0.2867
     44  CB        53.4340   49.1230   61.4770 C.3   196  MET196      0.0387
     45  CG        51.9350   48.8930   61.2040 C.3   196  MET196      0.0595
     46  SD        51.1180   50.2580   60.3470 S.3   196  MET196     -0.1393
     47  CE        50.8210   51.3920   61.7140 C.3   196  MET196      0.0692
     48  N         48.5120   50.2510   51.7370 N.3   238  HIS238     -0.1241
     49  CA        48.6070   50.5460   53.1600 C.3   238  HIS238      0.1621
     50  C         47.2530   50.8920   53.7650 C.2   238  HIS238      0.2264
     51  O         46.8880   50.3870   54.8420 O.2   238  HIS238     -0.2867
     52  CB        49.6350   51.6890   53.3780 C.3   238  HIS238      0.0745
     53  CG        49.9410   51.9700   54.8080 C.ar  238  HIS238      0.0817
     54  ND1       50.2400   50.9760   55.7120 N.ar  238  HIS238     -0.2268
     55  CD2       49.9760   53.1300   55.5030 C.ar  238  HIS238      0.1154
     56  CE1       50.4460   51.5080   56.9000 C.ar  238  HIS238      0.1986
     57  NE2       50.3020   52.8130   56.8040 N.ar  238  HIS238     -0.2212
     58  N         45.1850   47.7770   53.9610 N.3   241  ASP241     -0.1225
     59  CA        45.6770   46.9500   55.0940 C.3   241  ASP241      0.1805
     60  C         45.1240   47.4990   56.4030 C.2   241  ASP241      0.2597
     61  O         44.7870   46.7280   57.3010 O.2   241  ASP241     -0.2718
     62  CB        47.1840   47.0150   55.0970 C.3   241  ASP241      0.1424
     63  CG        47.8630   45.9060   55.8530 C.2   241  ASP241      0.3668
     64  OD1       47.3140   44.8160   56.0810 O.co2 241  ASP241     -0.2456
     65  OD2       49.0670   46.1440   56.1710 O.co2 241  ASP241     -0.2456
     66  N         45.0150   48.8250   56.4950 N.am  242  LEU242     -0.1979
     67  CA        44.4740   49.5080   57.6690 C.3   242  LEU242      0.1596
     68  C         43.0230   49.9700   57.4550 C.2   242  LEU242      0.2287
     69  O         42.6260   51.0590   57.9290 O.2   242  LEU242     -0.2864
     70  CB        45.3670   50.7280   57.9940 C.3   242  LEU242      0.0297
     71  CG        46.8300   50.4150   58.3220 C.3   242  LEU242      0.0022
     72  CD1       47.5390   51.6540   58.7240 C.3   242  LEU242      0.0001
     73  CD2       46.8910   49.3880   59.4050 C.3   242  LEU242      0.0001
     74  N         40.1420   47.9880   58.3040 N.3   244  ASN244     -0.1226
     75  CA        39.1110   47.3260   59.0690 C.3   244  ASN244      0.1770
     76  C         38.2280   48.3420   59.8530 C.2   244  ASN244      0.2439
     77  O         37.0280   48.1140   60.0210 O.2   244  ASN244     -0.2733
     78  CB        39.6400   46.3700   60.1270 C.3   244  ASN244      0.1168
     79  CG        40.4430   45.1720   59.5710 C.2   244  ASN244      0.2627
     80  OD1       41.1470   44.5470   60.3350 O.2   244  ASN244     -0.2716
     81  ND2       40.3590   44.8890   58.2680 N.am  244  ASN244     -0.0877
     82  N         38.8570   49.3900   60.4360 N.am  245  PRO245     -0.2729
     83  CA        38.0310   50.3210   61.2450 C.3   245  PRO245      0.1401
     84  C         37.0910   51.2010   60.4450 C.2   245  PRO245      0.2269
     85  O         36.1830   51.8160   61.0360 O.2   245  PRO245     -0.2865
     86  CB        39.0670   51.1660   61.9940 C.3   245  PRO245      0.0296
     87  CG        40.3290   50.2700   62.0490 C.3   245  PRO245      0.0237
     88  CD        40.2950   49.6020   60.6740 C.3   245  PRO245      0.0939
     89  N         34.0440   45.3100   61.4890 N.3   252  TYR252     -0.1241
     90  CA        35.1190   45.8180   62.3490 C.3   252  TYR252      0.1605
     91  C         35.2320   45.0490   63.6510 C.2   252  TYR252      0.2264
     92  O         36.3230   44.6380   64.0460 O.2   252  TYR252     -0.2867
     93  CB        34.8780   47.2940   62.6220 C.3   252  TYR252      0.0534
     94  CG        35.9520   48.0370   63.4100 C.ar  252  TYR252     -0.0201
     95  CD1       37.2680   47.5380   63.5460 C.ar  252  TYR252     -0.0009
     96  CD2       35.6600   49.2890   63.9640 C.ar  252  TYR252     -0.0009
     97  CE1       38.2280   48.2300   64.2660 C.ar  252  TYR252      0.0417
     98  CE2       36.6180   49.9990   64.6710 C.ar  252  TYR252      0.0417
     99  CZ        37.8970   49.4700   64.8170 C.ar  252  TYR252      0.1957
    100  OH        38.8160   50.2020   65.4820 O.3   252  TYR252     -0.2866
    101  N         36.8560   41.6880   63.0940 N.3   255  TRP255     -0.1227
    102  CA        38.2720   41.9080   62.8300 C.3   255  TRP255      0.1737
    103  C         39.0710   42.1920   64.1170 C.2   255  TRP255      0.2596
    104  O         40.0800   41.5550   64.3730 O.2   255  TRP255     -0.2718
    105  CB        38.4990   43.0510   61.8650 C.3   255  TRP255      0.0564
    106  CG        38.1060   42.7790   60.4520 C.ar  255  TRP255      0.0003
    107  CD1       37.3290   43.5650   59.6720 C.ar  255  TRP255      0.0946
    108  CD2       38.5610   41.7020   59.6080 C.ar  255  TRP255      0.0152
    109  NE1       37.2020   43.0110   58.4060 N.ar  255  TRP255     -0.2442
    110  CE2       37.9390   41.8640   58.3470 C.ar  255  TRP255      0.0810
    111  CE3       39.3970   40.6050   59.8040 C.ar  255  TRP255      0.0012
    112  CZ2       38.1440   40.9720   57.2680 C.ar  255  TRP255      0.0191
    113  CZ3       39.5790   39.6930   58.7120 C.ar  255  TRP255      0.0001
    114  CH2       38.9710   39.9040   57.4790 C.ar  255  TRP255      0.0015
    115  N         38.5870   43.1440   64.9270 N.am  256  THR256     -0.1953
    116  CA        39.1640   43.4050   66.2660 C.3   256  THR256      0.1897
    117  C         39.3110   42.1840   67.1110 C.2   256  THR256      0.2313
    118  O         40.3760   41.9200   67.6410 O.2   256  THR256     -0.2863
    119  CB        38.3420   44.4390   67.0450 C.3   256  THR256      0.1794
    120  OG1       38.4120   45.6750   66.3500 O.3   256  THR256     -0.2208
    121  CG2       38.9060   44.6170   68.4700 C.3   256  THR256      0.0378
    122  N         42.3530   40.1560   65.6910 N.3   259  ILE259     -0.1231
    123  CA        43.6860   40.6600   65.9190 C.3   259  ILE259      0.1692
    124  C         44.0970   40.5690   67.3900 C.2   259  ILE259      0.2591
    125  O         45.2900   40.3690   67.6780 O.2   259  ILE259     -0.2718
    126  CB        43.9530   42.0250   65.3080 C.3   259  ILE259      0.0266
    127  CG1       45.4760   42.1570   65.0670 C.3   259  ILE259      0.0019
    128  CG2       43.3750   43.1900   66.1780 C.3   259  ILE259      0.0020
    129  CD1       45.8290   43.2040   64.0860 C.3   259  ILE259      0.0001
    130  N         43.1130   40.6160   68.3080 N.am  260  MET260     -0.1979
    131  CA        43.4250   40.5510   69.7520 C.3   260  MET260      0.1605
    132  C         43.6430   39.1330   70.1770 C.2   260  MET260      0.2287
    133  O         44.5020   38.8560   71.0160 O.2   260  MET260     -0.2864
    134  CB        42.3220   41.2250   70.6190 C.3   260  MET260      0.0413
    135  CG        42.1990   42.7340   70.4600 C.3   260  MET260      0.0598
    136  SD        43.7130   43.7420   70.4490 S.3   260  MET260     -0.1393
    137  CE        44.3020   43.4490   72.1280 C.3   260  MET260      0.0692
    138  N         47.2900   38.7890   68.9320 N.3   263  PHE263     -0.1241
    139  CA        48.1640   39.5590   69.8060 C.3   263  PHE263      0.1605
    140  C         48.2940   38.9330   71.1770 C.2   263  PHE263      0.2264
    141  O         49.4120   38.7040   71.6490 O.2   263  PHE263     -0.2867
    142  CB        47.7120   41.0050   69.9430 C.3   263  PHE263      0.0534
    143  CG        47.9730   41.8570   68.7660 C.ar  263  PHE263     -0.0203
    144  CD1       48.7560   41.4350   67.7060 C.ar  263  PHE263     -0.0042
    145  CD2       47.4270   43.1290   68.7170 C.ar  263  PHE263     -0.0042
    146  CE1       48.9810   42.2610   66.6170 C.ar  263  PHE263     -0.0003
    147  CE2       47.6470   43.9670   67.6480 C.ar  263  PHE263     -0.0003
    148  CZ        48.4360   43.5290   66.5760 C.ar  263  PHE263     -0.0000
    149  N         50.4490   45.7760   74.7390 N.3   280  MET280     -0.1245
    150  CA        49.2150   45.5650   73.9700 C.3   280  MET280      0.1570
    151  C         48.9250   44.0830   73.7080 C.2   280  MET280      0.2261
    152  O         47.8030   43.7390   73.3010 O.2   280  MET280     -0.2867
    153  CB        49.2690   46.3110   72.6390 C.3   280  MET280      0.0387
    154  CG        49.4630   47.8300   72.7760 C.3   280  MET280      0.0595
    155  SD        47.9440   48.8360   72.6410 S.3   280  MET280     -0.1393
    156  CE        46.9730   48.1310   73.9800 C.3   280  MET280      0.0692
    157  N         42.6390   50.1140   72.9740 N.3   291  SER291     -0.1202
    158  CA        43.5880   49.8680   71.8830 C.3   291  SER291      0.2020
    159  C         43.0540   50.3330   70.5360 C.2   291  SER291      0.2618
    160  O         43.7540   51.0020   69.7760 O.2   291  SER291     -0.2717
    161  CB        43.9400   48.3980   71.8790 C.3   291  SER291      0.2103
    162  OG        44.5400   48.0950   73.1170 O.3   291  SER291     -0.2182
    163  N         41.7700   50.0850   70.2880 N.am  292  GLN292     -0.1979
    164  CA        41.1380   50.5320   69.0540 C.3   292  GLN292      0.1601
    165  C         40.9800   52.0410   69.0380 C.2   292  GLN292      0.2287
    166  O         41.3320   52.6950   68.0640 O.2   292  GLN292     -0.2864
    167  CB        39.7950   49.8080   68.8430 C.3   292  GLN292      0.0394
    168  CG        39.9340   48.2940   68.5720 C.3   292  GLN292      0.0908
    169  CD        40.9750   48.0030   67.4850 C.2   292  GLN292      0.2608
    170  OE1       40.9210   48.5620   66.3920 O.2   292  GLN292     -0.2717
    171  NE2       41.9570   47.1800   67.8130 N.am  292  GLN292     -0.0878
    172  N         42.7720   54.1250   70.6480 N.3   294  GLY294     -0.1210
    173  CA        44.1710   54.5630   70.4710 C.3   294  GLY294      0.1956
    174  C         44.6470   54.3720   69.0390 C.2   294  GLY294      0.2611
    175  O         45.1660   55.2900   68.4360 O.2   294  GLY294     -0.2717
    176  N         44.4360   53.1630   68.5010 N.am  295  PHE295     -0.1976
    177  CA        44.8610   52.8660   67.1250 C.3   295  PHE295      0.1639
    178  C         44.2240   53.7860   66.1100 C.2   295  PHE295      0.2290
    179  O         44.8900   54.2620   65.2070 O.2   295  PHE295     -0.2864
    180  CB        44.5780   51.4040   66.7480 C.3   295  PHE295      0.0560
    181  CG        45.3330   50.9470   65.5130 C.ar  295  PHE295     -0.0200
    182  CD1       46.7220   51.0730   65.4470 C.ar  295  PHE295     -0.0042
    183  CD2       44.6600   50.3780   64.4210 C.ar  295  PHE295     -0.0042
    184  CE1       47.4330   50.6480   64.2970 C.ar  295  PHE295     -0.0003
    185  CE2       45.3610   49.9590   63.2830 C.ar  295  PHE295     -0.0003
    186  CZ        46.7500   50.0990   63.2290 C.ar  295  PHE295     -0.0000
    187  N         45.6190   57.5720   66.7830 N.3   298  TYR298     -0.1227
    188  CA        47.0340   57.7710   66.4860 C.3   298  TYR298      0.1736
    189  C         47.4840   57.3290   65.1150 C.2   298  TYR298      0.2595
    190  O         48.4380   57.8960   64.5820 O.2   298  TYR298     -0.2718
    191  CB        47.8830   57.1420   67.6050 C.3   298  TYR298      0.0548
    192  CG        47.6370   57.8670   68.9210 C.ar  298  TYR298     -0.0200
    193  CD1       48.0160   59.2020   69.0720 C.ar  298  TYR298     -0.0009
    194  CD2       46.9790   57.2480   69.9880 C.ar  298  TYR298     -0.0009
    195  CE1       47.7820   59.8900   70.2740 C.ar  298  TYR298      0.0417
    196  CE2       46.7330   57.9260   71.1810 C.ar  298  TYR298      0.0417
    197  CZ        47.1450   59.2460   71.3170 C.ar  298  TYR298      0.1957
    198  OH        46.9200   59.9250   72.4950 O.3   298  TYR298     -0.2866
    199  N         46.7820   56.3640   64.5030 N.am  299  ILE299     -0.1980
    200  CA        47.2550   55.7860   63.2400 C.3   299  ILE299      0.1595
    201  C         46.2010   55.7860   62.0990 C.2   299  ILE299      0.2287
    202  O         46.4490   56.3130   61.0370 O.2   299  ILE299     -0.2864
    203  CB        47.7790   54.3440   63.4730 C.3   299  ILE299      0.0276
    204  CG1       49.0060   54.3500   64.4110 C.3   299  ILE299      0.0022
    205  CG2       48.1310   53.6690   62.1360 C.3   299  ILE299      0.0022
    206  CD1       50.3270   54.7780   63.7220 C.3   299  ILE299      0.0001
@<TRIPOS>BOND
     1    48    49    1
     2    39    37    1
     3    49    52    1
     4    49    50    1
     5    52    53    1
     6    33    34    1
     7    50    51    2
     8    58    59    1
     9    38    37    1
    10    37    34    1
    11    34    35    1
    12    53    55   ar
    13    53    54   ar
    14    59    62    1
    15    59    60    1
    16    62    63    1
    17    55    57   ar
    18    54    56   ar
    19    63    64   ar
    20    63    65   ar
    21    35    36    2
    22    60    66   am
    23    60    61    2
    24    66    67    1
    25    57    56   ar
    26    23    24    1
    27   112   114   ar
    28   112   110   ar
    29    68    67    1
    30    68    69    2
    31   114   113   ar
    32    67    70    1
    33    70    71    1
    34    81    79   am
    35    74    75    1
    36    71    72    1
    37    71    73    1
    38   110   109   ar
    39   110   108   ar
    40   109   107   ar
    41    24    27    1
    42    24    25    1
    43    16    15    2
    44    27    28    1
    45    15    14    1
    46   113   111   ar
    47    75    76    1
    48    75    78    1
    49    30    28   ar
    50    30    32   ar
    51    40    41    1
    52    14    17    1
    53    14    13    1
    54    28    29   ar
    55    20    18   ar
    56    20    22   ar
    57    79    78    1
    58    79    80    2
    59    25    26    2
    60   108   111   ar
    61   108   106   ar
    62     4     3    2
    63   107   106   ar
    64    17    18    1
    65    12    11    1
    66    76    77    2
    67    76    82   am
    68    18    19   ar
    69    41    42    1
    70    41    44    1
    71    46    45    1
    72    46    47    1
    73    22    21   ar
    74    10    11   ar
    75    10     8   ar
    76    82    88    1
    77    82    83    1
    78    84    85    2
    79    84    83    1
    80   106   105    1
    81    11     9   ar
    82    32    31   ar
    83     3    13   am
    84     3     2    1
    85    88    87    1
    86    42    43    2
    87    29    31   ar
    88   202   201    2
    89     8     6   ar
    90    45    44    1
    91    83    86    1
    92     9     7   ar
    93    89    90    1
    94    19    21   ar
    95   105   102    1
    96     6     7   ar
    97     6     5    1
    98    86    87    1
    99     2     5    1
   100     2     1    1
   101   201   200    1
   102   205   203    1
   103    90    93    1
   104    90    91    1
   105    93    94    1
   106   102   101    1
   107   102   103    1
   108   186   185   ar
   109   186   184   ar
   110   200   203    1
   111   200   199    1
   112   185   183   ar
   113    94    95   ar
   114    94    96   ar
   115   203   204    1
   116    95    97   ar
   117    91    92    2
   118   206   204    1
   119    96    98   ar
   120   129   127    1
   121   103   104    2
   122   103   115   am
   123    97    99   ar
   124   184   182   ar
   125   183   181   ar
   126   199   189   am
   127   190   189    2
   128    98    99   ar
   129    99   100    1
   130   115   116    1
   131   127   126    1
   132   189   188    1
   133   179   178    2
   134   126   123    1
   135   126   128    1
   136   182   181   ar
   137   181   180    1
   138   122   123    1
   139   123   124    1
   140   178   177    1
   141   116   119    1
   142   116   117    1
   143   120   119    1
   144   170   169    2
   145   188   187    1
   146   188   191    1
   147   148   146   ar
   148   148   147   ar
   149   146   144   ar
   150   180   177    1
   151   119   121    1
   152   117   118    2
   153   177   176    1
   154   124   125    2
   155   124   130   am
   156   169   171   am
   157   169   168    1
   158   191   192    1
   159   147   145   ar
   160   144   143   ar
   161   166   165    2
   162   130   131    1
   163   175   174    2
   164   176   174   am
   165   168   167    1
   166   145   143   ar
   167   143   142    1
   168   167   164    1
   169   192   193   ar
   170   192   194   ar
   171   138   139    1
   172   165   164    1
   173   174   173    1
   174   164   163    1
   175   193   195   ar
   176   131   132    1
   177   131   134    1
   178   160   159    2
   179   139   142    1
   180   139   140    1
   181   194   196   ar
   182   132   133    2
   183   195   197   ar
   184   163   159   am
   185   136   135    1
   186   136   137    1
   187   135   134    1
   188   173   172    1
   189   159   158    1
   190   140   141    2
   191   196   197   ar
   192   197   198    1
   193   161   158    1
   194   161   162    1
   195   158   157    1
   196   153   154    1
   197   153   150    1
   198   155   154    1
   199   155   156    1
   200   152   151    2
   201   151   150    1
   202   150   149    1
