@<TRIPOS>MOLECULE
tmp/3o5bA00.pdb
 94 87 0 0 0
SMALL
GASTEIGER

@<TRIPOS>ATOM
      1  N         18.5190  -22.6680    2.1050 N.3   151  SER151     -0.1217
      2  CA        17.2540  -23.1480    1.5910 C.3   151  SER151      0.1889
      3  C         17.2180  -24.6980    1.8060 C.2   151  SER151      0.2288
      4  O         17.4710  -25.5000    0.8810 O.2   151  SER151     -0.2866
      5  CB        16.9950  -22.6890    0.1370 C.3   151  SER151      0.2089
      6  OG        16.2990  -21.4210    0.1100 O.3   151  SER151     -0.2183
      7  N         14.6990  -18.2310    3.5590 N.3   203  ASN203     -0.1225
      8  CA        14.4740  -19.0990    2.4080 C.3   203  ASN203      0.1785
      9  C         14.5640  -18.1620    1.1960 C.2   203  ASN203      0.2597
     10  O         14.2240  -16.9880    1.2810 O.2   203  ASN203     -0.2718
     11  CB        13.0660  -19.6940    2.5360 C.3   203  ASN203      0.1169
     12  CG        12.5550  -20.2710    1.2570 C.2   203  ASN203      0.2627
     13  OD1       11.9500  -19.5670    0.4500 O.2   203  ASN203     -0.2716
     14  ND2       12.7640  -21.5830    1.0620 N.am  203  ASN203     -0.0877
     15  N         14.9960  -18.6540    0.0490 N.am  204  ASP204     -0.1960
     16  CA        15.2280  -17.7260   -1.0650 C.3   204  ASP204      0.1840
     17  C         13.9580  -17.0240   -1.6590 C.2   204  ASP204      0.2622
     18  O         14.0380  -15.9010   -2.1950 O.2   204  ASP204     -0.2715
     19  CB        15.9530  -18.5000   -2.1430 C.3   204  ASP204      0.1450
     20  CG        15.1130  -19.6380   -2.6560 C.2   204  ASP204      0.3671
     21  OD1       15.1860  -20.7850   -2.1420 O.co2 204  ASP204     -0.2456
     22  OD2       14.3300  -19.3570   -3.5600 O.co2 204  ASP204     -0.2456
     23  N         12.7820  -17.6510   -1.5360 N.am  205  THR205     -0.1951
     24  CA        11.5310  -17.0500   -2.0370 C.3   205  THR205      0.1897
     25  C         11.1730  -15.8210   -1.2400 C.2   205  THR205      0.2313
     26  O         10.7040  -14.7680   -1.7980 O.2   205  THR205     -0.2863
     27  CB        10.3760  -18.0800   -1.9660 C.3   205  THR205      0.1794
     28  OG1       10.8040  -19.2570   -2.6540 O.3   205  THR205     -0.2208
     29  CG2        9.2120  -17.5950   -2.6710 C.3   205  THR205      0.0378
     30  N          8.6930  -18.7350   -7.2570 N.3   224  ILE224     -0.1245
     31  CA         9.6760  -19.5490   -7.9040 C.3   224  ILE224      0.1561
     32  C          8.9660  -20.6420   -8.6510 C.2   224  ILE224      0.2260
     33  O          8.1320  -21.3600   -8.0780 O.2   224  ILE224     -0.2867
     34  CB        10.6220  -20.2340   -6.9010 C.3   224  ILE224      0.0252
     35  CG1       11.2310  -19.1640   -6.0060 C.3   224  ILE224      0.0019
     36  CG2       11.7200  -21.0110   -7.6540 C.3   224  ILE224      0.0019
     37  CD1       12.2110  -18.3170   -6.7350 C.3   224  ILE224      0.0001
     38  N         10.3110  -23.4660  -10.9170 N.3   226  GLY226     -0.1210
     39  CA        11.4260  -24.1550  -11.5030 C.3   226  GLY226      0.1956
     40  C         11.4100  -25.6180  -11.1480 C.2   226  GLY226      0.2613
     41  O         10.4020  -26.2750  -11.3360 O.2   226  GLY226     -0.2717
     42  N         12.5280  -26.1290  -10.6520 N.am  227  THR227     -0.1938
     43  CA        12.6210  -27.5410  -10.2710 C.3   227  THR227      0.2028
     44  C         11.7170  -27.8440   -9.0880 C.2   227  THR227      0.2643
     45  O         11.1060  -28.9150   -9.0330 O.2   227  THR227     -0.2714
     46  CB        14.0600  -27.9910   -9.9370 C.3   227  THR227      0.1808
     47  OG1       14.8070  -28.0570  -11.1330 O.3   227  THR227     -0.2208
     48  CG2       14.0770  -29.4120   -9.3250 C.3   227  THR227      0.0379
     49  N         11.6670  -26.9220   -8.1380 N.am  228  GLY228     -0.1939
     50  CA        10.6230  -26.9010   -7.1130 C.3   228  GLY228      0.2014
     51  C          9.8230  -25.5980   -7.2710 C.2   228  GLY228      0.2639
     52  O         10.0930  -24.7880   -8.1620 O.2   228  GLY228     -0.2714
     53  N          8.8050  -25.4120   -6.4520 N.am  229  VAL229     -0.1963
     54  CA         7.9190  -24.2570   -6.6040 C.3   229  VAL229      0.1727
     55  C          7.6630  -23.6230   -5.1990 C.2   229  VAL229      0.2616
     56  O          7.5970  -24.3290   -4.2030 O.2   229  VAL229     -0.2715
     57  CB         6.5530  -24.6860   -7.2690 C.3   229  VAL229      0.0290
     58  CG1        6.7120  -25.3200   -8.6540 C.3   229  VAL229      0.0023
     59  CG2        5.6980  -25.5750   -6.3100 C.3   229  VAL229      0.0023
     60  N          7.4710  -22.3200   -5.1080 N.am  230  ASN230     -0.1972
     61  CA         7.2270  -21.7240   -3.8220 C.3   230  ASN230      0.1688
     62  C          6.7670  -20.3240   -4.0930 C.2   230  ASN230      0.2292
     63  O          6.9560  -19.8380   -5.1860 O.2   230  ASN230     -0.2864
     64  CB         8.5140  -21.7040   -2.9420 C.3   230  ASN230      0.1181
     65  CG         8.2150  -21.6540   -1.4230 C.2   230  ASN230      0.2629
     66  OD1        7.0660  -21.7260   -0.9950 O.2   230  ASN230     -0.2716
     67  ND2        9.2590  -21.4700   -0.6200 N.am  230  ASN230     -0.0877
     68  N          5.6400  -22.3240    1.2840 N.3   262  GLU262     -0.1245
     69  CA         6.0340  -23.6930    0.9520 C.3   262  GLU262      0.1567
     70  C          4.7900  -24.4360    0.4130 C.2   262  GLU262      0.2260
     71  O          4.5060  -25.5410    0.7990 O.2   262  GLU262     -0.2867
     72  CB         6.6550  -24.4080    2.1390 C.3   262  GLU262      0.0388
     73  CG         7.9150  -23.7410    2.6980 C.3   262  GLU262      0.1160
     74  CD         9.1780  -24.0350    1.8510 C.2   262  GLU262      0.3649
     75  OE1        9.0740  -24.6360    0.7420 O.co2 262  GLU262     -0.2457
     76  OE2       10.2860  -23.6610    2.3030 O.co2 262  GLU262     -0.2457
     77  N          3.8010  -33.3680   -1.8520 N.3   292  GLN292     -0.1245
     78  CA         4.2720  -32.4190   -2.8460 C.3   292  GLN292      0.1566
     79  C          3.3570  -32.4020   -4.0850 C.2   292  GLN292      0.2260
     80  O          3.8090  -32.1250   -5.1960 O.2   292  GLN292     -0.2867
     81  CB         5.7780  -32.6470   -3.2150 C.3   292  GLN292      0.0367
     82  CG         6.8030  -32.2390   -2.0800 C.3   292  GLN292      0.0905
     83  CD         6.6560  -30.7780   -1.5560 C.2   292  GLN292      0.2608
     84  OE1        6.1110  -30.5350   -0.4690 O.2   292  GLN292     -0.2717
     85  NE2        7.1390  -29.8270   -2.3210 N.am  292  GLN292     -0.0878
     86  N          3.4700  -29.2640   -6.1880 N.3   295  GLU295     -0.1245
     87  CA         4.7970  -29.2850   -6.8370 C.3   295  GLU295      0.1567
     88  C          4.7970  -30.1920   -8.0290 C.2   295  GLU295      0.2260
     89  O          5.3370  -29.8340   -9.0620 O.2   295  GLU295     -0.2867
     90  CB         5.9440  -29.6790   -5.8890 C.3   295  GLU295      0.0388
     91  CG         7.3550  -29.5320   -6.5280 C.3   295  GLU295      0.1160
     92  CD         8.4180  -29.1730   -5.4960 C.2   295  GLU295      0.3649
     93  OE1        8.5060  -27.9850   -5.0240 O.co2 295  GLU295     -0.2457
     94  OE2        9.1660  -30.0850   -5.1510 O.co2 295  GLU295     -0.2457
@<TRIPOS>BOND
     1    39    40    1
     2    39    38    1
     3    41    40    2
     4    40    42   am
     5    47    46    1
     6    42    43    1
     7    43    46    1
     8    43    44    1
     9    46    48    1
    10    44    45    2
    11    44    49   am
    12    89    88    2
    13    58    57    1
    14    32    33    2
    15    32    31    1
    16    52    51    2
    17    49    50    1
    18    88    87    1
    19    31    30    1
    20    31    34    1
    21    36    34    1
    22    51    50    1
    23    51    53   am
    24    57    54    1
    25    57    59    1
    26    34    35    1
    27    87    86    1
    28    87    90    1
    29    37    35    1
    30    54    53    1
    31    54    55    1
    32    91    90    1
    33    91    92    1
    34    92    94   ar
    35    92    93   ar
    36    55    60   am
    37    55    56    2
    38    80    79    2
    39    63    62    2
    40    60    61    1
    41    62    61    1
    42    79    78    1
    43    61    64    1
    44    22    20   ar
    45    81    78    1
    46    81    82    1
    47    64    65    1
    48    78    77    1
    49    29    27    1
    50    20    19    1
    51    20    21   ar
    52    28    27    1
    53    85    83   am
    54    18    17    2
    55    19    16    1
    56    82    83    1
    57    24    27    1
    58    24    23    1
    59    24    25    1
    60    26    25    2
    61    17    23   am
    62    17    16    1
    63    83    84    2
    64    65    66    2
    65    65    67   am
    66    16    15    1
    67    15     9   am
    68     6     5    1
    69     5     2    1
    70    70    71    2
    71    70    69    1
    72    13    12    2
    73    75    74   ar
    74     4     3    2
    75    69    68    1
    76    69    72    1
    77    14    12   am
    78     9    10    2
    79     9     8    1
    80    12    11    1
    81     2     3    1
    82     2     1    1
    83    74    76   ar
    84    74    73    1
    85    72    73    1
    86     8    11    1
    87     8     7    1
