@<TRIPOS>MOLECULE
tmp/3o5lA00.pdb
 126 124 0 0 0
SMALL
GASTEIGER

@<TRIPOS>ATOM
      1  N        -21.1430   -7.4540    1.5100 N.3    45  TYR45      -0.1241
      2  CA       -20.9060   -7.3750    0.0960 C.3    45  TYR45       0.1605
      3  C        -20.7890   -8.7140   -0.5380 C.2    45  TYR45       0.2264
      4  O        -20.5430   -9.7290    0.1200 O.2    45  TYR45      -0.2867
      5  CB       -19.5710   -6.6240   -0.1670 C.3    45  TYR45       0.0534
      6  CG       -18.3570   -7.4350    0.1900 C.ar   45  TYR45      -0.0201
      7  CD1      -17.6500   -8.1650   -0.7390 C.ar   45  TYR45      -0.0009
      8  CD2      -17.9320   -7.4860    1.5170 C.ar   45  TYR45      -0.0009
      9  CE1      -16.5580   -8.9110   -0.3260 C.ar   45  TYR45       0.0417
     10  CE2      -16.8670   -8.1970    1.9020 C.ar   45  TYR45       0.0417
     11  CZ       -16.1890   -8.9280    1.0110 C.ar   45  TYR45       0.1957
     12  OH       -15.1020   -9.6560    1.4520 O.3    45  TYR45      -0.2866
     13  N        -16.2080  -14.0400   -6.3980 N.3    55  PHE55      -0.1227
     14  CA       -14.9210  -14.2600   -5.7180 C.3    55  PHE55       0.1736
     15  C        -15.0170  -14.1510   -4.2030 C.2    55  PHE55       0.2595
     16  O        -14.1450  -14.6530   -3.5210 O.2    55  PHE55      -0.2718
     17  CB       -13.7490  -13.4340   -6.2770 C.3    55  PHE55       0.0547
     18  CG       -13.9200  -11.9630   -6.2040 C.ar   55  PHE55      -0.0202
     19  CD1      -13.6090  -11.2900   -5.0410 C.ar   55  PHE55      -0.0042
     20  CD2      -14.3330  -11.2540   -7.3110 C.ar   55  PHE55      -0.0042
     21  CE1      -13.7110   -9.9210   -4.9820 C.ar   55  PHE55      -0.0003
     22  CE2      -14.4370   -9.8760   -7.2600 C.ar   55  PHE55      -0.0003
     23  CZ       -14.1530   -9.2160   -6.0760 C.ar   55  PHE55      -0.0000
     24  N        -16.0680  -13.5340   -3.6480 N.am   56  ASP56      -0.1974
     25  CA       -16.2390  -13.4860   -2.1800 C.3    56  ASP56       0.1709
     26  C        -17.5840  -12.9450   -1.8390 C.2    56  ASP56       0.2293
     27  O        -18.1910  -12.2520   -2.6270 O.2    56  ASP56      -0.2864
     28  CB       -15.1970  -12.6140   -1.5070 C.3    56  ASP56       0.1436
     29  CG       -15.1190  -12.8740    0.0100 C.2    56  ASP56       0.3671
     30  OD1      -15.4820  -13.9930    0.4960 O.co2  56  ASP56      -0.2456
     31  OD2      -14.6820  -11.9520    0.7060 O.co2  56  ASP56      -0.2456
     32  N        -17.8140   -6.3270    6.7120 N.3    65  PHE65      -0.1241
     33  CA       -16.5400   -5.7610    6.4330 C.3    65  PHE65       0.1605
     34  C        -16.5360   -4.3370    6.9690 C.2    65  PHE65       0.2264
     35  O        -17.4870   -3.6010    6.7460 O.2    65  PHE65      -0.2867
     36  CB       -16.3350   -5.8020    4.9150 C.3    65  PHE65       0.0534
     37  CG       -14.9380   -5.4300    4.4700 C.ar   65  PHE65      -0.0203
     38  CD1      -14.0520   -6.3890    4.0340 C.ar   65  PHE65      -0.0042
     39  CD2      -14.5540   -4.1230    4.4120 C.ar   65  PHE65      -0.0042
     40  CE1      -12.8020   -6.0390    3.5970 C.ar   65  PHE65      -0.0003
     41  CE2      -13.2990   -3.7700    4.0090 C.ar   65  PHE65      -0.0003
     42  CZ       -12.4240   -4.7380    3.5900 C.ar   65  PHE65      -0.0000
     43  N         -7.9780    2.4880    2.8010 N.3    73  GLN73      -0.1231
     44  CA        -7.8810    1.1390    3.4200 C.3    73  GLN73       0.1698
     45  C         -8.4630    0.0180    2.5340 C.2    73  GLN73       0.2592
     46  O         -8.3100   -1.1700    2.8190 O.2    73  GLN73      -0.2718
     47  CB        -8.6300    1.1000    4.7520 C.3    73  GLN73       0.0381
     48  CG        -8.0180    2.0190    5.7900 C.3    73  GLN73       0.0905
     49  CD        -8.7740    2.0310    7.1130 C.2    73  GLN73       0.2608
     50  OE1       -9.8280    1.3930    7.2730 O.2    73  GLN73      -0.2717
     51  NE2       -8.2270    2.7660    8.0790 N.am   73  GLN73      -0.0878
     52  N         -9.1350    0.4260    1.4650 N.am   74  VAL74      -0.1966
     53  CA        -9.8560   -0.4450    0.5600 C.3    74  VAL74       0.1727
     54  C         -9.5870    0.0780   -0.8350 C.2    74  VAL74       0.2616
     55  O         -9.0650    1.1840   -1.0080 O.2    74  VAL74      -0.2715
     56  CB       -11.3820   -0.3950    0.8740 C.3    74  VAL74       0.0290
     57  CG1      -11.6910   -1.0880    2.2350 C.3    74  VAL74       0.0023
     58  CG2      -11.8950    1.0460    0.7980 C.3    74  VAL74       0.0023
     59  N        -10.0060   -0.6890   -1.8360 N.am   75  ILE75      -0.1977
     60  CA        -9.8830   -0.2090   -3.2160 C.3    75  ILE75       0.1596
     61  C        -10.5820    1.1290   -3.3700 C.2    75  ILE75       0.2287
     62  O        -11.5720    1.4240   -2.6990 O.2    75  ILE75      -0.2864
     63  CB       -10.3500   -1.2350   -4.2600 C.3    75  ILE75       0.0276
     64  CG1      -11.8130   -1.6120   -4.1070 C.3    75  ILE75       0.0022
     65  CG2       -9.4640   -2.4590   -4.2470 C.3    75  ILE75       0.0022
     66  CD1      -12.3530   -2.3730   -5.3040 C.3    75  ILE75       0.0001
     67  N        -14.4070    1.4550   -3.6170 N.3    78  TRP78      -0.1241
     68  CA       -15.1690    1.3430   -2.3910 C.3    78  TRP78       0.1605
     69  C        -15.1680    2.6120   -1.5840 C.2    78  TRP78       0.2264
     70  O        -16.1940    2.9940   -1.0480 O.2    78  TRP78      -0.2867
     71  CB       -14.6230    0.2030   -1.5400 C.3    78  TRP78       0.0550
     72  CG       -15.1950   -1.1330   -1.8790 C.ar   78  TRP78       0.0003
     73  CD1      -15.5360   -1.6030   -3.0780 C.ar   78  TRP78       0.0946
     74  CD2      -15.5440   -2.1200   -0.9370 C.ar   78  TRP78       0.0152
     75  NE1      -16.0470   -2.8780   -2.9710 N.ar   78  TRP78      -0.2442
     76  CE2      -16.0710   -3.2090   -1.6430 C.ar   78  TRP78       0.0810
     77  CE3      -15.4580   -2.1860    0.4450 C.ar   78  TRP78       0.0012
     78  CZ2      -16.5100   -4.3520   -1.0060 C.ar   78  TRP78       0.0191
     79  CZ3      -15.9070   -3.3090    1.0850 C.ar   78  TRP78       0.0001
     80  CH2      -16.4280   -4.3780    0.3570 C.ar   78  TRP78       0.0015
     81  N         -7.7470   -3.1790   -8.5440 N.3   101  TYR101     -0.1241
     82  CA        -6.4250   -3.7730   -8.3440 C.3   101  TYR101      0.1605
     83  C         -5.4830   -3.6120   -9.5190 C.2   101  TYR101      0.2264
     84  O         -4.3900   -4.1670   -9.4830 O.2   101  TYR101     -0.2867
     85  CB        -6.5550   -5.2530   -8.0040 C.3   101  TYR101      0.0534
     86  CG        -7.3080   -5.5130   -6.7060 C.ar  101  TYR101     -0.0201
     87  CD1       -6.6550   -5.5000   -5.4760 C.ar  101  TYR101     -0.0009
     88  CD2       -8.6560   -5.7980   -6.7250 C.ar  101  TYR101     -0.0009
     89  CE1       -7.3550   -5.7490   -4.2930 C.ar  101  TYR101      0.0417
     90  CE2       -9.3600   -6.0480   -5.5580 C.ar  101  TYR101      0.0417
     91  CZ        -8.7050   -6.0330   -4.3470 C.ar  101  TYR101      0.1957
     92  OH        -9.4410   -6.2780   -3.2140 O.3   101  TYR101     -0.2866
     93  N         -4.8250   -9.2150   -8.0550 N.3   106  SER106     -0.1217
     94  CA        -4.6980   -9.8370   -6.7260 C.3   106  SER106      0.1889
     95  C         -4.9650  -11.3260   -6.8870 C.2   106  SER106      0.2288
     96  O         -6.0410  -11.8330   -6.6110 O.2   106  SER106     -0.2866
     97  CB        -5.6650   -9.2150   -5.7170 C.3   106  SER106      0.2089
     98  OG        -5.3640   -9.6270   -4.3840 O.3   106  SER106     -0.2183
     99  N         -7.5560  -14.7600   -7.1460 N.3   109  LYS109     -0.1231
    100  CA        -8.9520  -14.4800   -7.4590 C.3   109  LYS109      0.1693
    101  C         -9.1300  -13.3870   -8.4930 C.2   109  LYS109      0.2591
    102  O        -10.0790  -13.4550   -9.2830 O.2   109  LYS109     -0.2718
    103  CB        -9.7420  -14.1180   -6.1850 C.3   109  LYS109      0.0285
    104  CG        -9.9300  -15.3140   -5.2480 C.3   109  LYS109      0.0035
    105  CD       -10.8120  -15.0280   -4.0460 C.3   109  LYS109      0.0206
    106  CE       -11.2080  -16.3260   -3.3430 C.3   109  LYS109      0.1093
    107  NZ       -12.3720  -16.1610   -2.4590 N.3   109  LYS109     -0.1314
    108  N         -8.2370  -12.4110   -8.4890 N.am  110  ILE110     -0.1980
    109  CA        -8.4140  -11.2190   -9.3140 C.3   110  ILE110      0.1595
    110  C         -7.2670  -11.0920  -10.3230 C.2   110  ILE110      0.2287
    111  O         -6.1150  -10.8530   -9.9480 O.2   110  ILE110     -0.2864
    112  CB        -8.4780   -9.9180   -8.4640 C.3   110  ILE110      0.0276
    113  CG1       -9.4670  -10.0390   -7.2850 C.3   110  ILE110      0.0022
    114  CG2       -8.7770   -8.7410   -9.3660 C.3   110  ILE110      0.0022
    115  CD1      -10.9220  -10.2420   -7.6800 C.3   110  ILE110      0.0001
    116  N        -19.4380   -5.2950   -7.4820 N.3   118  PHE118     -0.1241
    117  CA       -19.8560   -5.5550   -6.1130 C.3   118  PHE118      0.1605
    118  C        -21.3160   -5.2030   -5.8650 C.2   118  PHE118      0.2264
    119  O        -21.8190   -4.2130   -6.3820 O.2   118  PHE118     -0.2867
    120  CB       -19.0550   -4.7210   -5.1070 C.3   118  PHE118      0.0534
    121  CG       -17.5960   -5.0090   -5.1280 C.ar  118  PHE118     -0.0203
    122  CD1      -17.0430   -5.9620   -4.2940 C.ar  118  PHE118     -0.0042
    123  CD2      -16.7540   -4.3340   -5.9560 C.ar  118  PHE118     -0.0042
    124  CE1      -15.6980   -6.2130   -4.3350 C.ar  118  PHE118     -0.0003
    125  CE2      -15.4400   -4.5650   -5.9500 C.ar  118  PHE118     -0.0003
    126  CZ       -14.9140   -5.5330   -5.1640 C.ar  118  PHE118     -0.0000
@<TRIPOS>BOND
     1   110   111    2
     2   110   109    1
     3    83    84    2
     4    83    82    1
     5   114   112    1
     6   109   108    1
     7   109   112    1
     8   102   101    2
     9    81    82    1
    10   101   108   am
    11   101   100    1
    12   112   113    1
    13    82    85    1
    14    93    94    1
    15    85    86    1
    16   115   113    1
    17   116   117    1
    18   100    99    1
    19   100   103    1
    20    20    22   ar
    21    20    18   ar
    22    22    23   ar
    23    95    94    1
    24    95    96    2
    25    94    97    1
    26    88    86   ar
    27    88    90   ar
    28    86    87   ar
    29    13    14    1
    30   119   118    2
    31    17    18    1
    32    17    14    1
    33    18    19   ar
    34   103   104    1
    35   117   118    1
    36   117   120    1
    37    23    21   ar
    38   123   125   ar
    39   123   121   ar
    40   125   126   ar
    41    14    15    1
    42    97    98    1
    43    90    91   ar
    44    87    89   ar
    45    66    64    1
    46   104   105    1
    47   126   124   ar
    48   121   120    1
    49   121   122   ar
    50    19    21   ar
    51    91    89   ar
    52    91    92    1
    53   124   122   ar
    54    63    65    1
    55    63    64    1
    56    63    60    1
    57    15    24   am
    58    15    16    2
    59   105   106    1
    60    24    25    1
    61    67    68    1
    62    61    60    1
    63    61    62    2
    64   106   107    1
    65    60    59    1
    66    73    75   ar
    67    73    72   ar
    68    75    76   ar
    69    27    26    2
    70    68    69    1
    71    68    71    1
    72    25    26    1
    73    25    28    1
    74    72    71    1
    75    72    74   ar
    76    59    54   am
    77    76    78   ar
    78    76    74   ar
    79    69    70    2
    80    28    29    1
    81    55    54    2
    82    78    80   ar
    83    74    77   ar
    84    54    53    1
    85     7     9   ar
    86     7     6   ar
    87     3     2    1
    88     3     4    2
    89     9    11   ar
    90     5     2    1
    91     5     6    1
    92    29    30   ar
    93    29    31   ar
    94     2     1    1
    95     6     8   ar
    96    80    79   ar
    97    77    79   ar
    98    53    56    1
    99    53    52    1
   100    58    56    1
   101    56    57    1
   102    11    12    1
   103    11    10   ar
   104    52    45   am
   105     8    10   ar
   106    45    46    2
   107    45    44    1
   108    43    44    1
   109    44    47    1
   110    42    40   ar
   111    42    41   ar
   112    40    38   ar
   113    41    39   ar
   114    38    37   ar
   115    39    37   ar
   116    37    36    1
   117    47    48    1
   118    36    33    1
   119    48    49    1
   120    33    32    1
   121    33    34    1
   122    35    34    2
   123    49    50    2
   124    49    51   am
