@<TRIPOS>MOLECULE
tmp/3o5nE00.pdb
 94 91 0 0 0
SMALL
GASTEIGER

@<TRIPOS>ATOM
      1  N         65.2330  -25.1560   93.9570 N.3    14  LYS14      -0.1245
      2  CA        65.1360  -25.6620   92.5730 C.3    14  LYS14       0.1561
      3  C         66.1730  -25.0570   91.6210 C.2    14  LYS14       0.2260
      4  O         66.6780  -23.9690   91.8520 O.2    14  LYS14      -0.2867
      5  CB        63.7250  -25.4370   92.0020 C.3    14  LYS14       0.0271
      6  CG        63.5760  -24.1650   91.1760 C.3    14  LYS14       0.0035
      7  CD        62.1230  -23.7490   90.9970 C.3    14  LYS14       0.0206
      8  CE        62.0140  -22.2780   90.6170 C.3    14  LYS14       0.1093
      9  NZ        62.5480  -22.0110   89.2660 N.3    14  LYS14      -0.1314
     10  N         60.3530  -25.9710   87.0770 N.3    19  GLY19      -0.1210
     11  CA        59.4330  -25.1550   87.8300 C.3    19  GLY19       0.1956
     12  C         59.3890  -25.6240   89.2600 C.2    19  GLY19       0.2612
     13  O         60.0600  -26.5960   89.6410 O.2    19  GLY19      -0.2717
     14  N         58.6200  -24.9130   90.0660 N.am   20  PHE20      -0.1962
     15  CA        58.4150  -25.3050   91.4520 C.3    20  PHE20       0.1771
     16  C         57.5480  -26.5620   91.5280 C.2    20  PHE20       0.2620
     17  O         57.7850  -27.4540   92.3390 O.2    20  PHE20      -0.2715
     18  CB        57.7710  -24.1620   92.2350 C.3    20  PHE20       0.0574
     19  CG        58.7350  -23.0790   92.6620 C.ar   20  PHE20      -0.0200
     20  CD1       58.5410  -21.7560   92.2590 C.ar   20  PHE20      -0.0042
     21  CD2       59.8250  -23.3740   93.4900 C.ar   20  PHE20      -0.0042
     22  CE1       59.4230  -20.7320   92.6490 C.ar   20  PHE20      -0.0003
     23  CE2       60.7150  -22.3660   93.8770 C.ar   20  PHE20      -0.0003
     24  CZ        60.5020  -21.0330   93.4560 C.ar   20  PHE20      -0.0000
     25  N         56.5320  -26.6160   90.6770 N.am   21  GLY21      -0.1940
     26  CA        55.6060  -27.7390   90.6470 C.3    21  GLY21       0.2014
     27  C         54.2620  -27.4210   91.2860 C.2    21  GLY21       0.2639
     28  O         53.5840  -28.3150   91.7920 O.2    21  GLY21      -0.2714
     29  N         53.8870  -26.1430   91.2620 N.am   22  PHE22      -0.1959
     30  CA        52.5910  -25.7090   91.7800 C.3    22  PHE22       0.1771
     31  C         51.9390  -24.6680   90.8840 C.2    22  PHE22       0.2619
     32  O         52.6100  -24.0420   90.0640 O.2    22  PHE22      -0.2715
     33  CB        52.6550  -25.2850   93.2870 C.3    22  PHE22       0.0574
     34  CG        53.5090  -24.0360   93.6040 C.ar   22  PHE22      -0.0200
     35  CD1       52.9500  -22.7550   93.5740 C.ar   22  PHE22      -0.0042
     36  CD2       54.8390  -24.1520   94.0130 C.ar   22  PHE22      -0.0042
     37  CE1       53.7070  -21.6090   93.8820 C.ar   22  PHE22      -0.0003
     38  CE2       55.6220  -22.9870   94.3310 C.ar   22  PHE22      -0.0003
     39  CZ        55.0440  -21.7140   94.2520 C.ar   22  PHE22      -0.0000
     40  N         50.6240  -24.5270   90.9980 N.am   23  VAL23      -0.1963
     41  CA        49.9650  -23.3000   90.5470 C.3    23  VAL23       0.1727
     42  C         49.1280  -22.6380   91.6130 C.2    23  VAL23       0.2616
     43  O         48.3750  -23.2760   92.3360 O.2    23  VAL23      -0.2715
     44  CB        49.2470  -23.4050   89.1870 C.3    23  VAL23       0.0290
     45  CG1       47.8990  -22.6740   89.2020 C.3    23  VAL23       0.0023
     46  CG2       50.1510  -22.8190   88.1040 C.3    23  VAL23       0.0023
     47  N         49.2900  -21.3320   91.6700 N.am   24  LEU24      -0.1977
     48  CA        48.7770  -20.5260   92.7330 C.3    24  LEU24       0.1596
     49  C         47.4640  -19.8820   92.3060 C.2    24  LEU24       0.2287
     50  O         46.4740  -19.9450   93.0240 O.2    24  LEU24      -0.2864
     51  CB        49.8210  -19.4560   93.0810 C.3    24  LEU24       0.0297
     52  CG        49.4050  -18.2340   93.9070 C.3    24  LEU24       0.0022
     53  CD1       48.6420  -18.6510   95.1450 C.3    24  LEU24       0.0001
     54  CD2       50.6540  -17.4430   94.3200 C.3    24  LEU24       0.0001
     55  N         47.0120  -12.2090   94.6640 N.3    68  HIS68      -0.1241
     56  CA        47.7140  -13.0530   93.6970 C.3    68  HIS68       0.1621
     57  C         48.7330  -12.2260   92.9140 C.2    68  HIS68       0.2264
     58  O         49.8700  -12.6560   92.6830 O.2    68  HIS68      -0.2867
     59  CB        46.6730  -13.6960   92.7590 C.3    68  HIS68       0.0745
     60  CG        47.2440  -14.6760   91.7830 C.ar   68  HIS68       0.0817
     61  ND1       47.2960  -16.0330   92.0310 N.ar   68  HIS68      -0.2268
     62  CD2       47.7740  -14.4970   90.5510 C.ar   68  HIS68       0.1154
     63  CE1       47.8490  -16.6440   90.9960 C.ar   68  HIS68       0.1986
     64  NE2       48.1380  -15.7360   90.0810 N.ar   68  HIS68      -0.2212
     65  N         52.6720  -13.4250   93.5050 N.3    72  VAL72      -0.1245
     66  CA        53.6100  -13.8760   92.4720 C.3    72  VAL72       0.1561
     67  C         54.8420  -12.9500   92.4610 C.2    72  VAL72       0.2260
     68  O         55.9590  -13.3710   92.1240 O.2    72  VAL72      -0.2867
     69  CB        52.9820  -13.9690   91.0570 C.3    72  VAL72       0.0252
     70  CG1       53.8350  -14.8650   90.1750 C.3    72  VAL72       0.0019
     71  CG2       51.5800  -14.5280   91.1110 C.3    72  VAL72       0.0019
     72  N         57.4960  -14.6620   94.7140 N.3    75  ILE75      -0.1231
     73  CA        57.9280  -15.9420   94.1210 C.3    75  ILE75       0.1692
     74  C         58.9390  -15.7640   92.9830 C.2    75  ILE75       0.2591
     75  O         59.8930  -16.5570   92.8480 O.2    75  ILE75      -0.2718
     76  CB        56.6980  -16.7790   93.6850 C.3    75  ILE75       0.0266
     77  CG1       55.8720  -17.1290   94.9200 C.3    75  ILE75       0.0019
     78  CG2       57.1200  -18.0690   92.9700 C.3    75  ILE75       0.0020
     79  CD1       54.3910  -17.1010   94.7010 C.3    75  ILE75       0.0001
     80  N         58.7410  -14.7170   92.1800 N.am   76  ARG76      -0.1980
     81  CA        59.7490  -14.3010   91.2160 C.3    76  ARG76       0.1597
     82  C         60.9940  -13.6490   91.8530 C.2    76  ARG76       0.2287
     83  O         62.0910  -13.7300   91.2820 O.2    76  ARG76      -0.2864
     84  CB        59.1450  -13.3660   90.1610 C.3    76  ARG76       0.0334
     85  CG        59.9180  -13.3740   88.8510 C.3    76  ARG76       0.0492
     86  CD        59.6920  -14.6790   88.1100 C.3    76  ARG76       0.2205
     87  NE        60.8170  -15.0270   87.2390 N.pl3  76  ARG76      -0.0865
     88  CZ        61.1730  -16.2770   86.9420 C.cat  76  ARG76       0.5346
     89  NH1       60.5120  -17.3020   87.4630 N.pl3  76  ARG76       0.1354
     90  NH2       62.2070  -16.5050   86.1450 N.pl3  76  ARG76       0.1354
     91  N         63.9360  -16.1270   93.4220 N.3    79  GLY79      -0.1225
     92  CA        64.5670  -17.0460   92.4770 C.3    79  GLY79       0.1811
     93  C         64.1480  -18.4860   92.6800 C.2    79  GLY79       0.2280
     94  O         62.9800  -18.7700   92.9820 O.2    79  GLY79      -0.2866
@<TRIPOS>BOND
     1    90    88    1
     2    88    87    2
     3    88    89    1
     4    10    11    1
     5    87    86    1
     6    11    12    1
     7    46    44    1
     8    86    85    1
     9    85    84    1
    10    44    45    1
    11    44    41    1
    12    12    13    2
    13    12    14   am
    14     9     8    1
    15    32    31    2
    16    14    15    1
    17    64    62   ar
    18    64    63   ar
    19    84    81    1
    20    70    69    1
    21    41    40    1
    22    41    42    1
    23    62    60   ar
    24     8     7    1
    25    26    25    1
    26    26    27    1
    27    25    16   am
    28    31    40   am
    29    31    30    1
    30    63    61   ar
    31     7     6    1
    32    69    71    1
    33    69    66    1
    34     6     5    1
    35    81    82    1
    36    81    80    1
    37    29    27   am
    38    29    30    1
    39    83    82    2
    40    27    28    2
    41    15    16    1
    42    15    18    1
    43    16    17    2
    44    42    47   am
    45    42    43    2
    46     3     4    2
    47     3     2    1
    48    47    48    1
    49    30    33    1
    50    60    61   ar
    51    60    59    1
    52     5     2    1
    53    68    67    2
    54    80    74   am
    55    18    19    1
    56    20    22   ar
    57    20    19   ar
    58    49    48    1
    59    49    50    2
    60    67    66    1
    61    66    65    1
    62    92    93    1
    63    92    91    1
    64     2     1    1
    65    22    24   ar
    66    19    21   ar
    67    93    94    2
    68    58    57    2
    69    48    51    1
    70    59    56    1
    71    75    74    2
    72    57    56    1
    73    78    76    1
    74    74    73    1
    75    51    52    1
    76    33    34    1
    77    24    23   ar
    78    21    23   ar
    79    35    34   ar
    80    35    37   ar
    81    34    36   ar
    82    76    73    1
    83    76    77    1
    84    56    55    1
    85    37    39   ar
    86    52    54    1
    87    52    53    1
    88    36    38   ar
    89    73    72    1
    90    39    38   ar
    91    79    77    1
