@<TRIPOS>MOLECULE
tmp/3o5rA00.pdb
 161 160 0 0 0
SMALL
GASTEIGER

@<TRIPOS>ATOM
      1  N         44.7440   17.5850   11.6860 N.3    45  TYR45      -0.1241
      2  CA        44.8550   16.1270   11.7710 C.3    45  TYR45       0.1605
      3  C         43.7430   15.5490   12.6370 C.2    45  TYR45       0.2264
      4  O         43.1780   16.2030   13.5020 O.2    45  TYR45      -0.2867
      5  CB        46.2360   15.7010   12.3090 C.3    45  TYR45       0.0534
      6  CG        46.4370   15.9940   13.7750 C.ar   45  TYR45      -0.0201
      7  CD1       46.1910   15.0640   14.7840 C.ar   45  TYR45      -0.0009
      8  CD2       46.8800   17.2720   14.2130 C.ar   45  TYR45      -0.0009
      9  CE1       46.3780   15.3310   16.1330 C.ar   45  TYR45       0.0417
     10  CE2       47.0690   17.5460   15.5610 C.ar   45  TYR45       0.0417
     11  CZ        46.8030   16.5750   16.5330 C.ar   45  TYR45       0.1957
     12  OH        47.0120   16.9040   17.8330 O.3    45  TYR45      -0.2866
     13  N         41.6510    9.4150   19.1970 N.3    55  PHE55      -0.1227
     14  CA        42.4100    9.9030   20.3260 C.3    55  PHE55       0.1736
     15  C         42.6380   11.3910   20.2730 C.2    55  PHE55       0.2595
     16  O         42.9430   11.9850   21.3120 O.2    55  PHE55      -0.2718
     17  CB        43.7000    9.1210   20.5810 C.3    55  PHE55       0.0547
     18  CG        44.7340    9.1500   19.4790 C.ar   55  PHE55      -0.0202
     19  CD1       45.6350   10.1880   19.3740 C.ar   55  PHE55      -0.0042
     20  CD2       44.7680    8.1250   18.5460 C.ar   55  PHE55      -0.0042
     21  CE1       46.5870   10.2240   18.3560 C.ar   55  PHE55      -0.0003
     22  CE2       45.7450    8.1440   17.5770 C.ar   55  PHE55      -0.0003
     23  CZ        46.6520    9.1700   17.4780 C.ar   55  PHE55      -0.0000
     24  N         42.5620   12.0150   19.0930 N.am   56  ASP56      -0.1974
     25  CA        42.7940   13.4520   19.0030 C.3    56  ASP56       0.1709
     26  C         42.3170   13.9770   17.6890 C.2    56  ASP56       0.2293
     27  O         42.1770   13.2270   16.7090 O.2    56  ASP56      -0.2864
     28  CB        44.2740   13.7320   19.0990 C.3    56  ASP56       0.1436
     29  CG        44.6530   15.1530   19.4670 C.2    56  ASP56       0.3671
     30  OD1       43.7980   16.0070   19.6930 O.co2  56  ASP56      -0.2456
     31  OD2       45.8680   15.3240   19.6340 O.co2  56  ASP56      -0.2456
     32  N         39.7370   21.6640   18.0780 N.3    61  ARG61      -0.1245
     33  CA        40.3490   22.8050   18.8100 C.3    61  ARG61       0.1563
     34  C         40.2460   24.1010   18.0240 C.2    61  ARG61       0.2260
     35  O         40.6480   25.1410   18.5350 O.2    61  ARG61      -0.2867
     36  CB        41.8330   22.5290   19.1470 C.3    61  ARG61       0.0307
     37  CG        42.1010   21.4870   20.2130 C.3    61  ARG61       0.0489
     38  CD        43.5560   21.4870   20.6210 C.3    61  ARG61       0.2205
     39  NE        44.4470   20.9720   19.5560 N.pl3  61  ARG61      -0.0865
     40  CZ        44.7050   19.6900   19.3440 C.cat  61  ARG61       0.5346
     41  NH1       44.2210   18.7510   20.1200 N.pl3  61  ARG61       0.1354
     42  NH2       45.4910   19.3740   18.3430 N.pl3  61  ARG61       0.1354
     43  N         47.8380   22.4930   14.0490 N.3    65  PHE65      -0.1241
     44  CA        49.0910   22.1900   14.6990 C.3    65  PHE65       0.1605
     45  C         50.2400   22.6930   13.8030 C.2    65  PHE65       0.2264
     46  O         50.2540   22.4260   12.6160 O.2    65  PHE65      -0.2867
     47  CB        49.2010   20.6860   14.9150 C.3    65  PHE65       0.0534
     48  CG        50.4620   20.3370   15.6640 C.ar   65  PHE65      -0.0203
     49  CD1       50.6360   20.6330   16.9840 C.ar   65  PHE65      -0.0042
     50  CD2       51.5510   19.7610   15.0100 C.ar   65  PHE65      -0.0042
     51  CE1       51.8570   20.3770   17.6110 C.ar   65  PHE65      -0.0003
     52  CE2       52.7740   19.4850   15.6250 C.ar   65  PHE65      -0.0003
     53  CZ        52.9180   19.8590   16.9290 C.ar   65  PHE65      -0.0000
     54  N         60.4780   17.4510   15.9980 N.3    73  GLN73      -0.1231
     55  CA        59.4810   18.0540   16.8610 C.3    73  GLN73       0.1698
     56  C         58.1660   17.2590   16.9260 C.2    73  GLN73       0.2592
     57  O         57.2360   17.6500   17.6240 O.2    73  GLN73      -0.2718
     58  CB        59.1890   19.4790   16.4290 C.3    73  GLN73       0.0381
     59  CG        60.3970   20.3840   16.4960 C.3    73  GLN73       0.0905
     60  CD        60.0990   21.8150   16.0760 C.2    73  GLN73       0.2608
     61  OE1       58.9860   22.1640   15.6580 O.2    73  GLN73      -0.2717
     62  NE2       61.1210   22.6350   16.2070 N.am   73  GLN73      -0.0878
     63  N         58.1010   16.1960   16.1430 N.am   74  VAL74      -0.1966
     64  CA        56.9800   15.2830   16.0390 C.3    74  VAL74       0.1727
     65  C         57.5540   13.8630   15.9220 C.2    74  VAL74       0.2616
     66  O         58.7270   13.6880   15.6760 O.2    74  VAL74      -0.2715
     67  CB        56.1280   15.6290   14.8080 C.3    74  VAL74       0.0290
     68  CG1       55.4110   16.9680   14.9560 C.3    74  VAL74       0.0023
     69  CG2       56.9820   15.6440   13.5560 C.3    74  VAL74       0.0023
     70  N         56.6850   12.8680   16.0600 N.am   75  ILE75      -0.1977
     71  CA        57.0750   11.4660   15.7960 C.3    75  ILE75       0.1596
     72  C         57.6040   11.3210   14.3850 C.2    75  ILE75       0.2287
     73  O         57.2830   12.0790   13.4660 O.2    75  ILE75      -0.2864
     74  CB        55.8870   10.5170   16.0860 C.3    75  ILE75       0.0276
     75  CG1       54.6290   10.8940   15.2820 C.3    75  ILE75       0.0022
     76  CG2       55.6090   10.4830   17.5700 C.3    75  ILE75       0.0022
     77  CD1       53.5350    9.8740   15.3240 C.3    75  ILE75       0.0001
     78  N         55.4650   11.4330   11.1940 N.3    78  TRP78      -0.1241
     79  CA        55.0300   12.7500   10.7560 C.3    78  TRP78       0.1605
     80  C         56.1080   13.5230   10.0210 C.2    78  TRP78       0.2264
     81  O         55.8420   14.1770    8.9920 O.2    78  TRP78      -0.2867
     82  CB        54.5160   13.5590   11.9390 C.3    78  TRP78       0.0550
     83  CG        53.0680   13.3420   12.2750 C.ar   78  TRP78       0.0003
     84  CD1       52.3660   12.2060   12.5140 C.ar   78  TRP78       0.0946
     85  CD2       52.1460   14.4220   12.3740 C.ar   78  TRP78       0.0152
     86  NE1       51.0670   12.5190   12.7740 N.ar   78  TRP78      -0.2442
     87  CE2       50.8870   13.8580   12.6960 C.ar   78  TRP78       0.0810
     88  CE3       52.2370   15.8150   12.2300 C.ar   78  TRP78       0.0012
     89  CZ2       49.7420   14.6440   12.8740 C.ar   78  TRP78       0.0191
     90  CZ3       51.1080   16.5710   12.4050 C.ar   78  TRP78       0.0001
     91  CH2       49.8840   15.9970   12.7170 C.ar   78  TRP78       0.0015
     92  N         56.5090    5.9310   15.7610 N.3   100  ALA100     -0.1231
     93  CA        55.5350    6.6400   16.5800 C.3   100  ALA100      0.1694
     94  C         56.0500    6.5860   18.0260 C.2   100  ALA100      0.2592
     95  O         57.1480    7.1120   18.2670 O.2   100  ALA100     -0.2718
     96  CB        54.1010    6.0890   16.3920 C.3   100  ALA100      0.0304
     97  N         55.3110    5.9950   18.9710 N.am  101  TYR101     -0.1976
     98  CA        55.6350    6.0750   20.3990 C.3   101  TYR101      0.1639
     99  C         56.2550    4.7880   20.9250 C.2   101  TYR101      0.2290
    100  O         56.5070    4.7060   22.1480 O.2   101  TYR101     -0.2864
    101  CB        54.4080    6.5250   21.2220 C.3   101  TYR101      0.0560
    102  CG        53.9110    7.8830   20.7730 C.ar  101  TYR101     -0.0198
    103  CD1       54.5380    9.0350   21.2340 C.ar  101  TYR101     -0.0009
    104  CD2       52.8810    8.0260   19.8880 C.ar  101  TYR101     -0.0009
    105  CE1       54.1250   10.2720   20.8340 C.ar  101  TYR101      0.0417
    106  CE2       52.4460    9.2740   19.4690 C.ar  101  TYR101      0.0417
    107  CZ        53.0770   10.3990   19.9570 C.ar  101  TYR101      0.1957
    108  OH        52.6880   11.6800   19.5720 O.3   101  TYR101     -0.2866
    109  N         54.7490    4.3540   24.5740 N.3   105  GLY105     -0.1210
    110  CA        53.4540    4.9850   24.4570 C.3   105  GLY105      0.1956
    111  C         53.5340    6.4680   24.7810 C.2   105  GLY105      0.2613
    112  O         54.6050    7.0680   24.8150 O.2   105  GLY105     -0.2717
    113  N         52.3500    7.0470   25.0170 N.am  106  SER106     -0.1938
    114  CA        52.2380    8.4370   25.3860 C.3   106  SER106      0.2055
    115  C         51.0770    8.5490   26.3480 C.2   106  SER106      0.2643
    116  O         49.9530    8.3080   25.9880 O.2   106  SER106     -0.2714
    117  CB        52.0470    9.3250   24.1520 C.3   106  SER106      0.2130
    118  OG        51.8230   10.6700   24.5330 O.3   106  SER106     -0.2179
    119  N         51.3940    8.8980   27.5640 N.am  107  LEU107     -0.1963
    120  CA        50.3990    8.9110   28.6120 C.3   107  LEU107      0.1713
    121  C         49.5140   10.1370   28.5150 C.2   107  LEU107      0.2458
    122  O         50.0800   11.2520   28.4500 O.2   107  LEU107     -0.2730
    123  CB        51.0790    8.8780   29.9870 C.3   107  LEU107      0.0310
    124  CG        50.1670    8.6250   31.1880 C.3   107  LEU107      0.0022
    125  CD1       49.7520    7.1620   31.2190 C.3   107  LEU107      0.0001
    126  CD2       50.8970    9.0820   32.4370 C.3   107  LEU107      0.0001
    127  N         48.1850   10.0880   28.5550 N.am  108  PRO108     -0.2716
    128  CA        47.3730    8.8850   28.6350 C.3   108  PRO108      0.1536
    129  C         46.8050    8.3320   27.3470 C.2   108  PRO108      0.2598
    130  O         46.1080    7.3110   27.3420 O.2   108  PRO108     -0.2715
    131  CB        46.1840    9.3930   29.4850 C.3   108  PRO108      0.0310
    132  CG        45.9360   10.7700   28.8840 C.3   108  PRO108      0.0237
    133  CD        47.3280   11.3010   28.6450 C.3   108  PRO108      0.0939
    134  N         47.0060    8.9340   26.1950 N.am  109  LYS109     -0.1964
    135  CA        46.2500    8.6400   24.9680 C.3   109  LYS109      0.1728
    136  C         46.7080    7.3930   24.2190 C.2   109  LYS109      0.2616
    137  O         45.9170    6.7310   23.5340 O.2   109  LYS109     -0.2715
    138  CB        46.3240    9.8400   24.0050 C.3   109  LYS109      0.0311
    139  CG        45.3870   11.0110   24.3620 C.3   109  LYS109      0.0038
    140  CD        45.4670   12.1220   23.2830 C.3   109  LYS109      0.0206
    141  CE        44.7270   13.4020   23.5910 C.3   109  LYS109      0.1093
    142  NZ        43.2610   13.1800   23.8290 N.3   109  LYS109     -0.1314
    143  N         47.9980    7.0260   24.3100 N.am  110  ILE110     -0.1977
    144  CA        48.5780    6.0350   23.4080 C.3   110  ILE110      0.1596
    145  C         49.2060    4.8700   24.1860 C.2   110  ILE110      0.2287
    146  O         50.1340    5.1110   24.9780 O.2   110  ILE110     -0.2864
    147  CB        49.6440    6.6610   22.5310 C.3   110  ILE110      0.0276
    148  CG1       49.1920    7.9300   21.8190 C.3   110  ILE110      0.0022
    149  CG2       50.1440    5.6260   21.5180 C.3   110  ILE110      0.0022
    150  CD1       48.0280    7.7400   20.9230 C.3   110  ILE110      0.0001
    151  N         46.4810    8.2340   11.1160 N.3   118  PHE118     -0.1241
    152  CA        46.2090    9.6600   11.0370 C.3   118  PHE118      0.1605
    153  C         45.6270   10.0180    9.6790 C.2   118  PHE118      0.2264
    154  O         46.0330    9.5330    8.6420 O.2   118  PHE118     -0.2867
    155  CB        47.4660   10.4990   11.1940 C.3   118  PHE118      0.0534
    156  CG        48.0950   10.4750   12.5730 C.ar  118  PHE118     -0.0203
    157  CD1       47.6910   11.3670   13.5450 C.ar  118  PHE118     -0.0042
    158  CD2       49.0760    9.5550   12.8960 C.ar  118  PHE118     -0.0042
    159  CE1       48.2810   11.4040   14.8090 C.ar  118  PHE118     -0.0003
    160  CE2       49.6710    9.5930   14.1450 C.ar  118  PHE118     -0.0003
    161  CZ        49.2600   10.5010   15.0940 C.ar  118  PHE118     -0.0000
@<TRIPOS>BOND
     1   154   153    2
     2    81    80    2
     3   153   152    1
     4    80    79    1
     5    79    78    1
     6    79    82    1
     7   152   151    1
     8   152   155    1
     9   155   156    1
    10     1     2    1
    11     2     5    1
    12     2     3    1
    13    82    83    1
    14    88    85   ar
    15    88    90   ar
    16    83    85   ar
    17    83    84   ar
    18     5     6    1
    19    85    87   ar
    20    90    91   ar
    21    84    86   ar
    22   156   158   ar
    23   156   157   ar
    24    46    45    2
    25     3     4    2
    26    87    86   ar
    27    87    89   ar
    28    91    89   ar
    29   158   160   ar
    30    73    72    2
    31   157   159   ar
    32    69    67    1
    33     6     8   ar
    34     6     7   ar
    35    45    44    1
    36    43    44    1
    37   160   161   ar
    38     8    10   ar
    39    72    71    1
    40    44    47    1
    41     7     9   ar
    42    67    68    1
    43    67    64    1
    44   159   161   ar
    45    47    48    1
    46    50    52   ar
    47    50    48   ar
    48    75    77    1
    49    75    74    1
    50    10    11   ar
    51    52    53   ar
    52    61    60    2
    53    48    49   ar
    54    66    65    2
    55    92    93    1
    56    71    70    1
    57    71    74    1
    58    65    64    1
    59    65    70   am
    60    54    55    1
    61    64    63    1
    62    60    62   am
    63    60    59    1
    64    74    76    1
    65     9    11   ar
    66    63    56   am
    67    96    93    1
    68    58    59    1
    69    58    55    1
    70    11    12    1
    71    93    94    1
    72    27    26    2
    73    55    56    1
    74    56    57    2
    75    53    51   ar
    76    49    51   ar
    77    23    22   ar
    78    23    21   ar
    79    22    20   ar
    80    26    25    1
    81    34    35    2
    82    34    33    1
    83    94    95    2
    84    94    97   am
    85    32    33    1
    86    42    40    1
    87    21    19   ar
    88    20    18   ar
    89    33    36    1
    90    97    98    1
    91    25    24    1
    92    25    28    1
    93    24    15   am
    94    28    29    1
    95    36    37    1
    96    13    14    1
    97    40    39    2
    98    40    41    1
    99    19    18   ar
   100    29    31   ar
   101    29    30   ar
   102   106   104   ar
   103   106   107   ar
   104    18    17    1
   105    39    38    1
   106   108   107    1
   107   104   102   ar
   108   107   105   ar
   109    37    38    1
   110    15    14    1
   111    15    16    2
   112    14    17    1
   113    98    99    1
   114    98   101    1
   115   102   101    1
   116   102   103   ar
   117   105   103   ar
   118   150   148    1
   119    99   100    2
   120   149   147    1
   121   148   147    1
   122   147   144    1
   123   140   141    1
   124   140   139    1
   125   144   145    1
   126   144   143    1
   127   137   136    2
   128   141   142    1
   129   138   139    1
   130   138   135    1
   131   117   118    1
   132   117   114    1
   133   145   146    2
   134   136   143   am
   135   136   135    1
   136   110   109    1
   137   110   111    1
   138   111   112    2
   139   111   113   am
   140   135   134    1
   141   113   114    1
   142   114   115    1
   143   116   115    2
   144   134   129   am
   145   115   119   am
   146   130   129    2
   147   129   128    1
   148   119   120    1
   149   122   121    2
   150   121   127   am
   151   121   120    1
   152   127   128    1
   153   127   133    1
   154   120   123    1
   155   128   131    1
   156   133   132    1
   157   132   131    1
   158   123   124    1
   159   124   125    1
   160   124   126    1
