@<TRIPOS>MOLECULE
tmp/3o5sA00.pdb
 151 146 0 0 0
SMALL
GASTEIGER

@<TRIPOS>ATOM
      1  N        -35.0360   -1.0370   32.7810 N.3    28  MET28      -0.1230
      2  CA       -34.4450    0.2670   33.0880 C.3    28  MET28       0.1702
      3  C        -35.4240    1.4880   32.8900 C.2    28  MET28       0.2592
      4  O        -35.1010    2.6010   33.3060 O.2    28  MET28      -0.2718
      5  CB       -33.1970    0.4430   32.2030 C.3    28  MET28       0.0401
      6  CG       -33.5770    0.5650   30.6570 C.3    28  MET28       0.0596
      7  SD       -32.0620    0.6000   29.6650 S.3    28  MET28      -0.1393
      8  CE       -31.4860   -1.1810   29.8320 C.3    28  MET28       0.0692
      9  N        -36.6000    1.2940   32.2570 N.am   29  PHE29      -0.1976
     10  CA       -37.4900    2.3980   31.9110 C.3    29  PHE29       0.1639
     11  C        -38.4120    2.6430   33.1180 C.2    29  PHE29       0.2290
     12  O        -39.4860    2.0060   33.2370 O.2    29  PHE29      -0.2864
     13  CB       -38.3410    2.0420   30.6700 C.3    29  PHE29       0.0560
     14  CG       -37.5170    1.8540   29.3450 C.ar   29  PHE29      -0.0200
     15  CD1      -36.8950    0.6410   29.0440 C.ar   29  PHE29      -0.0042
     16  CD2      -37.4950    2.8450   28.3980 C.ar   29  PHE29      -0.0042
     17  CE1      -36.1690    0.4470   27.8300 C.ar   29  PHE29      -0.0003
     18  CE2      -36.7730    2.6660   27.1640 C.ar   29  PHE29      -0.0003
     19  CZ       -36.1050    1.5020   26.8890 C.ar   29  PHE29      -0.0000
     20  N        -35.3330    7.1360   17.0390 N.3    91  PHE91      -0.1241
     21  CA       -34.7800    5.8620   16.6420 C.3    91  PHE91       0.1605
     22  C        -35.7160    5.0760   15.7600 C.2    91  PHE91       0.2264
     23  O        -36.9160    5.3950   15.7100 O.2    91  PHE91      -0.2867
     24  CB       -34.3630    5.0420   17.8710 C.3    91  PHE91       0.0534
     25  CG       -35.4760    4.7050   18.8190 C.ar   91  PHE91      -0.0203
     26  CD1      -36.0070    5.6800   19.7130 C.ar   91  PHE91      -0.0042
     27  CD2      -35.9970    3.4050   18.8580 C.ar   91  PHE91      -0.0042
     28  CE1      -36.9900    5.3760   20.6310 C.ar   91  PHE91      -0.0003
     29  CE2      -37.0500    3.0720   19.7750 C.ar   91  PHE91      -0.0003
     30  CZ       -37.5260    4.0870   20.6980 C.ar   91  PHE91      -0.0000
     31  N        -34.7930   -8.2750   16.4650 N.3   102  TRP102     -0.1241
     32  CA       -34.4730   -6.9890   17.0770 C.3   102  TRP102      0.1605
     33  C        -33.4510   -6.2220   16.2220 C.2   102  TRP102      0.2264
     34  O        -32.2440   -6.4320   16.3460 O.2   102  TRP102     -0.2867
     35  CB       -33.9230   -7.1850   18.4980 C.3   102  TRP102      0.0550
     36  CG       -33.6860   -5.8690   19.2340 C.ar  102  TRP102      0.0003
     37  CD1      -33.8940   -4.5930   18.7430 C.ar  102  TRP102      0.0946
     38  CD2      -33.1620   -5.6990   20.5740 C.ar  102  TRP102      0.0152
     39  NE1      -33.5600   -3.6470   19.7130 N.ar  102  TRP102     -0.2442
     40  CE2      -33.1050   -4.2950   20.8360 C.ar  102  TRP102      0.0810
     41  CE3      -32.7460   -6.5940   21.5840 C.ar  102  TRP102      0.0012
     42  CZ2      -32.6460   -3.7760   22.0520 C.ar  102  TRP102      0.0191
     43  CZ3      -32.2950   -6.0610   22.8030 C.ar  102  TRP102      0.0001
     44  CH2      -32.2560   -4.6670   23.0230 C.ar  102  TRP102      0.0015
     45  N        -32.5440   -2.1850   15.3400 N.3   104  GLU104     -0.1245
     46  CA       -32.7980   -0.7940   15.8240 C.3   104  GLU104      0.1567
     47  C        -31.6260    0.1110   15.4840 C.2   104  GLU104      0.2260
     48  O        -30.4880   -0.3830   15.4890 O.2   104  GLU104     -0.2867
     49  CB       -33.0140   -0.8240   17.3260 C.3   104  GLU104      0.0388
     50  CG       -32.9500    0.5140   18.0730 C.3   104  GLU104      0.1160
     51  CD       -33.2460    0.3640   19.5510 C.2   104  GLU104      0.3649
     52  OE1      -33.5740   -0.7510   20.0210 O.co2 104  GLU104     -0.2457
     53  OE2      -33.1910    1.3800   20.2490 O.co2 104  GLU104     -0.2457
     54  N        -30.2560    4.1220   16.6060 N.3   106  ASP106     -0.1239
     55  CA       -30.4690    5.1180   17.6860 C.3   106  ASP106      0.1674
     56  C        -29.7430    6.4380   17.5400 C.2   106  ASP106      0.2266
     57  O        -28.5790    6.4980   17.1140 O.2   106  ASP106     -0.2867
     58  CB       -30.0400    4.5280   19.0550 C.3   106  ASP106      0.1410
     59  CG       -30.8030    3.2870   19.4120 C.2   106  ASP106      0.3668
     60  OD1      -32.0710    3.3490   19.6040 O.co2 106  ASP106     -0.2456
     61  OD2      -30.1380    2.2280   19.4970 O.co2 106  ASP106     -0.2456
     62  N        -29.4730    9.0250   20.6650 N.3   108  GLU108     -0.1245
     63  CA       -29.9250    9.1660   22.0290 C.3   108  GLU108      0.1567
     64  C        -29.1820   10.3340   22.7080 C.2   108  GLU108      0.2260
     65  O        -27.9810   10.4070   22.5480 O.2   108  GLU108     -0.2867
     66  CB       -29.6520    7.8420   22.7450 C.3   108  GLU108      0.0388
     67  CG       -30.8260    6.8990   22.5060 C.3   108  GLU108      0.1160
     68  CD       -30.5560    5.4770   22.9960 C.2   108  GLU108      0.3649
     69  OE1      -29.4300    4.9200   22.7630 O.co2 108  GLU108     -0.2457
     70  OE2      -31.5000    4.9590   23.6490 O.co2 108  GLU108     -0.2457
     71  N        -25.2570   10.2660   21.6620 N.3   118  GLN118     -0.1245
     72  CA       -24.8190    8.8890   21.5100 C.3   118  GLN118      0.1566
     73  C        -25.5050    8.2170   20.3090 C.2   118  GLN118      0.2260
     74  O        -26.7430    8.2810   20.1530 O.2   118  GLN118     -0.2867
     75  CB       -25.0900    8.0840   22.7920 C.3   118  GLN118      0.0367
     76  CG       -24.5860    6.6090   22.7010 C.3   118  GLN118      0.0905
     77  CD       -25.0820    5.7720   23.8840 C.2   118  GLN118      0.2608
     78  OE1      -24.5410    5.8880   24.9730 O.2   118  GLN118     -0.2717
     79  NE2      -26.1200    4.9270   23.6680 N.am  118  GLN118     -0.0878
     80  N        -25.8800    4.4180   18.1760 N.3   120  ASN120     -0.1240
     81  CA       -25.8640    3.0190   18.4700 C.3   120  ASN120      0.1653
     82  C        -26.8160    2.3310   17.4820 C.2   120  ASN120      0.2266
     83  O        -27.5770    3.0050   16.7470 O.2   120  ASN120     -0.2867
     84  CB       -26.3200    2.7760   19.9330 C.3   120  ASN120      0.1155
     85  CG       -25.9860    1.3660   20.4370 C.2   120  ASN120      0.2627
     86  OD1      -25.1090    0.7010   19.8980 O.2   120  ASN120     -0.2716
     87  ND2      -26.7020    0.9080   21.4700 N.am  120  ASN120     -0.0877
     88  N        -28.6790   -1.9530   16.9150 N.3   122  TYR122     -0.1241
     89  CA       -28.7810   -3.3590   17.2230 C.3   122  TYR122      0.1605
     90  C        -29.1820   -4.0350   15.9560 C.2   122  TYR122      0.2264
     91  O        -30.0850   -3.5410   15.2520 O.2   122  TYR122     -0.2867
     92  CB       -29.8870   -3.6060   18.2210 C.3   122  TYR122      0.0534
     93  CG       -29.6780   -2.9970   19.5760 C.ar  122  TYR122     -0.0201
     94  CD1      -29.8570   -1.6280   19.7980 C.ar  122  TYR122     -0.0009
     95  CD2      -29.3630   -3.8110   20.6760 C.ar  122  TYR122     -0.0009
     96  CE1      -29.6840   -1.0850   21.0980 C.ar  122  TYR122      0.0417
     97  CE2      -29.1710   -3.2840   21.9590 C.ar  122  TYR122      0.0417
     98  CZ       -29.3420   -1.9240   22.1640 C.ar  122  TYR122      0.1957
     99  OH       -29.1750   -1.4130   23.4490 O.3   122  TYR122     -0.2866
    100  N        -24.2110   -3.0470   21.4940 N.3   128  ASN128     -0.1240
    101  CA       -22.8420   -2.5800   21.8540 C.3   128  ASN128      0.1653
    102  C        -22.1190   -1.8900   20.7260 C.2   128  ASN128      0.2266
    103  O        -20.9390   -2.1320   20.5160 O.2   128  ASN128     -0.2867
    104  CB       -21.9470   -3.7230   22.3470 C.3   128  ASN128      0.1155
    105  CG       -22.5700   -4.4750   23.4830 C.2   128  ASN128      0.2627
    106  OD1      -23.0780   -3.8760   24.4340 O.2   128  ASN128     -0.2716
    107  ND2      -22.6040   -5.7910   23.3630 N.am  128  ASN128     -0.0877
    108  N        -22.1090    1.4580   20.7530 N.3   130  GLU130     -0.1245
    109  CA       -22.1820    2.8550   21.3160 C.3   130  GLU130      0.1567
    110  C        -21.0480    3.6940   20.8230 C.2   130  GLU130      0.2260
    111  O        -19.9010    3.2820   20.8540 O.2   130  GLU130     -0.2867
    112  CB       -22.1580    2.9080   22.8420 C.3   130  GLU130      0.0388
    113  CG       -23.4440    2.4870   23.4950 C.3   130  GLU130      0.1160
    114  CD       -23.5380    0.9750   23.5890 C.2   130  GLU130      0.3649
    115  OE1      -22.5640    0.2760   23.1660 O.co2 130  GLU130     -0.2457
    116  OE2      -24.5840    0.4970   24.0870 O.co2 130  GLU130     -0.2457
    117  N        -37.3600    9.3450   28.8140 N.3   183  TRP183     -0.1241
    118  CA       -37.6200    8.5250   29.9850 C.3   183  TRP183      0.1605
    119  C        -36.4600    8.6150   30.9820 C.2   183  TRP183      0.2264
    120  O        -35.3280    8.9930   30.6320 O.2   183  TRP183     -0.2867
    121  CB       -37.8300    7.0590   29.5130 C.3   183  TRP183      0.0550
    122  CG       -36.7110    6.5550   28.6460 C.ar  183  TRP183      0.0003
    123  CD1      -36.5610    6.7710   27.2730 C.ar  183  TRP183      0.0946
    124  CD2      -35.5860    5.7050   29.0510 C.ar  183  TRP183      0.0152
    125  NE1      -35.4030    6.1310   26.8400 N.ar  183  TRP183     -0.2442
    126  CE2      -34.7970    5.4680   27.8850 C.ar  183  TRP183      0.0810
    127  CE3      -35.1760    5.1300   30.2810 C.ar  183  TRP183      0.0012
    128  CZ2      -33.5880    4.6930   27.9200 C.ar  183  TRP183      0.0191
    129  CZ3      -34.0060    4.3680   30.3290 C.ar  183  TRP183      0.0001
    130  CH2      -33.2400    4.1220   29.1330 C.ar  183  TRP183      0.0015
    131  N        -29.3360    1.7110   35.7690 N.3   188  VAL188     -0.1245
    132  CA       -28.3120    2.0780   34.7310 C.3   188  VAL188      0.1561
    133  C        -27.5920    3.3760   35.0760 C.2   188  VAL188      0.2260
    134  O        -27.3550    4.2480   34.2260 O.2   188  VAL188     -0.2867
    135  CB       -28.9630    2.1850   33.3300 C.3   188  VAL188      0.0252
    136  CG1      -29.4400    0.7970   32.8870 C.3   188  VAL188      0.0019
    137  CG2      -30.1330    3.2690   33.2900 C.3   188  VAL188      0.0019
    138  N        -24.4010    4.3620   33.1540 N.3   191  TRP191     -0.1241
    139  CA       -24.6150    4.8790   31.8430 C.3   191  TRP191      0.1605
    140  C        -25.2600    6.2720   31.9140 C.2   191  TRP191      0.2264
    141  O        -24.7170    7.2170   31.3890 O.2   191  TRP191     -0.2867
    142  CB       -25.4520    3.8810   31.0160 C.3   191  TRP191      0.0550
    143  CG       -25.8340    4.3450   29.6230 C.ar  191  TRP191      0.0003
    144  CD1      -25.0000    4.9680   28.6950 C.ar  191  TRP191      0.0946
    145  CD2      -27.1300    4.1880   28.9680 C.ar  191  TRP191      0.0152
    146  NE1      -25.7150    5.1960   27.5160 N.ar  191  TRP191     -0.2442
    147  CE2      -27.0150    4.7670   27.6690 C.ar  191  TRP191      0.0810
    148  CE3      -28.3740    3.6350   29.3680 C.ar  191  TRP191      0.0012
    149  CZ2      -28.0870    4.8160   26.7710 C.ar  191  TRP191      0.0191
    150  CZ3      -29.4710    3.6920   28.4690 C.ar  191  TRP191      0.0001
    151  CH2      -29.3090    4.2730   27.1870 C.ar  191  TRP191      0.0015
@<TRIPOS>BOND
     1    91    90    2
     2    45    46    1
     3    47    48    2
     4    47    46    1
     5    23    22    2
     6    22    21    1
     7    46    49    1
     8    90    89    1
     9    33    34    2
    10    33    32    1
    11    31    32    1
    12    54    55    1
    13    21    20    1
    14    21    24    1
    15    83    82    2
    16    88    89    1
    17    32    35    1
    18    57    56    2
    19    89    92    1
    20    49    50    1
    21    82    81    1
    22    56    55    1
    23    55    58    1
    24    24    25    1
    25    50    51    1
    26    80    81    1
    27    92    93    1
    28    81    84    1
    29    35    36    1
    30    37    36   ar
    31    37    39   ar
    32    25    27   ar
    33    25    26   ar
    34    27    29   ar
    35    58    59    1
    36    36    38   ar
    37    59    61   ar
    38    59    60   ar
    39    51    52   ar
    40    51    53   ar
    41    93    94   ar
    42    93    95   ar
    43    26    28   ar
    44    39    40   ar
    45    29    30   ar
    46    94    96   ar
    47    86    85    2
    48    84    85    1
    49    74    73    2
    50    73    72    1
    51    85    87   am
    52   103   102    2
    53    38    40   ar
    54    38    41   ar
    55    28    30   ar
    56    62    63    1
    57    95    97   ar
    58   102   101    1
    59   108   109    1
    60   110   111    2
    61   110   109    1
    62    40    42   ar
    63    96    98   ar
    64   109   112    1
    65   100   101    1
    66    72    71    1
    67    72    75    1
    68    41    43   ar
    69   101   104    1
    70    97    98   ar
    71    63    64    1
    72    63    66    1
    73    42    44   ar
    74    98    99    1
    75   104   105    1
    76    67    66    1
    77    67    68    1
    78    65    64    2
    79    76    75    1
    80    76    77    1
    81    69    68   ar
    82    43    44   ar
    83   112   113    1
    84    68    70   ar
    85   115   114   ar
    86   107   105   am
    87   105   106    2
    88   113   114    1
    89   114   116   ar
    90    79    77   am
    91    77    78    2
    92   149   151   ar
    93   149   147   ar
    94   125   123   ar
    95   125   126   ar
    96    19    18   ar
    97    19    17   ar
    98    18    16   ar
    99   151   150   ar
   100   123   122   ar
   101   146   147   ar
   102   146   144   ar
   103   147   145   ar
   104    17    15   ar
   105   126   128   ar
   106   126   124   ar
   107   128   130   ar
   108    16    14   ar
   109   150   148   ar
   110   122   124   ar
   111   122   121    1
   112   144   143   ar
   113   117   118    1
   114   145   148   ar
   115   145   143   ar
   116    15    14   ar
   117   124   127   ar
   118   130   129   ar
   119    14    13    1
   120   121   118    1
   121   143   142    1
   122     7     8    1
   123     7     6    1
   124   118   119    1
   125   127   129   ar
   126   120   119    2
   127     6     5    1
   128    13    10    1
   129   142   139    1
   130   141   140    2
   131   139   140    1
   132   139   138    1
   133    10     9    1
   134    10    11    1
   135     5     2    1
   136     9     3   am
   137     1     2    1
   138   136   135    1
   139     3     2    1
   140     3     4    2
   141    11    12    2
   142   137   135    1
   143   135   132    1
   144   134   133    2
   145   132   133    1
   146   132   131    1
