@<TRIPOS>MOLECULE
tmp/3o5uB01.pdb
 169 167 0 0 0
SMALL
GASTEIGER

@<TRIPOS>ATOM
      1  N          8.2390   -8.7970    4.5750 N.3    12  PHE12      -0.1241
      2  CA         7.9970  -10.0490    3.8300 C.3    12  PHE12       0.1605
      3  C          6.9660  -10.9660    4.5440 C.2    12  PHE12       0.2264
      4  O          6.0100  -11.4550    3.9790 O.2    12  PHE12      -0.2867
      5  CB         9.3190  -10.7940    3.6480 C.3    12  PHE12       0.0534
      6  CG         9.1590  -12.1860    3.0670 C.ar   12  PHE12      -0.0203
      7  CD1        8.8380  -12.3650    1.7360 C.ar   12  PHE12      -0.0042
      8  CD2        9.3480  -13.3180    3.8650 C.ar   12  PHE12      -0.0042
      9  CE1        8.6910  -13.6480    1.2030 C.ar   12  PHE12      -0.0003
     10  CE2        9.2200  -14.6020    3.3440 C.ar   12  PHE12      -0.0003
     11  CZ         8.8910  -14.7640    2.0060 C.ar   12  PHE12      -0.0000
     12  N          3.2040  -12.2890    3.4270 N.3    16  ILE16      -0.1245
     13  CA         2.7540  -13.6760    3.3860 C.3    16  ILE16       0.1561
     14  C          1.5260  -13.9000    4.2640 C.2    16  ILE16       0.2260
     15  O          0.5820  -14.5740    3.8630 O.2    16  ILE16      -0.2867
     16  CB         3.9060  -14.6250    3.7450 C.3    16  ILE16       0.0252
     17  CG1        5.1180  -14.3590    2.8160 C.3    16  ILE16       0.0019
     18  CG2        3.4580  -16.1020    3.7100 C.3    16  ILE16       0.0019
     19  CD1        4.8070  -14.6240    1.3270 C.3    16  ILE16       0.0001
     20  N         -1.4240  -12.4770    2.6010 N.3    19  PHE19      -0.1227
     21  CA        -1.7620  -13.3780    1.5160 C.3    19  PHE19       0.1736
     22  C         -2.5750  -14.5630    2.0380 C.2    19  PHE19       0.2595
     23  O         -3.5570  -14.9670    1.3810 O.2    19  PHE19      -0.2718
     24  CB        -0.5090  -13.8490    0.7660 C.3    19  PHE19       0.0547
     25  CG        -0.8060  -14.6190   -0.4820 C.ar   19  PHE19      -0.0202
     26  CD1       -0.9120  -13.9670   -1.7150 C.ar   19  PHE19      -0.0042
     27  CD2       -0.9890  -15.9960   -0.4470 C.ar   19  PHE19      -0.0042
     28  CE1       -1.1840  -14.6780   -2.8700 C.ar   19  PHE19      -0.0003
     29  CE2       -1.2610  -16.6890   -1.5850 C.ar   19  PHE19      -0.0003
     30  CZ        -1.3600  -16.0290   -2.8070 C.ar   19  PHE19      -0.0000
     31  N         -2.1770  -15.1150    3.2010 N.am   20  ILE20      -0.1980
     32  CA        -2.7820  -16.3540    3.7280 C.3    20  ILE20       0.1595
     33  C         -4.2600  -16.0660    4.1360 C.2    20  ILE20       0.2287
     34  O         -5.1640  -16.8470    3.8150 O.2    20  ILE20      -0.2864
     35  CB        -1.9590  -16.9570    4.9150 C.3    20  ILE20       0.0276
     36  CG1       -0.6730  -17.6480    4.4650 C.3    20  ILE20       0.0022
     37  CG2       -2.7910  -17.9360    5.7830 C.3    20  ILE20       0.0022
     38  CD1        0.4100  -17.7330    5.6470 C.3    20  ILE20       0.0001
     39  N         -5.7420  -19.5810    2.7880 N.3    25  ILE25      -0.1245
     40  CA        -4.9570  -20.8240    2.6570 C.3    25  ILE25       0.1561
     41  C         -5.3180  -21.7800    3.8340 C.2    25  ILE25       0.2260
     42  O         -5.1790  -21.4110    4.9970 O.2    25  ILE25      -0.2867
     43  CB        -3.4020  -20.5570    2.6580 C.3    25  ILE25       0.0252
     44  CG1       -2.9890  -19.6060    1.5290 C.3    25  ILE25       0.0019
     45  CG2       -2.6500  -21.8690    2.5570 C.3    25  ILE25       0.0019
     46  CD1       -3.4260  -20.1130    0.1750 C.3    25  ILE25       0.0001
     47  N         -3.7400  -27.0740    2.5140 N.3    29  GLU29      -0.1231
     48  CA        -3.0310  -26.3400    1.4560 C.3    29  GLU29       0.1699
     49  C         -1.6340  -25.9100    1.9260 C.2    29  GLU29       0.2592
     50  O         -0.6710  -25.9520    1.1540 O.2    29  GLU29      -0.2718
     51  CB        -3.8350  -25.1290    1.0070 C.3    29  GLU29       0.0402
     52  CG        -5.0910  -25.5180    0.2130 C.3    29  GLU29       0.1161
     53  CD        -6.0070  -24.3290   -0.0760 C.2    29  GLU29       0.3649
     54  OE1       -5.9180  -23.2540    0.5950 O.co2  29  GLU29      -0.2457
     55  OE2       -6.8530  -24.4900   -0.9900 O.co2  29  GLU29      -0.2457
     56  N         -1.5520  -25.5240    3.1990 N.am   30  TYR30      -0.1976
     57  CA        -0.3280  -25.1080    3.8370 C.3    30  TYR30       0.1639
     58  C          0.6580  -26.2850    3.8440 C.2    30  TYR30       0.2290
     59  O          1.8430  -26.1390    3.5010 O.2    30  TYR30      -0.2864
     60  CB        -0.6490  -24.6580    5.2570 C.3    30  TYR30       0.0560
     61  CG         0.5320  -24.4200    6.1480 C.ar   30  TYR30      -0.0198
     62  CD1        0.7290  -25.1950    7.2710 C.ar   30  TYR30      -0.0009
     63  CD2        1.4740  -23.3950    5.8690 C.ar   30  TYR30      -0.0009
     64  CE1        1.8400  -24.9710    8.1310 C.ar   30  TYR30       0.0417
     65  CE2        2.5740  -23.1710    6.7070 C.ar   30  TYR30       0.0417
     66  CZ         2.7550  -23.9650    7.8260 C.ar   30  TYR30       0.1957
     67  OH         3.8290  -23.7510    8.6540 O.3    30  TYR30      -0.2866
     68  N          0.5350  -28.8590    1.8230 N.3    32  THR32      -0.1203
     69  CA         0.8930  -29.1620    0.4400 C.3    32  THR32       0.1994
     70  C          2.0570  -28.2790   -0.0300 C.2    32  THR32       0.2617
     71  O          3.0020  -28.7630   -0.6710 O.2    32  THR32      -0.2717
     72  CB        -0.3050  -28.9710   -0.4770 C.3    32  THR32       0.1784
     73  OG1       -1.2000  -30.0590   -0.2920 O.3    32  THR32      -0.2211
     74  CG2        0.1080  -28.9240   -1.9160 C.3    32  THR32       0.0376
     75  N          1.9910  -26.9990    0.3270 N.am   33  ILE33      -0.1979
     76  CA         3.0400  -26.0410   -0.0090 C.3    33  ILE33       0.1595
     77  C          4.3610  -26.4170    0.6610 C.2    33  ILE33       0.2287
     78  O          5.4060  -26.3760    0.0290 O.2    33  ILE33      -0.2864
     79  CB         2.6150  -24.6140    0.3870 C.3    33  ILE33       0.0276
     80  CG1        1.4150  -24.1820   -0.4780 C.3    33  ILE33       0.0022
     81  CG2        3.8160  -23.6210    0.2530 C.3    33  ILE33       0.0022
     82  CD1        0.6450  -22.9530    0.0260 C.3    33  ILE33       0.0001
     83  N          5.8950  -29.4340   -0.9260 N.3    36  TYR36      -0.1227
     84  CA         6.3580  -29.0670   -2.2460 C.3    36  TYR36       0.1736
     85  C          7.6950  -28.3110   -2.1540 C.2    36  TYR36       0.2595
     86  O          8.5910  -28.5360   -2.9610 O.2    36  TYR36      -0.2718
     87  CB         5.3350  -28.2120   -2.9930 C.3    36  TYR36       0.0548
     88  CG         5.8410  -27.7080   -4.3540 C.ar   36  TYR36      -0.0200
     89  CD1        5.6500  -28.4650   -5.5080 C.ar   36  TYR36      -0.0009
     90  CD2        6.5360  -26.4870   -4.4730 C.ar   36  TYR36      -0.0009
     91  CE1        6.1540  -28.0150   -6.7640 C.ar   36  TYR36       0.0417
     92  CE2        7.0400  -26.0370   -5.7160 C.ar   36  TYR36       0.0417
     93  CZ         6.8300  -26.8250   -6.8540 C.ar   36  TYR36       0.1957
     94  OH         7.3110  -26.4460   -8.0790 O.3    36  TYR36      -0.2866
     95  N          7.8140  -27.3950   -1.1960 N.am   37  MET37      -0.1979
     96  CA         9.0770  -26.7150   -0.9730 C.3    37  MET37       0.1605
     97  C         10.1480  -27.7620   -0.6180 C.2    37  MET37       0.2287
     98  O         11.2910  -27.6740   -1.0710 O.2    37  MET37      -0.2864
     99  CB         8.9550  -25.6490    0.1190 C.3    37  MET37       0.0413
    100  CG         8.0230  -24.4850   -0.2520 C.3    37  MET37       0.0598
    101  SD         7.9190  -23.2390    1.0860 S.3    37  MET37      -0.1393
    102  CE         9.5560  -22.4820    1.0170 C.3    37  MET37       0.0692
    103  N         16.1930  -25.4200   -6.4530 N.3    46  TRP46      -0.1241
    104  CA        15.9860  -23.9890   -6.0690 C.3    46  TRP46       0.1605
    105  C         16.5560  -23.0000   -7.1060 C.2    46  TRP46       0.2264
    106  O         15.8980  -22.0200   -7.4610 O.2    46  TRP46      -0.2867
    107  CB        16.4800  -23.6690   -4.6520 C.3    46  TRP46       0.0550
    108  CG        15.5330  -24.1530   -3.5900 C.ar   46  TRP46       0.0003
    109  CD1       15.8060  -25.0400   -2.5940 C.ar   46  TRP46       0.0946
    110  CD2       14.1380  -23.7920   -3.4330 C.ar   46  TRP46       0.0152
    111  NE1       14.6810  -25.2550   -1.8220 N.ar   46  TRP46      -0.2442
    112  CE2       13.6450  -24.5080   -2.3080 C.ar   46  TRP46       0.0810
    113  CE3       13.2610  -22.9360   -4.1320 C.ar   46  TRP46       0.0012
    114  CZ2       12.3180  -24.3990   -1.8620 C.ar   46  TRP46       0.0191
    115  CZ3       11.9350  -22.8490   -3.7020 C.ar   46  TRP46       0.0001
    116  CH2       11.4770  -23.5810   -2.5730 C.ar   46  TRP46       0.0015
    117  N         14.3380  -22.9690  -10.0290 N.3    49  TRP49      -0.1227
    118  CA        12.9480  -22.5710   -9.7290 C.3    49  TRP49       0.1737
    119  C         12.8830  -21.0580   -9.5280 C.2    49  TRP49       0.2595
    120  O         12.0810  -20.3540  -10.1450 O.2    49  TRP49      -0.2718
    121  CB        12.4270  -23.3170   -8.4690 C.3    49  TRP49       0.0564
    122  CG        10.9100  -23.2550   -8.2290 C.ar   49  TRP49       0.0003
    123  CD1        9.9860  -24.2170   -8.5580 C.ar   49  TRP49       0.0946
    124  CD2       10.1750  -22.1970   -7.6070 C.ar   49  TRP49       0.0152
    125  NE1        8.7240  -23.8280   -8.1800 N.ar   49  TRP49      -0.2442
    126  CE2        8.8070  -22.5830   -7.6010 C.ar   49  TRP49       0.0810
    127  CE3       10.5260  -20.9470   -7.0700 C.ar   49  TRP49       0.0012
    128  CZ2        7.7980  -21.7680   -7.0690 C.ar   49  TRP49       0.0191
    129  CZ3        9.5150  -20.1390   -6.5180 C.ar   49  TRP49       0.0001
    130  CH2        8.1610  -20.5500   -6.5490 C.ar   49  TRP49       0.0015
    131  N         13.7070  -20.5670   -8.6190 N.am   50  LEU50      -0.1980
    132  CA        13.8030  -19.1380   -8.3590 C.3    50  LEU50       0.1596
    133  C         14.2660  -18.3870   -9.6150 C.2    50  LEU50       0.2287
    134  O         13.7460  -17.3300   -9.9360 O.2    50  LEU50      -0.2864
    135  CB        14.7550  -18.9010   -7.1960 C.3    50  LEU50       0.0297
    136  CG        14.3740  -19.4730   -5.8230 C.3    50  LEU50       0.0022
    137  CD1       15.6000  -19.4700   -4.9080 C.3    50  LEU50       0.0001
    138  CD2       13.1920  -18.7020   -5.2020 C.3    50  LEU50       0.0001
    139  N         11.8550  -15.3470  -10.6170 N.3    54  PHE54      -0.1241
    140  CA        12.2000  -14.0900   -9.9280 C.3    54  PHE54       0.1605
    141  C         13.4680  -13.4200  -10.3770 C.2    54  PHE54       0.2264
    142  O         13.6430  -12.2240  -10.1400 O.2    54  PHE54      -0.2867
    143  CB        12.2120  -14.2760   -8.3810 C.3    54  PHE54       0.0534
    144  CG        10.8870  -14.7220   -7.8220 C.ar   54  PHE54      -0.0203
    145  CD1       10.7940  -15.8500   -7.0530 C.ar   54  PHE54      -0.0042
    146  CD2        9.7170  -14.0310   -8.1340 C.ar   54  PHE54      -0.0042
    147  CE1        9.5570  -16.2750   -6.5680 C.ar   54  PHE54      -0.0003
    148  CE2        8.4660  -14.4740   -7.6710 C.ar   54  PHE54      -0.0003
    149  CZ         8.4020  -15.5760   -6.8710 C.ar   54  PHE54      -0.0000
    150  N          4.9230  -28.1350  -11.6130 N.3   179  LEU179     -0.1245
    151  CA         4.1190  -26.9380  -11.3400 C.3   179  LEU179      0.1561
    152  C          3.7610  -26.2930  -12.6550 C.2   179  LEU179      0.2260
    153  O          2.6460  -25.8300  -12.8380 O.2   179  LEU179     -0.2867
    154  CB         4.8530  -25.9550  -10.4300 C.3   179  LEU179      0.0270
    155  CG         4.3850  -24.5080  -10.2540 C.3   179  LEU179      0.0019
    156  CD1        3.1510  -24.3970   -9.3510 C.3   179  LEU179      0.0001
    157  CD2        5.4950  -23.6900   -9.6780 C.3   179  LEU179      0.0001
    158  N          0.3030  -28.5200  -12.6680 N.3   183  TYR183     -0.1241
    159  CA        -0.5660  -27.6900  -11.8110 C.3   183  TYR183      0.1605
    160  C         -1.0000  -26.3870  -12.4600 C.2   183  TYR183      0.2264
    161  O         -2.1230  -25.9610  -12.2390 O.2   183  TYR183     -0.2867
    162  CB         0.0390  -27.4100  -10.4140 C.3   183  TYR183      0.0534
    163  CG         0.7290  -28.5870   -9.8020 C.ar  183  TYR183     -0.0201
    164  CD1        2.0120  -28.4640   -9.2870 C.ar  183  TYR183     -0.0009
    165  CD2        0.1160  -29.8430   -9.7590 C.ar  183  TYR183     -0.0009
    166  CE1        2.6750  -29.5580   -8.7380 C.ar  183  TYR183      0.0417
    167  CE2        0.7780  -30.9540   -9.2110 C.ar  183  TYR183      0.0417
    168  CZ         2.0610  -30.8000   -8.7130 C.ar  183  TYR183      0.1957
    169  OH         2.7300  -31.8720   -8.1770 O.3   183  TYR183     -0.2866
@<TRIPOS>BOND
     1   153   152    2
     2   158   159    1
     3   152   151    1
     4   160   161    2
     5   160   159    1
     6   159   162    1
     7   150   151    1
     8   151   154    1
     9   139   140    1
    10   154   155    1
    11   162   163    1
    12   141   142    2
    13   141   140    1
    14   155   157    1
    15   155   156    1
    16   120   119    2
    17   117   118    1
    18   134   133    2
    19   140   143    1
    20   163   165   ar
    21   163   164   ar
    22   165   167   ar
    23   118   119    1
    24   118   121    1
    25   133   132    1
    26   119   131   am
    27   164   166   ar
    28   167   168   ar
    29   166   168   ar
    30   168   169    1
    31   131   132    1
    32   123   122   ar
    33   123   125   ar
    34   121   122    1
    35   143   144    1
    36   132   135    1
    37   122   124   ar
    38   125   126   ar
    39   146   144   ar
    40   146   148   ar
    41    94    93    1
    42   144   145   ar
    43   148   149   ar
    44   124   126   ar
    45   124   127   ar
    46   126   128   ar
    47   106   105    2
    48   135   136    1
    49   105   104    1
    50   127   129   ar
    51   128   130   ar
    52   145   147   ar
    53   149   147   ar
    54    93    91   ar
    55    93    92   ar
    56    91    89   ar
    57   130   129   ar
    58   103   104    1
    59   104   107    1
    60   136   138    1
    61   136   137    1
    62    92    90   ar
    63    89    88   ar
    64   107   108    1
    65    90    88   ar
    66    88    87    1
    67   113   115   ar
    68   113   110   ar
    69   115   116   ar
    70   108   110   ar
    71   108   109   ar
    72   110   112   ar
    73    87    84    1
    74    86    85    2
    75    28    30   ar
    76    28    26   ar
    77    30    29   ar
    78   109   111   ar
    79   116   114   ar
    80   112   114   ar
    81   112   111   ar
    82    84    85    1
    83    84    83    1
    84    85    95   am
    85    74    72    1
    86    26    25   ar
    87    29    27   ar
    88    95    96    1
    89    98    97    2
    90    55    53   ar
    91    96    97    1
    92    96    99    1
    93    71    70    2
    94    25    27   ar
    95    25    24    1
    96    80    82    1
    97    80    79    1
    98    72    73    1
    99    72    69    1
   100   100    99    1
   101   100   101    1
   102    53    52    1
   103    53    54   ar
   104    70    75   am
   105    70    69    1
   106    76    75    1
   107    76    79    1
   108    76    77    1
   109    78    77    2
   110    46    44    1
   111    52    51    1
   112    81    79    1
   113    69    68    1
   114    24    21    1
   115    51    48    1
   116   102   101    1
   117    50    49    2
   118     9     7   ar
   119     9    11   ar
   120    19    17    1
   121    23    22    2
   122    48    49    1
   123    48    47    1
   124    21    22    1
   125    21    20    1
   126    44    43    1
   127     7     6   ar
   128    49    56   am
   129    11    10   ar
   130    22    31   am
   131    45    43    1
   132    40    43    1
   133    40    39    1
   134    40    41    1
   135    17    16    1
   136     6     5    1
   137     6     8   ar
   138    56    57    1
   139    31    32    1
   140    10     8   ar
   141    13    12    1
   142    13    16    1
   143    13    14    1
   144    59    58    2
   145     5     2    1
   146    18    16    1
   147    32    33    1
   148    32    35    1
   149    34    33    2
   150     2     3    1
   151     2     1    1
   152    41    42    2
   153    57    58    1
   154    57    60    1
   155    15    14    2
   156     4     3    2
   157    36    35    1
   158    36    38    1
   159    35    37    1
   160    60    61    1
   161    63    61   ar
   162    63    65   ar
   163    61    62   ar
   164    65    66   ar
   165    62    64   ar
   166    66    64   ar
   167    66    67    1
