@<TRIPOS>MOLECULE
tmp/3o5uB02.pdb
 129 125 0 0 0
SMALL
GASTEIGER

@<TRIPOS>ATOM
      1  N         17.1150  -23.4410  -10.3300 N.3    48  LEU48      -0.1245
      2  CA        16.2030  -23.5430  -11.4730 C.3    48  LEU48       0.1561
      3  C         14.8660  -22.8490  -11.2410 C.2    48  LEU48       0.2260
      4  O         14.3250  -22.2140  -12.1480 O.2    48  LEU48      -0.2867
      5  CB        15.9690  -25.0100  -11.8280 C.3    48  LEU48       0.0270
      6  CG        15.1890  -25.3950  -13.0980 C.3    48  LEU48       0.0019
      7  CD1       16.0290  -25.2460  -14.3450 C.3    48  LEU48       0.0001
      8  CD2       14.6570  -26.8640  -12.9780 C.3    48  LEU48       0.0001
      9  N         15.2420  -18.9230  -10.3440 N.3    51  ASP51      -0.1225
     10  CA        15.6330  -18.2390  -11.6000 C.3    51  ASP51       0.1805
     11  C         14.4480  -18.0890  -12.5670 C.2    51  ASP51       0.2597
     12  O         14.2460  -17.0190  -13.1470 O.2    51  ASP51      -0.2718
     13  CB        16.8230  -18.9230  -12.2790 C.3    51  ASP51       0.1424
     14  CG        18.1120  -18.7500  -11.4900 C.2    51  ASP51       0.3668
     15  OD1       18.1400  -17.9950  -10.4870 O.co2  51  ASP51      -0.2456
     16  OD2       19.0990  -19.4020  -11.8560 O.co2  51  ASP51      -0.2456
     17  N         13.6440  -19.1440  -12.6830 N.am   52  ALA52      -0.1979
     18  CA        12.4990  -19.1360  -13.5870 C.3    52  ALA52       0.1597
     19  C         11.5090  -18.0260  -13.3100 C.2    52  ALA52       0.2287
     20  O         11.0110  -17.3850  -14.2580 O.2    52  ALA52      -0.2864
     21  CB        11.8030  -20.4780  -13.5530 C.3    52  ALA52       0.0319
     22  N         18.2130  -13.1160  -17.7330 N.3    73  ILE73      -0.1231
     23  CA        18.6890  -13.9150  -16.5820 C.3    73  ILE73       0.1692
     24  C         19.9540  -14.7340  -16.8700 C.2    73  ILE73       0.2592
     25  O         20.1470  -15.2000  -17.9830 O.2    73  ILE73      -0.2718
     26  CB        17.5820  -14.8650  -16.0460 C.3    73  ILE73       0.0266
     27  CG1       17.0900  -15.7870  -17.1320 C.3    73  ILE73       0.0019
     28  CG2       16.3590  -14.0810  -15.4990 C.3    73  ILE73       0.0020
     29  CD1       16.1340  -16.8380  -16.5950 C.3    73  ILE73       0.0001
     30  N         20.8050  -14.9260  -15.8700 N.am   74  GLN74      -0.1966
     31  CA        21.8710  -15.9170  -16.0040 C.3    74  GLN74       0.1733
     32  C         21.3340  -17.3460  -16.0820 C.2    74  GLN74       0.2617
     33  O         21.8390  -18.1530  -16.8420 O.2    74  GLN74      -0.2715
     34  CB        22.8700  -15.7820  -14.8620 C.3    74  GLN74       0.0408
     35  CG        24.1860  -16.4500  -15.1110 C.3    74  GLN74       0.0908
     36  CD        25.1180  -16.2300  -13.9530 C.2    74  GLN74       0.2608
     37  OE1       25.4770  -17.1720  -13.2500 O.2    74  GLN74      -0.2717
     38  NE2       25.4930  -14.9730  -13.7190 N.am   74  GLN74      -0.0878
     39  N         20.2940  -17.6570  -15.3090 N.am   75  GLY75      -0.1941
     40  CA        19.8610  -19.0470  -15.1240 C.3    75  GLY75       0.1998
     41  C         20.8940  -19.8650  -14.3740 C.2    75  GLY75       0.2481
     42  O         21.8890  -19.3110  -13.8750 O.2    75  GLY75      -0.2729
     43  N         20.6650  -21.1890  -14.2710 N.am   76  PRO76      -0.2715
     44  CA        21.4560  -22.0590  -13.4060 C.3    76  PRO76       0.1536
     45  C         22.5960  -22.7740  -14.1090 C.2    76  PRO76       0.2598
     46  O         23.3150  -23.5520  -13.4800 O.2    76  PRO76      -0.2715
     47  CB        20.4230  -23.1060  -12.9410 C.3    76  PRO76       0.0310
     48  CG        19.4750  -23.2060  -14.0080 C.3    76  PRO76       0.0237
     49  CD        19.4660  -21.8890  -14.7660 C.3    76  PRO76       0.0939
     50  N         22.7550  -22.5410  -15.4080 N.am   77  PHE77      -0.1974
     51  CA        23.6480  -23.3960  -16.1890 C.3    77  PHE77       0.1639
     52  C         25.0110  -22.7670  -16.5400 C.2    77  PHE77       0.2290
     53  O         25.7550  -23.3390  -17.2950 O.2    77  PHE77      -0.2864
     54  CB        22.9180  -23.9250  -17.4510 C.3    77  PHE77       0.0560
     55  CG        21.6390  -24.7350  -17.1570 C.ar   77  PHE77      -0.0200
     56  CD1       21.7000  -25.9590  -16.5020 C.ar   77  PHE77      -0.0042
     57  CD2       20.3880  -24.2780  -17.5830 C.ar   77  PHE77      -0.0042
     58  CE1       20.5310  -26.7130  -16.2450 C.ar   77  PHE77      -0.0003
     59  CE2       19.2230  -25.0320  -17.3420 C.ar   77  PHE77      -0.0003
     60  CZ        19.2960  -26.2560  -16.6590 C.ar   77  PHE77      -0.0000
     61  N         22.7880  -29.2760  -21.7180 N.3   133  TYR133     -0.1241
     62  CA        23.9060  -28.4040  -21.3600 C.3   133  TYR133      0.1605
     63  C         25.0190  -29.2640  -20.8120 C.2   133  TYR133      0.2264
     64  O         24.7610  -30.1310  -19.9920 O.2   133  TYR133     -0.2867
     65  CB        23.5020  -27.4630  -20.2580 C.3   133  TYR133      0.0534
     66  CG        22.8190  -26.2360  -20.6920 C.ar  133  TYR133     -0.0201
     67  CD1       23.5210  -25.1910  -21.3210 C.ar  133  TYR133     -0.0009
     68  CD2       21.4660  -26.0660  -20.4220 C.ar  133  TYR133     -0.0009
     69  CE1       22.8540  -24.0070  -21.7000 C.ar  133  TYR133      0.0417
     70  CE2       20.7970  -24.9040  -20.7720 C.ar  133  TYR133      0.0417
     71  CZ        21.4840  -23.8820  -21.4150 C.ar  133  TYR133      0.1957
     72  OH        20.7630  -22.7610  -21.7570 O.3   133  TYR133     -0.2866
     73  N         14.4440  -25.2090  -25.2770 N.3   168  TYR168     -0.1241
     74  CA        14.9550  -26.0160  -24.1730 C.3   168  TYR168      0.1605
     75  C         13.7830  -26.3080  -23.2540 C.2   168  TYR168      0.2264
     76  O         13.0700  -25.3730  -22.8540 O.2   168  TYR168     -0.2867
     77  CB        16.0460  -25.2640  -23.3640 C.3   168  TYR168      0.0534
     78  CG        16.6210  -26.1030  -22.2280 C.ar  168  TYR168     -0.0201
     79  CD1       17.6640  -26.9680  -22.4600 C.ar  168  TYR168     -0.0009
     80  CD2       16.0820  -26.0570  -20.9290 C.ar  168  TYR168     -0.0009
     81  CE1       18.1950  -27.7540  -21.4350 C.ar  168  TYR168      0.0417
     82  CE2       16.6060  -26.8490  -19.8810 C.ar  168  TYR168      0.0417
     83  CZ        17.6690  -27.6950  -20.1530 C.ar  168  TYR168      0.1957
     84  OH        18.2200  -28.5220  -19.1900 O.3   168  TYR168     -0.2866
     85  N         12.4500  -27.4740  -19.6610 N.3   170  ILE170     -0.1245
     86  CA        12.6240  -27.8440  -18.2500 C.3   170  ILE170      0.1561
     87  C         11.9220  -29.2090  -18.0540 C.2   170  ILE170      0.2260
     88  O         10.7640  -29.3870  -18.4870 O.2   170  ILE170     -0.2867
     89  CB        12.0790  -26.7480  -17.3170 C.3   170  ILE170      0.0252
     90  CG1       12.9470  -25.5020  -17.4420 C.3   170  ILE170      0.0019
     91  CG2       12.0620  -27.2040  -15.8610 C.3   170  ILE170      0.0019
     92  CD1       12.2630  -24.2520  -17.0000 C.3   170  ILE170      0.0001
     93  N         11.5330  -23.1050  -22.8010 N.3   190  ARG190     -0.1245
     94  CA        12.1250  -21.7860  -23.0850 C.3   190  ARG190      0.1563
     95  C         12.3730  -21.7180  -24.5960 C.2   190  ARG190      0.2260
     96  O         12.6850  -22.7330  -25.2040 O.2   190  ARG190     -0.2867
     97  CB        13.4690  -21.6070  -22.3580 C.3   190  ARG190      0.0307
     98  CG        13.3840  -21.6280  -20.8650 C.3   190  ARG190      0.0489
     99  CD        14.3830  -20.7020  -20.2840 C.3   190  ARG190      0.2205
    100  NE        14.1940  -19.3340  -20.7460 N.pl3 190  ARG190     -0.0865
    101  CZ        15.1900  -18.4770  -20.9880 C.cat 190  ARG190      0.5346
    102  NH1       16.4490  -18.8590  -20.8130 N.pl3 190  ARG190      0.1354
    103  NH2       14.9300  -17.2440  -21.4180 N.pl3 190  ARG190      0.1354
    104  N         18.0970  -19.9340  -27.1330 N.3   193  HIS193     -0.1241
    105  CA        18.8480  -18.7290  -26.7530 C.3   193  HIS193      0.1621
    106  C         20.3380  -19.0230  -26.6690 C.2   193  HIS193      0.2264
    107  O         20.7770  -20.2010  -26.5330 O.2   193  HIS193     -0.2867
    108  CB        18.3500  -18.2000  -25.3910 C.3   193  HIS193      0.0745
    109  CG        18.3140  -19.2580  -24.3390 C.ar  193  HIS193      0.0817
    110  ND1       17.3220  -20.2160  -24.2890 N.ar  193  HIS193     -0.2268
    111  CD2       19.1930  -19.5660  -23.3530 C.ar  193  HIS193      0.1154
    112  CE1       17.5750  -21.0510  -23.2920 C.ar  193  HIS193      0.1986
    113  NE2       18.7070  -20.6810  -22.7120 N.ar  193  HIS193     -0.2212
    114  N         23.4700  -17.7280  -24.2790 N.3   195  HIS195     -0.1241
    115  CA        23.7890  -16.9850  -23.0750 C.3   195  HIS195      0.1621
    116  C         25.0670  -16.1690  -23.3000 C.2   195  HIS195      0.2264
    117  O         26.0540  -16.6940  -23.8160 O.2   195  HIS195     -0.2867
    118  CB        24.0210  -17.9300  -21.9000 C.3   195  HIS195      0.0745
    119  CG        22.7860  -18.5840  -21.3710 C.ar  195  HIS195      0.0817
    120  ND1       21.9530  -17.9700  -20.4510 N.ar  195  HIS195     -0.2268
    121  CD2       22.3020  -19.8420  -21.5420 C.ar  195  HIS195      0.1154
    122  CE1       20.9650  -18.7980  -20.1440 C.ar  195  HIS195      0.1986
    123  NE2       21.1630  -19.9450  -20.7790 N.ar  195  HIS195     -0.2212
    124  N         10.2430  -18.7280  -18.4320 N.3   223  CYS223     -0.1235
    125  CA        11.0750  -17.9700  -17.4920 C.3   223  CYS223      0.1677
    126  C         10.9340  -16.4660  -17.6500 C.2   223  CYS223      0.2270
    127  O         11.6140  -15.6910  -16.9620 O.2   223  CYS223     -0.2867
    128  CB        12.5570  -18.3710  -17.5860 C.3   223  CYS223      0.0956
    129  SG        12.8640  -20.1210  -17.2980 S.3   223  CYS223     -0.0801
@<TRIPOS>BOND
     1   104   105    1
     2   105   106    1
     3   105   108    1
     4   106   107    2
     5   108   109    1
     6    73    74    1
     7    96    95    2
     8    95    94    1
     9   109   110   ar
    10   109   111   ar
    11   110   112   ar
    12   114   115    1
    13    74    77    1
    14    74    75    1
    15   117   116    2
    16    77    78    1
    17   111   113   ar
    18   116   115    1
    19   112   113   ar
    20    75    76    2
    21    94    93    1
    22    94    97    1
    23   115   118    1
    24    79    78   ar
    25    79    81   ar
    26    97    98    1
    27    78    80   ar
    28   118   119    1
    29    72    71    1
    30    61    62    1
    31    69    71   ar
    32    69    67   ar
    33   121   119   ar
    34   121   123   ar
    35    81    83   ar
    36   103   101    1
    37    71    70   ar
    38   119   120   ar
    39    62    63    1
    40    62    65    1
    41    67    66   ar
    42   101   102    1
    43   101   100    2
    44    80    82   ar
    45    98    99    1
    46    63    64    2
    47   123   122   ar
    48    70    68   ar
    49   100    99    1
    50    66    68   ar
    51    66    65    1
    52   120   122   ar
    53    83    82   ar
    54    83    84    1
    55    85    86    1
    56    88    87    2
    57   124   125    1
    58    86    87    1
    59    86    89    1
    60    25    24    2
    61    22    23    1
    62   126   125    1
    63   126   127    2
    64   128   125    1
    65   128   129    1
    66    57    59   ar
    67    57    55   ar
    68    54    55    1
    69    54    51    1
    70    90    89    1
    71    90    92    1
    72    59    60   ar
    73    89    91    1
    74    53    52    2
    75    55    56   ar
    76    27    29    1
    77    27    26    1
    78    24    23    1
    79    24    30   am
    80    33    32    2
    81    60    58   ar
    82    23    26    1
    83    52    51    1
    84    56    58   ar
    85    51    50    1
    86    32    31    1
    87    32    39   am
    88    26    28    1
    89    31    30    1
    90    31    34    1
    91    50    45   am
    92    39    40    1
    93    40    41    1
    94    35    34    1
    95    35    36    1
    96    49    43    1
    97    49    48    1
    98    41    43   am
    99    41    42    2
   100     7     6    1
   101    43    44    1
   102    20    19    2
   103    45    46    2
   104    45    44    1
   105    48    47    1
   106    36    38   am
   107    36    37    2
   108    18    21    1
   109    18    19    1
   110    18    17    1
   111    44    47    1
   112    12    11    2
   113     6     8    1
   114     6     5    1
   115    17    11   am
   116    11    10    1
   117    13    10    1
   118    13    14    1
   119     4     3    2
   120    16    14   ar
   121     5     2    1
   122    10     9    1
   123    14    15   ar
   124     2     3    1
   125     2     1    1
