@<TRIPOS>MOLECULE
tmp/3o5uB00.pdb
 106 99 0 0 0
SMALL
GASTEIGER

@<TRIPOS>ATOM
      1  N         21.3450   -5.8590   10.8600 N.3     2  ASN2       -0.1240
      2  CA        21.1950   -4.7450    9.9370 C.3     2  ASN2        0.1653
      3  C         19.7410   -4.2360    9.8270 C.2     2  ASN2        0.2266
      4  O         18.8610   -4.9420    9.3450 O.2     2  ASN2       -0.2867
      5  CB        21.6940   -5.2570    8.5870 C.3     2  ASN2        0.1155
      6  CG        21.3900   -4.3200    7.4410 C.2     2  ASN2        0.2627
      7  OD1       22.2690   -3.5480    7.0330 O.2     2  ASN2       -0.2716
      8  ND2       20.1550   -4.4000    6.8810 N.am    2  ASN2       -0.0877
      9  N         17.7790   -2.6090    7.7800 N.3     4  ARG4       -0.1231
     10  CA        17.0330   -2.9190    6.5630 C.3     4  ARG4        0.1694
     11  C         16.6400   -4.4160    6.4090 C.2     4  ARG4        0.2591
     12  O         15.4910   -4.6980    6.0500 O.2     4  ARG4       -0.2718
     13  CB        17.7910   -2.4280    5.3290 C.3     4  ARG4        0.0321
     14  CG        17.0920   -2.8040    4.0240 C.3     4  ARG4        0.0489
     15  CD        17.9000   -2.4060    2.8240 C.3     4  ARG4        0.2205
     16  NE        17.5040   -3.0170    1.5460 N.pl3   4  ARG4       -0.0865
     17  CZ        18.1750   -4.0120    0.9650 C.cat   4  ARG4        0.5346
     18  NH1       19.2310   -4.5460    1.5720 N.pl3   4  ARG4        0.1354
     19  NH2       17.7950   -4.4640   -0.2230 N.pl3   4  ARG4        0.1354
     20  N         17.5710   -5.3530    6.6660 N.am    5  VAL5       -0.1980
     21  CA        17.2850   -6.7870    6.6670 C.3     5  VAL5        0.1595
     22  C         16.0870   -7.0980    7.5960 C.2     5  VAL5        0.2287
     23  O         15.1550   -7.7960    7.1950 O.2     5  VAL5       -0.2864
     24  CB        18.4750   -7.5910    7.2130 C.3     5  VAL5        0.0276
     25  CG1       18.0880   -9.0640    7.4060 C.3     5  VAL5        0.0022
     26  CG2       19.6910   -7.4140    6.3350 C.3     5  VAL5        0.0022
     27  N         12.9620   -5.6110    6.1910 N.3     8  LEU8       -0.1231
     28  CA        12.6410   -6.4270    5.0150 C.3     8  LEU8        0.1693
     29  C         12.0010   -7.7570    5.4320 C.2     8  LEU8        0.2592
     30  O         10.9820   -8.1370    4.8750 O.2     8  LEU8       -0.2718
     31  CB        13.8730   -6.6550    4.1140 C.3     8  LEU8        0.0284
     32  CG        13.9270   -5.6450    2.9600 C.3     8  LEU8        0.0019
     33  CD1       13.9510   -4.0930    3.4300 C.3     8  LEU8        0.0001
     34  CD2       15.0640   -5.9850    1.9620 C.3     8  LEU8        0.0001
     35  N         12.5730   -8.4270    6.4290 N.am    9  PHE9       -0.1976
     36  CA        11.9840   -9.6790    6.8890 C.3     9  PHE9        0.1639
     37  C         10.5670   -9.5130    7.4730 C.2     9  PHE9        0.2290
     38  O          9.6310  -10.2380    7.0680 O.2     9  PHE9       -0.2864
     39  CB        12.8840  -10.4380    7.8500 C.3     9  PHE9        0.0560
     40  CG        12.3750  -11.8330    8.1630 C.ar    9  PHE9       -0.0200
     41  CD1       11.8950  -12.1490    9.4430 C.ar    9  PHE9       -0.0042
     42  CD2       12.3690  -12.8290    7.1740 C.ar    9  PHE9       -0.0042
     43  CE1       11.4380  -13.4370    9.7260 C.ar    9  PHE9       -0.0003
     44  CE2       11.9000  -14.1230    7.4690 C.ar    9  PHE9       -0.0003
     45  CZ        11.4260  -14.4140    8.7340 C.ar    9  PHE9       -0.0000
     46  N          8.2390   -8.7970    4.5750 N.3    12  PHE12      -0.1241
     47  CA         7.9970  -10.0490    3.8300 C.3    12  PHE12       0.1605
     48  C          6.9660  -10.9660    4.5440 C.2    12  PHE12       0.2264
     49  O          6.0100  -11.4550    3.9790 O.2    12  PHE12      -0.2867
     50  CB         9.3190  -10.7940    3.6480 C.3    12  PHE12       0.0534
     51  CG         9.1590  -12.1860    3.0670 C.ar   12  PHE12      -0.0203
     52  CD1        8.8380  -12.3650    1.7360 C.ar   12  PHE12      -0.0042
     53  CD2        9.3480  -13.3180    3.8650 C.ar   12  PHE12      -0.0042
     54  CE1        8.6910  -13.6480    1.2030 C.ar   12  PHE12      -0.0003
     55  CE2        9.2200  -14.6020    3.3440 C.ar   12  PHE12      -0.0003
     56  CZ         8.8910  -14.7640    2.0060 C.ar   12  PHE12      -0.0000
     57  N          3.2040  -12.2890    3.4270 N.3    16  ILE16      -0.1245
     58  CA         2.7540  -13.6760    3.3860 C.3    16  ILE16       0.1561
     59  C          1.5260  -13.9000    4.2640 C.2    16  ILE16       0.2260
     60  O          0.5820  -14.5740    3.8630 O.2    16  ILE16      -0.2867
     61  CB         3.9060  -14.6250    3.7450 C.3    16  ILE16       0.0252
     62  CG1        5.1180  -14.3590    2.8160 C.3    16  ILE16       0.0019
     63  CG2        3.4580  -16.1020    3.7100 C.3    16  ILE16       0.0019
     64  CD1        4.8070  -14.6240    1.3270 C.3    16  ILE16       0.0001
     65  N          1.9910  -26.9990    0.3270 N.3    33  ILE33      -0.1245
     66  CA         3.0400  -26.0410   -0.0090 C.3    33  ILE33       0.1561
     67  C          4.3610  -26.4170    0.6610 C.2    33  ILE33       0.2260
     68  O          5.4060  -26.3760    0.0290 O.2    33  ILE33      -0.2867
     69  CB         2.6150  -24.6140    0.3870 C.3    33  ILE33       0.0252
     70  CG1        1.4150  -24.1820   -0.4780 C.3    33  ILE33       0.0019
     71  CG2        3.8160  -23.6210    0.2530 C.3    33  ILE33       0.0019
     72  CD1        0.6450  -22.9530    0.0260 C.3    33  ILE33       0.0001
     73  N          7.8140  -27.3950   -1.1960 N.3    37  MET37      -0.1245
     74  CA         9.0770  -26.7150   -0.9730 C.3    37  MET37       0.1570
     75  C         10.1480  -27.7620   -0.6180 C.2    37  MET37       0.2261
     76  O         11.2910  -27.6740   -1.0710 O.2    37  MET37      -0.2867
     77  CB         8.9550  -25.6490    0.1190 C.3    37  MET37       0.0387
     78  CG         8.0230  -24.4850   -0.2520 C.3    37  MET37       0.0595
     79  SD         7.9190  -23.2390    1.0860 S.3    37  MET37      -0.1393
     80  CE         9.5560  -22.4820    1.0170 C.3    37  MET37       0.0692
     81  N         13.7070  -20.5670   -8.6190 N.3    50  LEU50      -0.1245
     82  CA        13.8030  -19.1380   -8.3590 C.3    50  LEU50       0.1561
     83  C         14.2660  -18.3870   -9.6150 C.2    50  LEU50       0.2260
     84  O         13.7460  -17.3300   -9.9360 O.2    50  LEU50      -0.2867
     85  CB        14.7550  -18.9010   -7.1960 C.3    50  LEU50       0.0270
     86  CG        14.3740  -19.4730   -5.8230 C.3    50  LEU50       0.0019
     87  CD1       15.6000  -19.4700   -4.9080 C.3    50  LEU50       0.0001
     88  CD2       13.1920  -18.7020   -5.2020 C.3    50  LEU50       0.0001
     89  N         11.8550  -15.3470  -10.6170 N.3    54  PHE54      -0.1241
     90  CA        12.2000  -14.0900   -9.9280 C.3    54  PHE54       0.1605
     91  C         13.4680  -13.4200  -10.3770 C.2    54  PHE54       0.2264
     92  O         13.6430  -12.2240  -10.1400 O.2    54  PHE54      -0.2867
     93  CB        12.2120  -14.2760   -8.3810 C.3    54  PHE54       0.0534
     94  CG        10.8870  -14.7220   -7.8220 C.ar   54  PHE54      -0.0203
     95  CD1       10.7940  -15.8500   -7.0530 C.ar   54  PHE54      -0.0042
     96  CD2        9.7170  -14.0310   -8.1340 C.ar   54  PHE54      -0.0042
     97  CE1        9.5570  -16.2750   -6.5680 C.ar   54  PHE54      -0.0003
     98  CE2        8.4660  -14.4740   -7.6710 C.ar   54  PHE54      -0.0003
     99  CZ         8.4020  -15.5760   -6.8710 C.ar   54  PHE54      -0.0000
    100  N         14.9710   -9.4520  -10.2490 N.3    58  VAL58      -0.1245
    101  CA        16.2260   -9.1310   -9.5700 C.3    58  VAL58       0.1561
    102  C         17.2020   -8.4270  -10.5370 C.2    58  VAL58       0.2260
    103  O         17.8370   -7.4240  -10.1710 O.2    58  VAL58      -0.2867
    104  CB        16.8670  -10.3820   -8.8740 C.3    58  VAL58       0.0252
    105  CG1       18.2230  -10.0340   -8.2970 C.3    58  VAL58       0.0019
    106  CG2       15.9350  -10.8910   -7.7690 C.3    58  VAL58       0.0019
@<TRIPOS>BOND
     1    89    90    1
     2   102   103    2
     3   102   101    1
     4    91    92    2
     5    91    90    1
     6   100   101    1
     7    84    83    2
     8    90    93    1
     9    83    82    1
    10   101   104    1
    11   104   105    1
    12   104   106    1
    13    81    82    1
    14    93    94    1
    15    82    85    1
    16    96    94   ar
    17    96    98   ar
    18    94    95   ar
    19    98    99   ar
    20    85    86    1
    21    95    97   ar
    22    99    97   ar
    23    86    88    1
    24    86    87    1
    25    73    74    1
    26    76    75    2
    27    74    75    1
    28    74    77    1
    29    70    72    1
    30    70    69    1
    31    78    77    1
    32    78    79    1
    33    19    17    1
    34    66    65    1
    35    66    69    1
    36    66    67    1
    37    68    67    2
    38    71    69    1
    39    17    16    2
    40    17    18    1
    41    80    79    1
    42    54    52   ar
    43    54    56   ar
    44    64    62    1
    45    16    15    1
    46    52    51   ar
    47    34    32    1
    48    56    55   ar
    49    62    61    1
    50    15    14    1
    51    32    33    1
    52    32    31    1
    53    51    50    1
    54    51    53   ar
    55    55    53   ar
    56    58    57    1
    57    58    61    1
    58    58    59    1
    59    50    47    1
    60    63    61    1
    61    47    48    1
    62    47    46    1
    63    60    59    2
    64    49    48    2
    65    14    13    1
    66    31    28    1
    67    30    29    2
    68    28    29    1
    69    28    27    1
    70    13    10    1
    71    29    35   am
    72    12    11    2
    73    26    24    1
    74    11    10    1
    75    11    20   am
    76    35    36    1
    77    10     9    1
    78    20    21    1
    79    21    24    1
    80    21    22    1
    81     8     6   am
    82    36    37    1
    83    36    39    1
    84     7     6    2
    85    38    37    2
    86    42    44   ar
    87    42    40   ar
    88    23    22    2
    89    24    25    1
    90     6     5    1
    91    44    45   ar
    92    39    40    1
    93    40    41   ar
    94     5     2    1
    95    45    43   ar
    96     4     3    2
    97    41    43   ar
    98     3     2    1
    99     2     1    1
