@<TRIPOS>MOLECULE
tmp/3o5xA00.pdb
 172 166 0 0 0
SMALL
GASTEIGER

@<TRIPOS>ATOM
      1  N         28.3440    6.7890   10.3590 N.3    18  TYR18      -0.1241
      2  CA        29.1020    7.9100    9.8000 C.3    18  TYR18       0.1605
      3  C         28.6730    9.1890   10.5160 C.2    18  TYR18       0.2264
      4  O         27.5440    9.6520   10.3510 O.2    18  TYR18      -0.2867
      5  CB        28.8180    8.0450    8.3010 C.3    18  TYR18       0.0534
      6  CG        29.0260    6.7670    7.5250 C.ar   18  TYR18      -0.0201
      7  CD1       30.3070    6.3140    7.2210 C.ar   18  TYR18      -0.0009
      8  CD2       27.9410    5.9920    7.1240 C.ar   18  TYR18      -0.0009
      9  CE1       30.5030    5.1190    6.5370 C.ar   18  TYR18       0.0417
     10  CE2       28.1240    4.7950    6.4420 C.ar   18  TYR18       0.0417
     11  CZ        29.4080    4.3640    6.1510 C.ar   18  TYR18       0.1957
     12  OH        29.5930    3.1840    5.4640 O.3    18  TYR18      -0.2866
     13  N         26.3710   11.6070    8.6590 N.3    21  ILE21      -0.1245
     14  CA        25.0680   11.2330    8.1110 C.3    21  ILE21       0.1561
     15  C         24.1120   11.0080    9.2750 C.2    21  ILE21       0.2260
     16  O         24.1850    9.9880    9.9570 O.2    21  ILE21      -0.2867
     17  CB        25.1880    9.9530    7.2470 C.3    21  ILE21       0.0252
     18  CG1       26.2240   10.1850    6.1380 C.3    21  ILE21       0.0019
     19  CG2       23.8370    9.5920    6.6360 C.3    21  ILE21       0.0019
     20  CD1       26.5310    8.9550    5.3020 C.3    21  ILE21       0.0001
     21  N         22.2850   -4.6060    1.0940 N.3    85  THR85      -0.1218
     22  CA        23.7220   -4.8500    0.9920 C.3    85  THR85       0.1862
     23  C         24.0960   -6.1610    1.6640 C.2    85  THR85       0.2287
     24  O         23.2880   -6.7590    2.3850 O.2    85  THR85      -0.2866
     25  CB        24.5320   -3.7290    1.6880 C.3    85  THR85       0.1770
     26  OG1       24.3740   -3.8380    3.1060 O.3    85  THR85      -0.2211
     27  CG2       24.0430   -2.3530    1.2550 C.3    85  THR85       0.0375
     28  N         31.0150   -5.5500    2.3080 N.3    89  GLU89      -0.1231
     29  CA        31.2410   -5.3520    0.8860 C.3    89  GLU89       0.1699
     30  C         32.6020   -4.6870    0.6870 C.2    89  GLU89       0.2592
     31  O         32.8870   -3.6440    1.2680 O.2    89  GLU89      -0.2718
     32  CB        30.1270   -4.4870    0.2760 C.3    89  GLU89       0.0402
     33  CG        28.8330   -5.2540   -0.0270 C.3    89  GLU89       0.1161
     34  CD        27.7160   -4.3640   -0.5550 C.2    89  GLU89       0.3649
     35  OE1       28.0140   -3.2760   -1.0950 O.co2  89  GLU89      -0.2457
     36  OE2       26.5310   -4.7590   -0.4440 O.co2  89  GLU89      -0.2457
     37  N         33.4380   -5.3020   -0.1370 N.am   90  ARG90      -0.1980
     38  CA        34.7650   -4.7650   -0.3980 C.3    90  ARG90       0.1597
     39  C         35.5280   -4.5780    0.9150 C.2    90  ARG90       0.2287
     40  O         36.1750   -3.5590    1.1260 O.2    90  ARG90      -0.2864
     41  CB        34.6540   -3.4240   -1.1260 C.3    90  ARG90       0.0334
     42  CG        33.6770   -3.4180   -2.2930 C.3    90  ARG90       0.0492
     43  CD        33.9830   -2.2770   -3.2490 C.3    90  ARG90       0.2205
     44  NE        35.3380   -2.4040   -3.7750 N.pl3  90  ARG90      -0.0865
     45  CZ        35.9260   -1.5230   -4.5800 C.cat  90  ARG90       0.5346
     46  NH1       35.2760   -0.4330   -4.9690 N.pl3  90  ARG90       0.1354
     47  NH2       37.1750   -1.7270   -4.9840 N.pl3  90  ARG90       0.1354
     48  N         34.5050   -3.8340    3.7860 N.3    92  LYS92      -0.1245
     49  CA        33.9420   -2.8520    4.7000 C.3    92  LYS92       0.1561
     50  C         32.6110   -3.3420    5.2700 C.2    92  LYS92       0.2260
     51  O         31.7360   -3.8100    4.5310 O.2    92  LYS92      -0.2867
     52  CB        33.7280   -1.5110    3.9870 C.3    92  LYS92       0.0271
     53  CG        34.9930   -0.6870    3.7760 C.3    92  LYS92       0.0035
     54  CD        35.5970   -0.2600    5.1120 C.3    92  LYS92       0.0206
     55  CE        36.7350    0.7430    4.9360 C.3    92  LYS92       0.1093
     56  NZ        37.8730    0.1940    4.1690 N.3    92  LYS92      -0.1314
     57  N         28.9890   -3.2050    6.4380 N.3    94  LYS94      -0.1245
     58  CA        27.8600   -2.3530    6.0850 C.3    94  LYS94       0.1561
     59  C         26.6440   -2.6350    6.9440 C.2    94  LYS94       0.2260
     60  O         25.6300   -1.9310    6.8740 O.2    94  LYS94      -0.2867
     61  CB        27.5120   -2.5340    4.6060 C.3    94  LYS94       0.0271
     62  CG        28.6430   -2.1170    3.6810 C.3    94  LYS94       0.0035
     63  CD        28.1460   -1.8920    2.2670 C.3    94  LYS94       0.0206
     64  CE        29.1830   -1.1490    1.4400 C.3    94  LYS94       0.1093
     65  NZ        28.6230   -0.6760    0.1390 N.3    94  LYS94      -0.1314
     66  N         23.5520   -6.9530   -5.5170 N.3   151  TRP151     -0.1228
     67  CA        23.9470   -5.6050   -5.8970 C.3   151  TRP151      0.1722
     68  C         25.4560   -5.6710   -6.0960 C.2   151  TRP151      0.2437
     69  O         26.1810   -6.2000   -5.2570 O.2   151  TRP151     -0.2733
     70  CB        23.5710   -4.5950   -4.8090 C.3   151  TRP151      0.0563
     71  CG        23.6680   -3.1550   -5.2540 C.ar  151  TRP151      0.0003
     72  CD1       24.7980   -2.3910   -5.3240 C.ar  151  TRP151      0.0946
     73  CD2       22.5850   -2.3080   -5.6750 C.ar  151  TRP151      0.0152
     74  NE1       24.4890   -1.1200   -5.7550 N.ar  151  TRP151     -0.2442
     75  CE2       23.1380   -1.0420   -5.9780 C.ar  151  TRP151      0.0810
     76  CE3       21.2020   -2.4960   -5.8240 C.ar  151  TRP151      0.0012
     77  CZ2       22.3550    0.0340   -6.4230 C.ar  151  TRP151      0.0191
     78  CZ3       20.4220   -1.4230   -6.2690 C.ar  151  TRP151      0.0001
     79  CH2       21.0040   -0.1750   -6.5620 C.ar  151  TRP151      0.0015
     80  N         25.9460   -5.1570   -7.2290 N.am  152  PRO152     -0.2718
     81  CA        27.3820   -5.1820   -7.5220 C.3   152  PRO152      0.1535
     82  C         28.2780   -4.4460   -6.5250 C.2   152  PRO152      0.2599
     83  O         27.8660   -3.4690   -5.8970 O.2   152  PRO152     -0.2715
     84  CB        27.4520   -4.5920   -8.9300 C.3   152  PRO152      0.0310
     85  CG        26.2990   -3.6260   -8.9450 C.3   152  PRO152      0.0237
     86  CD        25.2030   -4.3980   -8.2520 C.3   152  PRO152      0.0939
     87  N         29.5040   -4.9400   -6.3770 N.am  153  ASP153     -0.1958
     88  CA        30.4760   -4.3240   -5.4790 C.3   153  ASP153      0.1840
     89  C         30.7110   -2.8760   -5.8970 C.2   153  ASP153      0.2622
     90  O         30.9110   -2.0030   -5.0540 O.2   153  ASP153     -0.2715
     91  CB        31.8010   -5.0880   -5.5340 C.3   153  ASP153      0.1450
     92  CG        31.8020   -6.3210   -4.6560 C.2   153  ASP153      0.3671
     93  OD1       30.7080   -6.8510   -4.3590 O.co2 153  ASP153     -0.2456
     94  OD2       32.9040   -6.7670   -4.2710 O.co2 153  ASP153     -0.2456
     95  N         30.6820   -2.6340   -7.2050 N.am  154  HIS154     -0.1959
     96  CA        30.8990   -1.3000   -7.7530 C.3   154  HIS154      0.1787
     97  C         29.6950   -0.8640   -8.5830 C.2   154  HIS154      0.2621
     98  O         29.1120   -1.6650   -9.3060 O.2   154  HIS154     -0.2715
     99  CB        32.1490   -1.2930   -8.6420 C.3   154  HIS154      0.0785
    100  CG        32.6400    0.0790   -8.9920 C.ar  154  HIS154      0.0821
    101  ND1       33.5140    0.3150  -10.0330 N.ar  154  HIS154     -0.2267
    102  CD2       32.4100    1.2840   -8.4170 C.ar  154  HIS154      0.1154
    103  CE1       33.8020    1.6040  -10.0820 C.ar  154  HIS154      0.1986
    104  NE2       33.1450    2.2140   -9.1110 N.ar  154  HIS154     -0.2212
    105  N         29.3310    0.4090   -8.4690 N.am  155  GLY155     -0.1940
    106  CA        28.2140    0.9420   -9.2260 C.3   155  GLY155      0.2014
    107  C         26.8570    0.3610   -8.8770 C.2   155  GLY155      0.2638
    108  O         26.5910   -0.0260   -7.7350 O.2   155  GLY155     -0.2714
    109  N         25.9890    0.3060   -9.8800 N.am  156  VAL156     -0.1977
    110  CA        24.6410   -0.2110   -9.6980 C.3   156  VAL156      0.1596
    111  C         24.3720   -1.3390  -10.6940 C.2   156  VAL156      0.2287
    112  O         25.1770   -1.5920  -11.5920 O.2   156  VAL156     -0.2864
    113  CB        23.6050    0.9130   -9.9110 C.3   156  VAL156      0.0276
    114  CG1       23.9600    2.1190   -9.0310 C.3   156  VAL156      0.0022
    115  CG2       23.5620    1.3090  -11.3930 C.3   156  VAL156      0.0022
    116  N         20.8180    0.1960    4.1390 N.3   187  CYS187     -0.1221
    117  CA        22.0770   -0.0430    3.4600 C.3   187  CYS187      0.1808
    118  C         23.1340    0.4350    4.4480 C.2   187  CYS187      0.2602
    119  O         22.8510    0.5850    5.6390 O.2   187  CYS187     -0.2717
    120  CB        22.1600    0.7320    2.1340 C.3   187  CYS187      0.0970
    121  SG        21.9210    2.5280    2.2180 S.3   187  CYS187     -0.0800
    122  N         24.3420    0.6780    3.9680 N.am  188  SER188     -0.1938
    123  CA        25.4120    1.1230    4.8430 C.3   188  SER188      0.2055
    124  C         25.0280    2.3470    5.6760 C.2   188  SER188      0.2642
    125  O         24.9830    2.2940    6.9070 O.2   188  SER188     -0.2714
    126  CB        26.6530    1.4520    4.0130 C.3   188  SER188      0.2130
    127  OG        27.6620    1.9540    4.8530 O.3   188  SER188     -0.2179
    128  N         24.7530    3.4490    4.9910 N.am  189  ALA189     -0.1977
    129  CA        24.4060    4.6980    5.6510 C.3   189  ALA189      0.1597
    130  C         22.9040    4.9530    5.6340 C.2   189  ALA189      0.2287
    131  O         22.4060    5.8310    6.3460 O.2   189  ALA189     -0.2864
    132  CB        25.1390    5.8580    4.9720 C.3   189  ALA189      0.0319
    133  N         21.9700    6.1620    0.1660 N.3   192  GLY192     -0.1210
    134  CA        22.2390    5.9110   -1.2410 C.3   192  GLY192      0.1956
    135  C         21.3940    4.7940   -1.8310 C.2   192  GLY192      0.2611
    136  O         20.3980    5.0400   -2.5090 O.2   192  GLY192     -0.2717
    137  N         21.8040    3.5590   -1.5800 N.am  193  ARG193     -0.1979
    138  CA        21.0820    2.3990   -2.0740 C.3   193  ARG193      0.1597
    139  C         19.6600    2.4320   -1.5220 C.2   193  ARG193      0.2287
    140  O         18.6840    2.2120   -2.2510 O.2   193  ARG193     -0.2864
    141  CB        21.8070    1.1250   -1.6300 C.3   193  ARG193      0.0334
    142  CG        21.6330   -0.0570   -2.5640 C.3   193  ARG193      0.0492
    143  CD        22.5300   -1.2320   -2.1630 C.3   193  ARG193      0.2205
    144  NE        23.9550   -0.9920   -2.4200 N.pl3 193  ARG193     -0.0865
    145  CZ        24.9110   -1.8930   -2.2030 C.cat 193  ARG193      0.5346
    146  NH1       24.6020   -3.0920   -1.7210 N.pl3 193  ARG193      0.1354
    147  NH2       26.1730   -1.6190   -2.5030 N.pl3 193  ARG193      0.1354
    148  N         22.5260    8.9190   -3.6530 N.3   234  GLN234     -0.1231
    149  CA        23.8350    9.5670   -3.6260 C.3   234  GLN234      0.1698
    150  C         24.6450    9.6860   -4.8990 C.2   234  GLN234      0.2592
    151  O         25.5220   10.5450   -4.9840 O.2   234  GLN234     -0.2718
    152  CB        24.7300    8.8720   -2.6000 C.3   234  GLN234      0.0381
    153  CG        24.3710    9.1010   -1.1530 C.3   234  GLN234      0.0905
    154  CD        25.3930    8.4770   -0.2220 C.2   234  GLN234      0.2608
    155  OE1       25.5310    7.2520   -0.1590 O.2   234  GLN234     -0.2717
    156  NE2       26.1250    9.3180    0.4990 N.am  234  GLN234     -0.0878
    157  N         24.3860    8.8370   -5.8850 N.am  235  THR235     -0.1953
    158  CA        25.1860    8.8860   -7.1010 C.3   235  THR235      0.1897
    159  C         24.4210    9.0800   -8.4040 C.2   235  THR235      0.2313
    160  O         23.2100    8.8700   -8.4800 O.2   235  THR235     -0.2863
    161  CB        26.0520    7.6080   -7.2290 C.3   235  THR235      0.1794
    162  OG1       25.2090    6.4780   -7.5000 O.3   235  THR235     -0.2208
    163  CG2       26.8210    7.3510   -5.9340 C.3   235  THR235      0.0378
    164  N         22.9190    5.8070   -9.5150 N.3   238  GLN238     -0.1245
    165  CA        21.6960    5.4640   -8.7980 C.3   238  GLN238      0.1566
    166  C         20.5490    6.2650   -9.3940 C.2   238  GLN238      0.2260
    167  O         19.4720    5.7340   -9.6610 O.2   238  GLN238     -0.2867
    168  CB        21.8350    5.7840   -7.3020 C.3   238  GLN238      0.0367
    169  CG        22.7650    4.8460   -6.5310 C.3   238  GLN238      0.0905
    170  CD        23.0970    5.3560   -5.1290 C.2   238  GLN238      0.2608
    171  OE1       22.6100    6.4020   -4.7010 O.2   238  GLN238     -0.2717
    172  NE2       23.9330    4.6170   -4.4160 N.am  238  GLN238     -0.0878
@<TRIPOS>BOND
     1   112   111    2
     2   115   113    1
     3   111   110    1
     4   103   101   ar
     5   103   104   ar
     6   101   100   ar
     7   113   110    1
     8   113   114    1
     9   109   110    1
    10   109   107   am
    11   167   166    2
    12   164   165    1
    13   166   165    1
    14    98    97    2
    15   106   107    1
    16   106   105    1
    17   104   102   ar
    18   100    99    1
    19   100   102   ar
    20    85    84    1
    21    85    86    1
    22    84    81    1
    23   107   108    2
    24   165   168    1
    25    99    96    1
    26    97   105   am
    27    97    96    1
    28   160   159    2
    29   159   158    1
    30    86    80    1
    31    96    95    1
    32    81    80    1
    33    81    82    1
    34   162   161    1
    35   168   169    1
    36   161   158    1
    37   161   163    1
    38    80    68   am
    39    95    89   am
    40   158   157    1
    41    79    77   ar
    42    79    78   ar
    43   169   170    1
    44    82    87   am
    45    82    83    2
    46    77    75   ar
    47    87    88    1
    48    78    76   ar
    49    68    67    1
    50    68    69    2
    51    75    74   ar
    52    75    73   ar
    53    89    88    1
    54    89    90    2
    55    67    66    1
    56    67    70    1
    57   157   150   am
    58    76    73   ar
    59    74    72   ar
    60    73    71   ar
    61    91    88    1
    62    91    92    1
    63    72    71   ar
    64    71    70    1
    65   170   171    2
    66   170   172   am
    67    47    45    1
    68   151   150    2
    69    46    45    1
    70   150   149    1
    71    92    93   ar
    72    92    94   ar
    73    45    44    2
    74    44    43    1
    75   148   149    1
    76   149   152    1
    77    43    42    1
    78   152   153    1
    79   142   143    1
    80   142   141    1
    81   136   135    2
    82   147   145    1
    83   144   145    2
    84   144   143    1
    85    42    41    1
    86   140   139    2
    87   145   146    1
    88   138   141    1
    89   138   137    1
    90   138   139    1
    91   135   137   am
    92   135   134    1
    93   134   133    1
    94   153   154    1
    95    41    38    1
    96    35    34   ar
    97    34    36   ar
    98    34    33    1
    99    38    37    1
   100    38    39    1
   101   154   155    2
   102   154   156   am
   103    37    30   am
   104    33    32    1
   105    65    64    1
   106    32    29    1
   107    30    29    1
   108    30    31    2
   109    29    28    1
   110    39    40    2
   111    22    21    1
   112    22    23    1
   113    22    25    1
   114    27    25    1
   115    64    63    1
   116    23    24    2
   117    25    26    1
   118   120   121    1
   119   120   117    1
   120    63    62    1
   121   117   116    1
   122   117   118    1
   123    62    61    1
   124    53    52    1
   125    53    54    1
   126    48    49    1
   127   122   118   am
   128   122   123    1
   129    52    49    1
   130   126   123    1
   131   126   127    1
   132    56    55    1
   133   118   119    2
   134    51    50    2
   135    61    58    1
   136    49    50    1
   137   123   124    1
   138    55    54    1
   139   132   129    1
   140   128   129    1
   141   128   124   am
   142    20    18    1
   143    12    11    1
   144   130   129    1
   145   130   131    2
   146   124   125    2
   147    58    57    1
   148    58    59    1
   149    18    17    1
   150    11    10   ar
   151    11     9   ar
   152    10     8   ar
   153     9     7   ar
   154    19    17    1
   155    60    59    2
   156     8     6   ar
   157     7     6   ar
   158    17    14    1
   159     6     5    1
   160    14    13    1
   161    14    15    1
   162     5     2    1
   163    15    16    2
   164     2     1    1
   165     2     3    1
   166     4     3    2
