@<TRIPOS>MOLECULE
tmp/3o61D01.pdb
 182 169 0 0 0
SMALL
GASTEIGER

@<TRIPOS>ATOM
      1  N         60.9270   40.3050  144.7340 N.3    16  TYR16      -0.1227
      2  CA        60.4190   39.9600  143.4300 C.3    16  TYR16       0.1736
      3  C         59.3330   40.9620  143.0130 C.2    16  TYR16       0.2595
      4  O         59.4760   41.6990  142.0340 O.2    16  TYR16      -0.2718
      5  CB        59.8800   38.5240  143.4700 C.3    16  TYR16       0.0548
      6  CG        60.1100   37.7560  142.1860 C.ar   16  TYR16      -0.0200
      7  CD1       61.2970   37.0470  141.9780 C.ar   16  TYR16      -0.0009
      8  CD2       59.1510   37.7460  141.1680 C.ar   16  TYR16      -0.0009
      9  CE1       61.5170   36.3570  140.7990 C.ar   16  TYR16       0.0417
     10  CE2       59.3670   37.0440  139.9910 C.ar   16  TYR16       0.0417
     11  CZ        60.5440   36.3520  139.8230 C.ar   16  TYR16       0.1957
     12  OH        60.7560   35.6460  138.6630 O.3    16  TYR16      -0.2866
     13  N         58.2440   41.0070  143.7570 N.am   17  PHE17      -0.1976
     14  CA        57.2100   41.9760  143.4280 C.3    17  PHE17       0.1639
     15  C         57.1310   43.0620  144.4790 C.2    17  PHE17       0.2290
     16  O         57.8020   42.9900  145.5220 O.2    17  PHE17      -0.2864
     17  CB        55.8760   41.2870  143.2270 C.3    17  PHE17       0.0560
     18  CG        55.8680   40.3260  142.0800 C.ar   17  PHE17      -0.0200
     19  CD1       56.0400   40.7810  140.7730 C.ar   17  PHE17      -0.0042
     20  CD2       55.7030   38.9510  142.3070 C.ar   17  PHE17      -0.0042
     21  CE1       56.0100   39.8790  139.6920 C.ar   17  PHE17      -0.0003
     22  CE2       55.6680   38.0340  141.2290 C.ar   17  PHE17      -0.0003
     23  CZ        55.8160   38.4970  139.9230 C.ar   17  PHE17      -0.0000
     24  N         49.3410   45.0680  146.5050 N.3    41  TYR41      -0.1241
     25  CA        50.3530   44.1630  145.9780 C.3    41  TYR41       0.1605
     26  C         50.3880   44.2220  144.4720 C.2    41  TYR41       0.2264
     27  O         49.4170   43.9340  143.8170 O.2    41  TYR41      -0.2867
     28  CB        50.0150   42.7550  146.3890 C.3    41  TYR41       0.0534
     29  CG        51.1120   41.7460  146.1870 C.ar   41  TYR41      -0.0201
     30  CD1       52.4530   42.0720  146.4270 C.ar   41  TYR41      -0.0009
     31  CD2       50.8010   40.4490  145.7770 C.ar   41  TYR41      -0.0009
     32  CE1       53.4480   41.1270  146.2530 C.ar   41  TYR41       0.0417
     33  CE2       51.7850   39.4810  145.6290 C.ar   41  TYR41       0.0417
     34  CZ        53.0940   39.8220  145.8610 C.ar   41  TYR41       0.1957
     35  OH        54.0420   38.8630  145.7020 O.3    41  TYR41      -0.2866
     36  N         51.7060   42.7040  141.2750 N.3    43  ARG43      -0.1245
     37  CA        52.3050   41.5430  140.6190 C.3    43  ARG43       0.1563
     38  C         52.4460   41.7630  139.1180 C.2    43  ARG43       0.2260
     39  O         52.9240   40.8880  138.4300 O.2    43  ARG43      -0.2867
     40  CB        51.4710   40.2590  140.8750 C.3    43  ARG43       0.0307
     41  CG        51.7760   39.5210  142.1750 C.3    43  ARG43       0.0489
     42  CD        51.1060   38.1270  142.2500 C.3    43  ARG43       0.2205
     43  NE        51.9250   37.0190  141.6930 N.pl3  43  ARG43      -0.0865
     44  CZ        51.7030   36.4700  140.4920 C.cat  43  ARG43       0.5346
     45  NH1       50.7110   36.9150  139.7170 N.pl3  43  ARG43       0.1354
     46  NH2       52.4850   35.4870  140.0510 N.pl3  43  ARG43       0.1354
     47  N         50.4130   42.6530  135.3530 N.3    45  ASN45      -0.1225
     48  CA        49.2170   42.1330  134.7260 C.3    45  ASN45       0.1785
     49  C         49.5550   40.8370  134.0010 C.2    45  ASN45       0.2598
     50  O         50.7300   40.5290  133.7850 O.2    45  ASN45      -0.2718
     51  CB        48.6790   43.1380  133.7130 C.3    45  ASN45       0.1169
     52  CG        48.2370   44.4700  134.3460 C.2    45  ASN45       0.2627
     53  OD1       48.0100   44.5770  135.5680 O.2    45  ASN45      -0.2716
     54  ND2       48.0860   45.4840  133.4940 N.am   45  ASN45      -0.0877
     55  N         48.5410   40.0890  133.5950 N.am   46  GLY46      -0.1942
     56  CA        48.7570   38.8580  132.8650 C.3    46  GLY46       0.2014
     57  C         47.6730   38.6110  131.8470 C.2    46  GLY46       0.2638
     58  O         46.8460   39.4980  131.5820 O.2    46  GLY46      -0.2714
     59  N         47.6690   37.4020  131.2850 N.am   47  ALA47      -0.1977
     60  CA        46.7130   37.0150  130.2390 C.3    47  ALA47       0.1597
     61  C         46.4680   35.4970  130.2350 C.2    47  ALA47       0.2287
     62  O         47.3490   34.7130  130.6260 O.2    47  ALA47      -0.2864
     63  CB        47.1960   37.4850  128.8910 C.3    47  ALA47       0.0319
     64  N         49.1120   22.4300  137.2470 N.3    64  GLN64      -0.1245
     65  CA        50.4470   22.6300  137.7970 C.3    64  GLN64       0.1566
     66  C         50.3890   22.9030  139.2860 C.2    64  GLN64       0.2260
     67  O         49.3280   23.2240  139.8200 O.2    64  GLN64      -0.2867
     68  CB        51.1470   23.7900  137.1020 C.3    64  GLN64       0.0367
     69  CG        50.5320   25.1350  137.3720 C.3    64  GLN64       0.0905
     70  CD        51.0500   26.2130  136.4170 C.2    64  GLN64       0.2608
     71  OE1       52.2480   26.2760  136.1170 O.2    64  GLN64      -0.2717
     72  NE2       50.1510   27.0640  135.9380 N.am   64  GLN64      -0.0878
     73  N         50.6110   25.1340  142.3520 N.3    66  ARG66      -0.1245
     74  CA        50.5570   26.5040  142.8780 C.3    66  ARG66       0.1563
     75  C         50.7600   26.5360  144.4210 C.2    66  ARG66       0.2260
     76  O         49.9420   26.0030  145.1850 O.2    66  ARG66      -0.2867
     77  CB        49.2350   27.1710  142.4680 C.3    66  ARG66       0.0307
     78  CG        49.0360   27.2850  140.9640 C.3    66  ARG66       0.0489
     79  CD        50.1060   28.1330  140.2520 C.3    66  ARG66       0.2205
     80  NE        49.5620   28.7540  139.0500 N.pl3  66  ARG66      -0.0865
     81  CZ        50.2070   29.6130  138.2500 C.cat  66  ARG66       0.5346
     82  NH1       51.4650   29.9960  138.4780 N.pl3  66  ARG66       0.1354
     83  NH2       49.5710   30.1150  137.2010 N.pl3  66  ARG66       0.1354
     84  N         43.9610   24.9140  135.5950 N.3    81  GLU81      -0.1245
     85  CA        43.7420   26.2650  135.0880 C.3    81  GLU81       0.1567
     86  C         43.7200   26.2610  133.5670 C.2    81  GLU81       0.2260
     87  O         44.1380   25.3000  132.9220 O.2    81  GLU81      -0.2867
     88  CB        44.8710   27.2030  135.5300 C.3    81  GLU81       0.0388
     89  CG        45.1160   27.2650  137.0180 C.3    81  GLU81       0.1160
     90  CD        46.4320   27.9200  137.3380 C.2    81  GLU81       0.3649
     91  OE1       46.5940   29.1350  137.0650 O.co2  81  GLU81      -0.2457
     92  OE2       47.3220   27.2130  137.8620 O.co2  81  GLU81      -0.2457
     93  N         47.9210   30.4960  130.8860 N.3    84  ALA84      -0.1231
     94  CA        48.0340   31.8390  131.3860 C.3    84  ALA84       0.1694
     95  C         49.4780   32.1680  131.6380 C.2    84  ALA84       0.2593
     96  O         50.2390   31.3000  132.0720 O.2    84  ALA84      -0.2718
     97  CB        47.2360   31.9760  132.6640 C.3    84  ALA84       0.0304
     98  N         49.8560   33.4160  131.3610 N.am   85  GLY85      -0.1942
     99  CA        51.2030   33.8850  131.6530 C.3    85  GLY85       0.2014
    100  C         51.2070   35.3450  132.0430 C.2    85  GLY85       0.2638
    101  O         50.2530   36.0600  131.7710 O.2    85  GLY85      -0.2714
    102  N         52.2630   35.7870  132.7150 N.am   86  LEU86      -0.1977
    103  CA        52.4320   37.2080  133.0350 C.3    86  LEU86       0.1596
    104  C         52.8630   37.9670  131.7860 C.2    86  LEU86       0.2287
    105  O         53.6550   37.4670  130.9840 O.2    86  LEU86      -0.2864
    106  CB        53.5050   37.3830  134.1050 C.3    86  LEU86       0.0297
    107  CG        53.1680   37.0090  135.5500 C.3    86  LEU86       0.0022
    108  CD1       54.4430   36.6060  136.3160 C.3    86  LEU86       0.0001
    109  CD2       52.4550   38.1790  136.2130 C.3    86  LEU86       0.0001
    110  N         52.5250   32.1240  125.6110 N.3    99  ALA99      -0.1245
    111  CA        52.1840   31.2410  126.7130 C.3    99  ALA99       0.1562
    112  C         51.5730   29.9360  126.2090 C.2    99  ALA99       0.2260
    113  O         51.8600   28.8630  126.7640 O.2    99  ALA99      -0.2867
    114  CB        51.2840   31.9160  127.6670 C.3    99  ALA99       0.0290
    115  N         53.2250   26.3720  127.2500 N.3   103  GLU103     -0.1245
    116  CA        52.5390   25.5850  128.2730 C.3   103  GLU103      0.1567
    117  C         51.7230   24.4320  127.6750 C.2   103  GLU103      0.2260
    118  O         51.8160   23.2990  128.1390 O.2   103  GLU103     -0.2867
    119  CB        51.6620   26.4790  129.1670 C.3   103  GLU103      0.0388
    120  CG        52.2790   27.8360  129.4980 C.3   103  GLU103      0.1160
    121  CD        51.7730   28.4390  130.8020 C.2   103  GLU103      0.3649
    122  OE1       50.5770   28.3400  131.0960 O.co2 103  GLU103     -0.2457
    123  OE2       52.5750   29.0400  131.5460 O.co2 103  GLU103     -0.2457
    124  N         41.1970   40.6640  138.9740 N.3   119  MET119     -0.1245
    125  CA        40.7850   39.4580  139.6270 C.3   119  MET119      0.1570
    126  C         40.6330   39.6050  141.1290 C.2   119  MET119      0.2261
    127  O         39.7000   39.0190  141.7190 O.2   119  MET119     -0.2867
    128  CB        41.6870   38.2570  139.2800 C.3   119  MET119      0.0387
    129  CG        41.5960   37.8110  137.8070 C.3   119  MET119      0.0595
    130  SD        39.9510   37.2270  137.3500 S.3   119  MET119     -0.1393
    131  CE        39.4000   38.7000  136.5650 C.3   119  MET119      0.0692
    132  N         46.1960   43.2080  139.9280 N.3   126  GLU126     -0.1245
    133  CA        46.1900   42.3420  138.7800 C.3   126  GLU126      0.1567
    134  C         45.0310   42.5970  137.8440 C.2   126  GLU126      0.2260
    135  O         43.8660   42.5240  138.2490 O.2   126  GLU126     -0.2867
    136  CB        46.1430   40.8960  139.2770 C.3   126  GLU126      0.0388
    137  CG        46.1820   39.8950  138.2280 C.3   126  GLU126      0.1160
    138  CD        46.4170   38.5270  138.7770 C.2   126  GLU126      0.3649
    139  OE1       45.4880   37.9850  139.4300 O.co2 126  GLU126     -0.2457
    140  OE2       47.5260   37.9840  138.5240 O.co2 126  GLU126     -0.2457
    141  N         43.7690   40.7860  134.3570 N.3   128  ILE128     -0.1245
    142  CA        43.9740   39.6670  133.4140 C.3   128  ILE128      0.1561
    143  C         43.2680   39.8980  132.0910 C.2   128  ILE128      0.2260
    144  O         42.0920   40.1920  132.0680 O.2   128  ILE128     -0.2867
    145  CB        43.4960   38.2990  133.9950 C.3   128  ILE128      0.0252
    146  CG1       44.2380   37.9310  135.2910 C.3   128  ILE128      0.0019
    147  CG2       43.5930   37.1600  132.9390 C.3   128  ILE128      0.0019
    148  CD1       45.7080   38.2370  135.2540 C.3   128  ILE128      0.0001
    149  N         62.0700   25.4590  134.5450 N.3   149  ASP149     -0.1225
    150  CA        61.6060   25.2610  135.9290 C.3   149  ASP149      0.1805
    151  C         60.1430   24.8050  136.0270 C.2   149  ASP149      0.2597
    152  O         59.7910   23.9980  136.9060 O.2   149  ASP149     -0.2718
    153  CB        61.9400   26.4760  136.8460 C.3   149  ASP149      0.1424
    154  CG        61.0490   27.7290  136.5960 C.2   149  ASP149      0.3668
    155  OD1       60.1360   27.7270  135.7140 O.co2 149  ASP149     -0.2456
    156  OD2       61.2830   28.7360  137.3270 O.co2 149  ASP149     -0.2456
    157  N         59.3200   25.3090  135.1020 N.am  150  GLU150     -0.1979
    158  CA        57.9190   24.9180  134.9600 C.3   150  GLU150      0.1602
    159  C         57.8000   23.4050  134.6730 C.2   150  GLU150      0.2287
    160  O         58.5940   22.8340  133.9120 O.2   150  GLU150     -0.2864
    161  CB        57.2420   25.7670  133.8580 C.3   150  GLU150      0.0415
    162  CG        57.0320   27.2600  134.2450 C.3   150  GLU150      0.1163
    163  CD        56.0980   28.0480  133.3000 C.2   150  GLU150      0.3649
    164  OE1       56.0010   27.7190  132.0970 O.co2 150  GLU150     -0.2457
    165  OE2       55.4630   29.0240  133.7670 O.co2 150  GLU150     -0.2457
    166  N         39.4040   27.4580  140.2500 N.3   173  ASP173     -0.1239
    167  CA        40.1770   28.6270  139.8650 C.3   173  ASP173      0.1674
    168  C         39.3100   29.6900  139.1420 C.2   173  ASP173      0.2266
    169  O         38.6130   29.3710  138.1730 O.2   173  ASP173     -0.2867
    170  CB        41.3020   28.1810  138.9180 C.3   173  ASP173      0.1410
    171  CG        42.2240   29.3350  138.5090 C.2   173  ASP173      0.3668
    172  OD1       42.6620   30.0970  139.4050 O.co2 173  ASP173     -0.2456
    173  OD2       42.5120   29.4720  137.2890 O.co2 173  ASP173     -0.2456
    174  N         39.6870   32.4060  137.0210 N.3   175  LYS175     -0.1245
    175  CA        39.8300   32.7270  135.6230 C.3   175  LYS175      0.1561
    176  C         39.3780   31.5570  134.7150 C.2   175  LYS175      0.2260
    177  O         38.8340   31.7780  133.6280 O.2   175  LYS175     -0.2867
    178  CB        41.2670   33.1950  135.3280 C.3   175  LYS175      0.0271
    179  CG        42.3450   32.1730  135.5660 C.3   175  LYS175      0.0035
    180  CD        43.7180   32.6340  135.0260 C.3   175  LYS175      0.0206
    181  CE        44.7530   31.5180  135.1510 C.3   175  LYS175      0.1093
    182  NZ        44.8740   30.8780  136.5220 N.3   175  LYS175     -0.1314
@<TRIPOS>BOND
     1   110   111    1
     2   112   111    1
     3   112   113    2
     4   111   114    1
     5   115   116    1
     6   117   118    2
     7   117   116    1
     8   116   119    1
     9    63    60    1
    10   119   120    1
    11   120   121    1
    12    61    60    1
    13    61    62    2
    14    60    59    1
    15   121   122   ar
    16   121   123   ar
    17    93    94    1
    18   105   104    2
    19    59    57   am
    20    98    95   am
    21    98    99    1
    22    94    95    1
    23    94    97    1
    24    58    57    2
    25    95    96    2
    26    99   100    1
    27   101   100    2
    28   104   103    1
    29    57    56    1
    30   100   102   am
    31   144   143    2
    32   143   142    1
    33   164   163   ar
    34   102   103    1
    35    56    55    1
    36    87    86    2
    37   147   145    1
    38   103   106    1
    39   163   165   ar
    40   163   162    1
    41   142   145    1
    42   142   141    1
    43    54    52   am
    44    86    85    1
    45    55    49   am
    46   177   176    2
    47    51    52    1
    48    51    48    1
    49    50    49    2
    50   161   162    1
    51   161   158    1
    52   160   159    2
    53   145   146    1
    54    49    48    1
    55   106   107    1
    56    52    53    2
    57   149   150    1
    58   159   158    1
    59   176   175    1
    60    48    47    1
    61   158   157    1
    62   180   181    1
    63   180   179    1
    64    85    88    1
    65    85    84    1
    66   157   151   am
    67   181   182    1
    68   148   146    1
    69   178   179    1
    70   178   175    1
    71    88    89    1
    72   107   109    1
    73   107   108    1
    74   175   174    1
    75   155   154   ar
    76   150   151    1
    77   150   153    1
    78    72    70   am
    79   151   152    2
    80    71    70    2
    81    70    69    1
    82   131   130    1
    83   154   153    1
    84   154   156   ar
    85    89    90    1
    86    91    90   ar
    87    68    69    1
    88    68    65    1
    89    83    81    1
    90    64    65    1
    91   173   171   ar
    92    90    92   ar
    93   130   129    1
    94    65    66    1
    95   129   128    1
    96   134   135    2
    97   134   133    1
    98   169   168    2
    99   137   138    1
   100   137   136    1
   101    81    82    1
   102    81    80    2
   103    39    38    2
   104   171   170    1
   105   171   172   ar
   106   140   138   ar
   107    12    11    1
   108   138   139   ar
   109   133   136    1
   110   133   132    1
   111   170   167    1
   112   124   125    1
   113    80    79    1
   114    38    37    1
   115   168   167    1
   116   128   125    1
   117    66    67    2
   118   125   126    1
   119    21    23   ar
   120    21    19   ar
   121    45    44    1
   122    11    10   ar
   123    11     9   ar
   124   167   166    1
   125    23    22   ar
   126    10     8   ar
   127    46    44    1
   128    79    78    1
   129    44    43    2
   130    37    40    1
   131    37    36    1
   132    19    18   ar
   133     9     7   ar
   134    40    41    1
   135    78    77    1
   136   126   127    2
   137     8     6   ar
   138    22    20   ar
   139    43    42    1
   140     7     6   ar
   141     4     3    2
   142    18    20   ar
   143    18    17    1
   144    41    42    1
   145     6     5    1
   146    73    74    1
   147    77    74    1
   148    74    75    1
   149     3     2    1
   150     3    13   am
   151    17    14    1
   152    14    13    1
   153    14    15    1
   154     2     5    1
   155     2     1    1
   156    27    26    2
   157    75    76    2
   158    26    25    1
   159    15    16    2
   160    33    31   ar
   161    33    34   ar
   162    35    34    1
   163    31    29   ar
   164    34    32   ar
   165    25    28    1
   166    25    24    1
   167    29    28    1
   168    29    30   ar
   169    32    30   ar
