@<TRIPOS>MOLECULE
tmp/3o64B00.pdb
 205 201 0 0 0
SMALL
GASTEIGER

@<TRIPOS>ATOM
      1  N         42.3490   37.0740   33.1000 N.3    94  VAL94      -0.1231
      2  CA        42.9390   37.7440   34.2670 C.3    94  VAL94       0.1692
      3  C         43.7110   39.0480   33.9530 C.2    94  VAL94       0.2591
      4  O         43.5170   40.0510   34.6480 O.2    94  VAL94      -0.2718
      5  CB        43.6730   36.7640   35.2230 C.3    94  VAL94       0.0266
      6  CG1       45.0280   36.3190   34.6620 C.3    94  VAL94       0.0020
      7  CG2       43.8140   37.3530   36.6250 C.3    94  VAL94       0.0020
      8  N         44.5440   39.0380   32.8970 N.am   95  LYS95      -0.1980
      9  CA        45.3230   40.2090   32.4840 C.3    95  LYS95       0.1596
     10  C         44.4340   41.3880   32.0900 C.2    95  LYS95       0.2287
     11  O         44.6420   42.5070   32.5590 O.2    95  LYS95      -0.2864
     12  CB        46.3350   39.8450   31.3820 C.3    95  LYS95       0.0298
     13  CG        47.5140   39.0700   31.9540 C.3    95  LYS95       0.0038
     14  CD        48.5420   38.6190   30.9380 C.3    95  LYS95       0.0206
     15  CE        49.6110   37.8390   31.6730 C.3    95  LYS95       0.1093
     16  NZ        50.3140   36.8690   30.7930 N.3    95  LYS95      -0.1314
     17  N         43.7220   27.7350   34.0940 N.3   125  MET125     -0.1230
     18  CA        45.0140   27.1440   34.4910 C.3   125  MET125      0.1702
     19  C         45.4100   27.3080   35.9750 C.2   125  MET125      0.2593
     20  O         46.6040   27.3750   36.2880 O.2   125  MET125     -0.2718
     21  CB        46.1580   27.6440   33.5810 C.3   125  MET125      0.0401
     22  CG        45.9290   27.4380   32.0990 C.3   125  MET125      0.0596
     23  SD        47.1180   28.4250   31.1690 S.3   125  MET125     -0.1393
     24  CE        46.2420   30.0120   31.0870 C.3   125  MET125      0.0692
     25  N         44.4150   27.3580   36.8580 N.am  126  GLY126     -0.1942
     26  CA        44.6170   27.4720   38.2990 C.3   126  GLY126      0.2014
     27  C         45.1280   28.8050   38.8080 C.2   126  GLY126      0.2640
     28  O         45.6070   28.8740   39.9450 O.2   126  GLY126     -0.2714
     29  N         45.0150   29.8770   37.9960 N.am  127  THR127     -0.1936
     30  CA        45.4370   31.2280   38.3780 C.3   127  THR127      0.2028
     31  C         44.4670   31.7680   39.4230 C.2   127  THR127      0.2642
     32  O         43.2560   31.6610   39.2470 O.2   127  THR127     -0.2714
     33  CB        45.5810   32.1270   37.1350 C.3   127  THR127      0.1808
     34  OG1       46.7170   31.6870   36.4030 O.3   127  THR127     -0.2208
     35  CG2       45.7570   33.6140   37.4790 C.3   127  THR127      0.0379
     36  N         44.9980   32.3430   40.5070 N.am  128  LEU128     -0.1963
     37  CA        44.1750   32.8600   41.5950 C.3   128  LEU128      0.1728
     38  C         44.2490   34.3700   41.7470 C.2   128  LEU128      0.2617
     39  O         43.4230   34.9610   42.4330 O.2   128  LEU128     -0.2715
     40  CB        44.5800   32.1740   42.9020 C.3   128  LEU128      0.0311
     41  CG        44.2160   30.6990   42.9940 C.3   128  LEU128      0.0022
     42  CD1       45.2610   29.9320   43.7550 C.3   128  LEU128      0.0001
     43  CD2       42.8360   30.5150   43.5950 C.3   128  LEU128      0.0001
     44  N         45.2500   34.9850   41.1310 N.am  129  GLY129     -0.1940
     45  CA        45.4110   36.4260   41.2120 C.3   129  GLY129      0.2014
     46  C         46.3770   36.9730   40.1940 C.2   129  GLY129      0.2638
     47  O         46.9600   36.2230   39.4050 O.2   129  GLY129     -0.2714
     48  N         46.5720   38.2880   40.2330 N.am  130  LEU130     -0.1977
     49  CA        47.4930   39.0010   39.3420 C.3   130  LEU130      0.1596
     50  C         47.8120   40.3530   39.9530 C.2   130  LEU130      0.2287
     51  O         46.9530   40.9410   40.5930 O.2   130  LEU130     -0.2864
     52  CB        46.8890   39.1610   37.9240 C.3   130  LEU130      0.0297
     53  CG        47.8750   39.5890   36.8110 C.3   130  LEU130      0.0022
     54  CD1       48.8190   38.4610   36.4270 C.3   130  LEU130      0.0001
     55  CD2       47.1240   40.0250   35.5810 C.3   130  LEU130      0.0001
     56  N         56.2090   42.9170   39.3520 N.3   134  GLY134     -0.1210
     57  CA        57.0930   41.7760   39.1670 C.3   134  GLY134      0.1956
     58  C         57.1070   41.1410   37.7880 C.2   134  GLY134      0.2613
     59  O         57.5660   40.0040   37.6720 O.2   134  GLY134     -0.2717
     60  N         56.6790   41.8690   36.7150 N.am  135  SER135     -0.1938
     61  CA        56.6890   41.3340   35.3330 C.3   135  SER135      0.2040
     62  C         57.0470   42.3730   34.2390 C.2   135  SER135      0.2485
     63  O         56.5280   43.4920   34.3140 O.2   135  SER135     -0.2729
     64  CB        55.3680   40.6500   34.9990 C.3   135  SER135      0.2129
     65  OG        55.5550   39.7130   33.9500 O.3   135  SER135     -0.2179
     66  N         57.9300   42.0750   33.2300 N.am  136  PRO136     -0.2726
     67  CA        58.6150   40.7920   32.9170 C.3   136  PRO136      0.1402
     68  C         59.7270   40.3240   33.8640 C.2   136  PRO136      0.2269
     69  O         60.0760   39.1400   33.8680 O.2   136  PRO136     -0.2865
     70  CB        59.1210   41.0100   31.4810 C.3   136  PRO136      0.0296
     71  CG        59.3580   42.4780   31.4000 C.3   136  PRO136      0.0237
     72  CD        58.2350   43.0930   32.2000 C.3   136  PRO136      0.0939
     73  N         47.0650   33.3060   51.3920 N.3   181  LEU181     -0.1231
     74  CA        48.2460   33.0780   50.5580 C.3   181  LEU181      0.1693
     75  C         48.1520   33.7900   49.2110 C.2   181  LEU181      0.2591
     76  O         49.1570   34.3150   48.7470 O.2   181  LEU181     -0.2718
     77  CB        48.5200   31.5860   50.3600 C.3   181  LEU181      0.0284
     78  CG        48.8790   30.7670   51.6040 C.3   181  LEU181      0.0019
     79  CD1       49.3060   29.3990   51.2000 C.3   181  LEU181      0.0001
     80  CD2       50.0130   31.4100   52.4070 C.3   181  LEU181      0.0001
     81  N         46.9500   33.8280   48.5940 N.am  182  VAL182     -0.1980
     82  CA        46.7440   34.5140   47.3000 C.3   182  VAL182      0.1595
     83  C         47.0720   35.9950   47.4590 C.2   182  VAL182      0.2287
     84  O         47.8700   36.5380   46.6870 O.2   182  VAL182     -0.2864
     85  CB        45.3050   34.3270   46.7350 C.3   182  VAL182      0.0276
     86  CG1       45.1070   35.1470   45.4530 C.3   182  VAL182      0.0022
     87  CG2       45.0010   32.8470   46.4760 C.3   182  VAL182      0.0022
     88  N         50.8580   36.6460   48.1590 N.3   185  HIS185     -0.1226
     89  CA        51.5930   36.4560   46.8910 C.3   185  HIS185      0.1752
     90  C         51.4070   37.6650   45.9520 C.2   185  HIS185      0.2595
     91  O         52.3850   38.1770   45.4140 O.2   185  HIS185     -0.2718
     92  CB        51.1060   35.1530   46.1980 C.3   185  HIS185      0.0759
     93  CG        51.8160   34.8130   44.9200 C.ar  185  HIS185      0.0818
     94  ND1       52.7890   33.8370   44.8810 N.ar  185  HIS185     -0.2268
     95  CD2       51.6360   35.3020   43.6650 C.ar  185  HIS185      0.1154
     96  CE1       53.2030   33.7920   43.6200 C.ar  185  HIS185      0.1986
     97  NE2       52.5180   34.6390   42.8520 N.ar  185  HIS185     -0.2212
     98  N         50.1590   38.1130   45.7530 N.am  186  GLU186     -0.1979
     99  CA        49.8740   39.2500   44.8650 C.3   186  GLU186      0.1602
    100  C         50.4690   40.5530   45.3900 C.2   186  GLU186      0.2287
    101  O         51.1210   41.2730   44.6360 O.2   186  GLU186     -0.2864
    102  CB        48.3860   39.3400   44.4950 C.3   186  GLU186      0.0415
    103  CG        47.8820   38.1420   43.6890 C.3   186  GLU186      0.1163
    104  CD        48.7440   37.6400   42.5370 C.2   186  GLU186      0.3649
    105  OE1       49.4420   38.4590   41.8940 O.co2 186  GLU186     -0.2457
    106  OE2       48.6850   36.4240   42.2480 O.co2 186  GLU186     -0.2457
    107  N         54.1660   40.5620   44.6430 N.3   189  HIS189     -0.1241
    108  CA        54.4940   41.1100   43.3090 C.3   189  HIS189      0.1621
    109  C         54.4820   42.6480   43.3580 C.2   189  HIS189      0.2264
    110  O         55.3860   43.2820   42.8080 O.2   189  HIS189     -0.2867
    111  CB        53.5030   40.6320   42.2240 C.3   189  HIS189      0.0745
    112  CG        53.7130   39.2170   41.7870 C.ar  189  HIS189      0.0817
    113  ND1       54.9520   38.7610   41.3650 N.ar  189  HIS189     -0.2268
    114  CD2       52.8190   38.2050   41.6880 C.ar  189  HIS189      0.1154
    115  CE1       54.7730   37.4920   41.0280 C.ar  189  HIS189      0.1986
    116  NE2       53.5130   37.1110   41.2160 N.ar  189  HIS189     -0.2212
    117  N         58.6310   35.5760   40.7780 N.3   195  HIS195     -0.1241
    118  CA        58.4730   34.2160   41.2940 C.3   195  HIS195      0.1621
    119  C         59.7830   33.6020   41.7390 C.2   195  HIS195      0.2264
    120  O         60.8480   33.9030   41.1830 O.2   195  HIS195     -0.2867
    121  CB        57.7980   33.2910   40.2600 C.3   195  HIS195      0.0745
    122  CG        56.3700   33.6420   40.0080 C.ar  195  HIS195      0.0817
    123  ND1       55.7840   33.4230   38.7830 N.ar  195  HIS195     -0.2268
    124  CD2       55.4520   34.1850   40.8400 C.ar  195  HIS195      0.1154
    125  CE1       54.5330   33.8420   38.9050 C.ar  195  HIS195      0.1986
    126  NE2       54.2940   34.3150   40.1220 N.ar  195  HIS195     -0.2212
    127  N         57.7420   24.9330   49.8030 N.3   212  LYS212     -0.1231
    128  CA        57.9100   26.1620   49.0170 C.3   212  LYS212      0.1693
    129  C         57.5300   27.4370   49.7460 C.2   212  LYS212      0.2592
    130  O         56.6740   27.4200   50.6340 O.2   212  LYS212     -0.2718
    131  CB        57.1450   26.0650   47.6760 C.3   212  LYS212      0.0285
    132  CG        57.3620   24.7650   46.8790 C.3   212  LYS212      0.0035
    133  CD        58.8350   24.4650   46.5810 C.3   212  LYS212      0.0206
    134  CE        59.0330   23.0990   45.9680 C.3   212  LYS212      0.1093
    135  NZ        60.4260   22.6190   46.1730 N.3   212  LYS212     -0.1314
    136  N         58.1700   28.5510   49.3640 N.am  213  TYR213     -0.1962
    137  CA        57.8580   29.8690   49.9190 C.3   213  TYR213      0.1771
    138  C         56.6710   30.4840   49.1620 C.2   213  TYR213      0.2619
    139  O         56.2720   29.9570   48.1280 O.2   213  TYR213     -0.2715
    140  CB        59.0920   30.7800   49.9080 C.3   213  TYR213      0.0574
    141  CG        60.1700   30.3430   50.8780 C.ar  213  TYR213     -0.0198
    142  CD1       60.0420   30.5750   52.2470 C.ar  213  TYR213     -0.0009
    143  CD2       61.3210   29.7070   50.4300 C.ar  213  TYR213     -0.0009
    144  CE1       61.0450   30.1960   53.1410 C.ar  213  TYR213      0.0417
    145  CE2       62.3470   29.3610   51.3100 C.ar  213  TYR213      0.0417
    146  CZ        62.1940   29.5820   52.6660 C.ar  213  TYR213      0.1957
    147  OH        63.1960   29.1950   53.5240 O.3   213  TYR213     -0.2866
    148  N         56.0820   31.5650   49.6940 N.am  214  VAL214     -0.1977
    149  CA        54.8820   32.2120   49.1520 C.3   214  VAL214      0.1596
    150  C         54.9470   32.6340   47.6660 C.2   214  VAL214      0.2287
    151  O         53.9310   32.5620   46.9710 O.2   214  VAL214     -0.2864
    152  CB        54.3460   33.3260   50.0960 C.3   214  VAL214      0.0276
    153  CG1       55.1600   34.6070   49.9760 C.3   214  VAL214      0.0022
    154  CG2       52.8610   33.5940   49.8520 C.3   214  VAL214      0.0022
    155  N         56.3240   31.0880   45.2800 N.3   216  TYR216     -0.1228
    156  CA        56.4250   29.9520   44.3630 C.3   216  TYR216      0.1721
    157  C         55.4500   30.2320   43.1900 C.2   216  TYR216      0.2437
    158  O         54.3900   30.8140   43.4340 O.2   216  TYR216     -0.2733
    159  CB        56.1180   28.6060   45.0570 C.3   216  TYR216      0.0547
    160  CG        56.6630   27.4290   44.2690 C.ar  216  TYR216     -0.0200
    161  CD1       58.0360   27.1950   44.1820 C.ar  216  TYR216     -0.0009
    162  CD2       55.8120   26.5940   43.5470 C.ar  216  TYR216     -0.0009
    163  CE1       58.5470   26.1450   43.4150 C.ar  216  TYR216      0.0417
    164  CE2       56.3130   25.5290   42.7890 C.ar  216  TYR216      0.0417
    165  CZ        57.6820   25.3110   42.7250 C.ar  216  TYR216      0.1957
    166  OH        58.1880   24.2630   41.9910 O.3   216  TYR216     -0.2866
    167  N         55.8160   29.9350   41.9150 N.am  217  PRO217     -0.2718
    168  CA        54.9430   30.3240   40.7840 C.3   217  PRO217      0.1535
    169  C         53.4930   29.8470   40.8040 C.2   217  PRO217      0.2598
    170  O         52.6090   30.5420   40.2940 O.2   217  PRO217     -0.2715
    171  CB        55.6950   29.8040   39.5490 C.3   217  PRO217      0.0310
    172  CG        56.7220   28.8960   40.0580 C.3   217  PRO217      0.0237
    173  CD        57.0740   29.3450   41.4240 C.3   217  PRO217      0.0939
    174  N         53.2580   28.6600   41.3780 N.am  218  ILE218     -0.1964
    175  CA        51.9310   28.0360   41.4520 C.3   218  ILE218      0.1727
    176  C         51.5340   27.6430   42.8790 C.2   218  ILE218      0.2616
    177  O         52.3970   27.3880   43.7270 O.2   218  ILE218     -0.2715
    178  CB        51.8570   26.8100   40.5040 C.3   218  ILE218      0.0290
    179  CG1       52.8990   25.7120   40.9150 C.3   218  ILE218      0.0022
    180  CG2       51.9790   27.2500   39.0400 C.3   218  ILE218      0.0023
    181  CD1       53.0880   24.4860   39.9660 C.3   218  ILE218      0.0001
    182  N         50.2250   27.5500   43.1230 N.am  219  ALA219     -0.1963
    183  CA        49.7090   27.1230   44.4200 C.3   219  ALA219      0.1728
    184  C         50.0180   25.6320   44.5430 C.2   219  ALA219      0.2616
    185  O         49.5420   24.8420   43.7290 O.2   219  ALA219     -0.2715
    186  CB        48.2130   27.3680   44.4940 C.3   219  ALA219      0.0334
    187  N         50.8970   25.2690   45.4860 N.am  220  VAL220     -0.1977
    188  CA        51.3410   23.8810   45.6720 C.3   220  VAL220      0.1596
    189  C         50.4670   23.0800   46.6700 C.2   220  VAL220      0.2287
    190  O         50.2630   21.8780   46.4750 O.2   220  VAL220     -0.2864
    191  CB        52.8760   23.7970   45.9280 C.3   220  VAL220      0.0276
    192  CG1       53.2780   24.5240   47.2040 C.3   220  VAL220      0.0022
    193  CG2       53.3930   22.3610   45.9090 C.3   220  VAL220      0.0022
    194  N         49.3840   25.0140   50.2380 N.3   222  GLY222     -0.1225
    195  CA        49.0280   26.0020   51.2420 C.3   222  GLY222      0.1811
    196  C         48.8980   25.3590   52.6100 C.2   222  GLY222      0.2280
    197  O         48.2510   25.9230   53.4950 O.2   222  GLY222     -0.2866
    198  N         55.1070   27.9550   53.1860 N.3   227  ASN227     -0.1240
    199  CA        54.0660   28.5090   52.3020 C.3   227  ASN227      0.1653
    200  C         53.6300   29.9230   52.6380 C.2   227  ASN227      0.2266
    201  O         53.3380   30.7120   51.7320 O.2   227  ASN227     -0.2867
    202  CB        52.8490   27.5790   52.2120 C.3   227  ASN227      0.1155
    203  CG        53.0820   26.2120   51.5990 C.2   227  ASN227      0.2627
    204  OD1       52.1710   25.3800   51.5550 O.2   227  ASN227     -0.2716
    205  ND2       54.2770   25.9360   51.0800 N.am  227  ASN227     -0.0877
@<TRIPOS>BOND
     1    16    15    1
     2    14    15    1
     3    14    13    1
     4    24    23    1
     5    23    22    1
     6    12    13    1
     7    12     9    1
     8    71    70    1
     9    71    72    1
    10    70    67    1
    11    10     9    1
    12    10    11    2
    13    22    21    1
    14    72    66    1
    15     9     8    1
    16     8     3   am
    17    67    66    1
    18    67    68    1
    19     1     2    1
    20    66    62   am
    21    21    18    1
    22    68    69    2
    23    65    64    1
    24     3     2    1
    25     3     4    2
    26    17    18    1
    27    62    63    2
    28    62    61    1
    29     2     5    1
    30    18    19    1
    31     6     5    1
    32    64    61    1
    33     5     7    1
    34    61    60    1
    35    55    53    1
    36    19    20    2
    37    19    25   am
    38    34    33    1
    39    54    53    1
    40    60    58   am
    41    53    52    1
    42    25    26    1
    43    33    35    1
    44    33    30    1
    45    59    58    2
    46    58    57    1
    47    52    49    1
    48    29    30    1
    49    29    27   am
    50    26    27    1
    51    30    31    1
    52   123   125   ar
    53   123   122   ar
    54    27    28    2
    55   125   126   ar
    56   180   178    1
    57    57    56    1
    58    32    31    2
    59    49    50    1
    60    49    48    1
    61    47    46    2
    62    31    36   am
    63   171   172    1
    64   171   168    1
    65    50    51    2
    66   181   179    1
    67   122   121    1
    68   122   124   ar
    69   172   173    1
    70   126   124   ar
    71    46    48   am
    72    46    45    1
    73   121   118    1
    74   170   169    2
    75   178   179    1
    76   178   175    1
    77    36    37    1
    78   117   118    1
    79   168   169    1
    80   168   167    1
    81   169   174   am
    82   115   116   ar
    83   115   113   ar
    84    44    45    1
    85    44    38   am
    86   120   119    2
    87   116   114   ar
    88   118   119    1
    89   113   112   ar
    90   174   175    1
    91   173   167    1
    92   175   176    1
    93    37    38    1
    94    37    40    1
    95   114   112   ar
    96    38    39    2
    97   112   111    1
    98   105   104   ar
    99   167   157   am
   100   166   165    1
   101   111   108    1
   102   106   104   ar
   103   104   103    1
   104   165   164   ar
   105   165   163   ar
   106   164   162   ar
   107   110   109    2
   108    97    96   ar
   109    97    95   ar
   110   176   182   am
   111   176   177    2
   112    40    41    1
   113    41    43    1
   114    41    42    1
   115   182   183    1
   116   157   158    2
   117   157   156    1
   118   108   109    1
   119   108   107    1
   120   163   161   ar
   121   162   160   ar
   122    96    94   ar
   123    95    93   ar
   124   103   102    1
   125   185   184    2
   126   161   160   ar
   127   160   159    1
   128   156   159    1
   129   156   155    1
   130   183   186    1
   131   183   184    1
   132   102    99    1
   133   184   187   am
   134   101   100    2
   135    99   100    1
   136    99    98    1
   137    94    93   ar
   138    93    92    1
   139    91    90    2
   140    86    85    1
   141   187   188    1
   142   188   191    1
   143   188   189    1
   144    98    90   am
   145   193   191    1
   146   191   192    1
   147    90    89    1
   148   134   135    1
   149   134   133    1
   150    92    89    1
   151   190   189    2
   152    87    85    1
   153   133   132    1
   154    84    83    2
   155    85    82    1
   156   132   131    1
   157    89    88    1
   158   151   150    2
   159    82    83    1
   160    82    81    1
   161   150   149    1
   162   131   128    1
   163   139   138    2
   164    81    75   am
   165    76    75    2
   166   128   129    1
   167   128   127    1
   168   149   148    1
   169   149   152    1
   170   138   148   am
   171   138   137    1
   172    75    74    1
   173   136   129   am
   174   136   137    1
   175   129   130    2
   176   154   152    1
   177   140   137    1
   178   140   141    1
   179   153   152    1
   180   194   195    1
   181    77    74    1
   182    77    78    1
   183   143   141   ar
   184   143   145   ar
   185    74    73    1
   186   141   142   ar
   187   205   203   am
   188    79    78    1
   189   195   196    1
   190   145   146   ar
   191   204   203    2
   192   203   202    1
   193    78    80    1
   194   201   200    2
   195   202   199    1
   196   142   144   ar
   197   199   200    1
   198   199   198    1
   199   196   197    2
   200   146   144   ar
   201   146   147    1
