@<TRIPOS>MOLECULE
tmp/3o6dA00.pdb
 136 130 0 0 0
SMALL
GASTEIGER

@<TRIPOS>ATOM
      1  N         22.1540   38.7360   12.0090 N.3     7  ASN7       -0.1240
      2  CA        20.8400   38.4450   11.4410 C.3     7  ASN7        0.1653
      3  C         20.8990   38.7700    9.9210 C.2     7  ASN7        0.2266
      4  O         21.2200   39.8940    9.5280 O.2     7  ASN7       -0.2867
      5  CB        19.7690   39.2880   12.1160 C.3     7  ASN7        0.1155
      6  CG        18.3790   38.9530   11.6380 C.2     7  ASN7        0.2627
      7  OD1       18.1640   38.7930   10.4370 O.2     7  ASN7       -0.2716
      8  ND2       17.4230   38.8150   12.5770 N.am    7  ASN7       -0.0877
      9  N         18.4150   38.5570    7.7450 N.3     9  ASP9       -0.1225
     10  CA        17.1240   38.8570    7.1760 C.3     9  ASP9        0.1805
     11  C         17.1870   39.8130    5.9780 C.2     9  ASP9        0.2597
     12  O         16.4860   39.5910    4.9720 O.2     9  ASP9       -0.2718
     13  CB        16.1690   39.4370    8.2080 C.3     9  ASP9        0.1424
     14  CG        15.6460   38.4120    9.2300 C.2     9  ASP9        0.3668
     15  OD1       15.9440   37.2170    9.1220 O.co2   9  ASP9       -0.2456
     16  OD2       14.9830   38.8970   10.2140 O.co2   9  ASP9       -0.2456
     17  N         17.9430   40.9280    6.1000 N.am   10  HIS10      -0.1975
     18  CA        17.9240   41.9260    5.0490 C.3    10  HIS10       0.1656
     19  C         18.6930   41.5310    3.7770 C.2    10  HIS10       0.2291
     20  O         18.4870   42.1560    2.7430 O.2    10  HIS10      -0.2864
     21  CB        18.2470   43.3250    5.5690 C.3    10  HIS10       0.0771
     22  CG        17.1190   43.9040    6.3270 C.ar   10  HIS10       0.0820
     23  ND1       16.4310   44.9980    5.8820 N.ar   10  HIS10      -0.2267
     24  CD2       16.4590   43.4630    7.4280 C.ar   10  HIS10       0.1154
     25  CE1       15.4120   45.2320    6.6930 C.ar   10  HIS10       0.1986
     26  NE2       15.4040   44.3190    7.6440 N.ar   10  HIS10      -0.2212
     27  N         14.9600   35.2650   10.9610 N.3    41  HIS41      -0.1241
     28  CA        13.5620   35.2490   11.3490 C.3    41  HIS41       0.1621
     29  C         12.6690   34.7280   10.1940 C.2    41  HIS41       0.2264
     30  O         12.4290   35.4100    9.1990 O.2    41  HIS41      -0.2867
     31  CB        13.1460   36.6750   11.7690 C.3    41  HIS41       0.0745
     32  CG        11.7560   36.7700   12.2940 C.ar   41  HIS41       0.0817
     33  ND1       11.1930   37.9710   12.6690 N.ar   41  HIS41      -0.2268
     34  CD2       10.7860   35.8340   12.4320 C.ar   41  HIS41       0.1154
     35  CE1        9.9410   37.7670   13.0330 C.ar   41  HIS41       0.1986
     36  NE2        9.6700   36.4710   12.9070 N.ar   41  HIS41      -0.2212
     37  N         14.7010   33.0300   14.8410 N.3    68  GLU68      -0.1245
     38  CA        13.6950   33.8420   15.4880 C.3    68  GLU68       0.1567
     39  C         12.3740   33.4000   14.9470 C.2    68  GLU68       0.2260
     40  O         12.2020   33.2580   13.7310 O.2    68  GLU68      -0.2867
     41  CB        13.8970   35.3150   15.1990 C.3    68  GLU68       0.0388
     42  CG        15.2530   35.8090   15.6910 C.3    68  GLU68       0.1160
     43  CD        15.5470   37.2480   15.2960 C.2    68  GLU68       0.3649
     44  OE1       14.6310   37.9120   14.7920 O.co2  68  GLU68      -0.2457
     45  OE2       16.6540   37.7490   15.5930 O.co2  68  GLU68      -0.2457
     46  N         14.6830   32.0900   19.2880 N.3    88  THR88      -0.1218
     47  CA        14.3830   33.3500   19.9650 C.3    88  THR88       0.1862
     48  C         12.9060   33.6600   19.6150 C.2    88  THR88       0.2287
     49  O         12.5620   33.7460   18.4410 O.2    88  THR88      -0.2866
     50  CB        15.3190   34.4830   19.5140 C.3    88  THR88       0.1770
     51  OG1       16.6800   34.1370   19.8180 O.3    88  THR88      -0.2211
     52  CG2       14.9880   35.7830   20.2140 C.3    88  THR88       0.0375
     53  N          9.7340   35.7320   19.2780 N.3    90  VAL90      -0.1245
     54  CA         9.4860   37.1200   18.9880 C.3    90  VAL90       0.1561
     55  C          8.0370   37.3370   18.5940 C.2    90  VAL90       0.2260
     56  O          7.3750   36.4380   18.0600 O.2    90  VAL90      -0.2867
     57  CB        10.4310   37.6170   17.8480 C.3    90  VAL90       0.0252
     58  CG1       11.9250   37.4180   18.2000 C.3    90  VAL90       0.0019
     59  CG2       10.1340   36.9170   16.5190 C.3    90  VAL90       0.0019
     60  N         12.6490   37.4160   23.4900 N.3   127  PHE127     -0.1241
     61  CA        12.8970   38.8130   23.1170 C.3   127  PHE127      0.1605
     62  C         11.9050   39.6940   23.8640 C.2   127  PHE127      0.2264
     63  O         10.6610   39.5870   23.6790 O.2   127  PHE127     -0.2867
     64  CB        12.7550   38.9920   21.5960 C.3   127  PHE127      0.0534
     65  CG        12.9810   40.3580   21.1370 C.ar  127  PHE127     -0.0203
     66  CD1       14.2400   40.8950   21.1890 C.ar  127  PHE127     -0.0042
     67  CD2       11.9260   41.1390   20.6860 C.ar  127  PHE127     -0.0042
     68  CE1       14.4760   42.1800   20.7640 C.ar  127  PHE127     -0.0003
     69  CE2       12.1500   42.4360   20.2750 C.ar  127  PHE127     -0.0003
     70  CZ        13.4330   42.9500   20.3060 C.ar  127  PHE127     -0.0000
     71  N         16.6380   38.4750   25.5040 N.3   147  GLU147     -0.1245
     72  CA        17.2430   39.4300   24.5880 C.3   147  GLU147      0.1567
     73  C         16.5280   40.7370   24.7660 C.2   147  GLU147      0.2260
     74  O         15.3280   40.8260   24.5240 O.2   147  GLU147     -0.2867
     75  CB        17.2020   38.9210   23.1260 C.3   147  GLU147      0.0388
     76  CG        17.9540   39.8880   22.1750 C.3   147  GLU147      0.1160
     77  CD        18.0730   39.4310   20.7360 C.2   147  GLU147      0.3649
     78  OE1       17.9240   38.2120   20.4730 O.co2 147  GLU147     -0.2457
     79  OE2       18.3530   40.3260   19.8830 O.co2 147  GLU147     -0.2457
     80  N         18.0820   44.9010   18.0910 N.3   210  HIS210     -0.1226
     81  CA        17.1370   45.7930   17.3710 C.3   210  HIS210      0.1752
     82  C         17.7250   47.1870   17.2900 C.2   210  HIS210      0.2597
     83  O         17.7990   47.8520   18.3100 O.2   210  HIS210     -0.2718
     84  CB        15.7690   45.9550   18.0230 C.3   210  HIS210      0.0759
     85  CG        14.7720   44.9100   17.6310 C.ar  210  HIS210      0.0818
     86  ND1       13.4880   45.2230   17.2490 N.ar  210  HIS210     -0.2268
     87  CD2       14.8720   43.5610   17.5460 C.ar  210  HIS210      0.1154
     88  CE1       12.8290   44.1080   16.9650 C.ar  210  HIS210      0.1986
     89  NE2       13.6450   43.0860   17.1350 N.ar  210  HIS210     -0.2212
     90  N         18.1190   47.6200   16.0870 N.am  211  GLY211     -0.1942
     91  CA        18.4470   48.9960   15.8300 C.3   211  GLY211      0.2014
     92  C         19.8880   49.3180   16.0630 C.2   211  GLY211      0.2638
     93  O         20.3230   50.4490   15.7900 O.2   211  GLY211     -0.2714
     94  N         20.6740   48.3460   16.5080 N.am  212  LEU212     -0.1977
     95  CA        22.0430   48.6130   16.8240 C.3   212  LEU212      0.1596
     96  C         22.8300   48.9060   15.5620 C.2   212  LEU212      0.2287
     97  O         22.6870   48.2040   14.5610 O.2   212  LEU212     -0.2864
     98  CB        22.6730   47.4760   17.6460 C.3   212  LEU212      0.0297
     99  CG        22.0330   47.2280   19.0600 C.3   212  LEU212      0.0022
    100  CD1       22.6860   46.0590   19.7420 C.3   212  LEU212      0.0001
    101  CD2       22.2070   48.5480   19.8610 C.3   212  LEU212      0.0001
    102  N         22.7770   40.8970   18.8460 N.3   230  ASN230     -0.1225
    103  CA        22.2320   40.3690   17.6300 C.3   230  ASN230      0.1785
    104  C         21.9270   41.5470   16.7430 C.2   230  ASN230      0.2597
    105  O         21.0490   42.3760   17.0430 O.2   230  ASN230     -0.2718
    106  CB        20.9670   39.5400   17.8340 C.3   230  ASN230      0.1169
    107  CG        21.2540   38.1480   18.3780 C.2   230  ASN230      0.2627
    108  OD1       21.6460   37.2630   17.6350 O.2   230  ASN230     -0.2716
    109  ND2       21.0580   37.9540   19.6930 N.am  230  ASN230     -0.0877
    110  N         22.6140   41.5730   15.6170 N.am  231  ILE231     -0.1966
    111  CA        22.5600   42.7430   14.7470 C.3   231  ILE231      0.1727
    112  C         22.4480   42.3140   13.3050 C.2   231  ILE231      0.2617
    113  O         23.1380   41.4020   12.8690 O.2   231  ILE231     -0.2715
    114  CB        23.8490   43.5890   14.9370 C.3   231  ILE231      0.0290
    115  CG1       24.0230   43.9830   16.3960 C.3   231  ILE231      0.0022
    116  CG2       23.9010   44.8140   13.9910 C.3   231  ILE231      0.0023
    117  CD1       25.3120   44.8100   16.6550 C.3   231  ILE231      0.0001
    118  N         21.5570   42.9830   12.5830 N.am  232  GLY232     -0.1940
    119  CA        21.2560   42.6250   11.1730 C.3   232  GLY232      0.2014
    120  C         21.3200   43.8010   10.2280 C.2   232  GLY232      0.2639
    121  O         22.2840   43.9980    9.4990 O.2   232  GLY232     -0.2714
    122  N         20.3420   44.6810   10.3450 N.am  233  GLN233     -0.1963
    123  CA        20.0800   45.6520    9.3190 C.3   233  GLN233      0.1733
    124  C         21.2640   46.5870    9.1000 C.2   233  GLN233      0.2617
    125  O         21.6330   46.8510    7.9500 O.2   233  GLN233     -0.2715
    126  CB        18.7990   46.4280    9.6540 C.3   233  GLN233      0.0408
    127  CG        18.2430   47.2170    8.4840 C.3   233  GLN233      0.0908
    128  CD        18.9560   48.5590    8.2380 C.2   233  GLN233      0.2608
    129  OE1       19.4930   49.1910    9.1570 O.2   233  GLN233     -0.2717
    130  NE2       18.8770   49.0340    6.9890 N.am  233  GLN233     -0.0878
    131  N         21.8930   47.0310   10.1740 N.am  234  SER234     -0.1950
    132  CA        23.0100   47.9610   10.0390 C.3   234  SER234      0.1924
    133  C         24.2040   47.2990    9.3820 C.2   234  SER234      0.2314
    134  O         25.0280   47.9780    8.7540 O.2   234  SER234     -0.2863
    135  CB        23.4240   48.4930   11.4060 C.3   234  SER234      0.2116
    136  OG        24.0040   47.4660   12.2340 O.3   234  SER234     -0.2180
@<TRIPOS>BOND
     1    20    19    2
     2    19    18    1
     3    12    11    2
     4    18    21    1
     5    18    17    1
     6    21    22    1
     7    23    22   ar
     8    23    25   ar
     9    11    17   am
    10    11    10    1
    11    22    24   ar
    12    25    26   ar
    13   130   128   am
    14    10     9    1
    15    10    13    1
    16    24    26   ar
    17   125   124    2
    18    13    14    1
    19   128   127    1
    20   128   129    2
    21   127   126    1
    22   134   133    2
    23   124   123    1
    24   124   131   am
    25    15    14   ar
    26    30    29    2
    27    14    16   ar
    28   123   126    1
    29   123   122    1
    30   133   132    1
    31   121   120    2
    32     4     3    2
    33     3     2    1
    34   132   131    1
    35   132   135    1
    36    29    28    1
    37   120   122   am
    38   120   119    1
    39     7     6    2
    40    27    28    1
    41   119   118    1
    42    28    31    1
    43   135   136    1
    44     2     1    1
    45     2     5    1
    46     6     5    1
    47     6     8   am
    48    31    32    1
    49    32    34   ar
    50    32    33   ar
    51    34    36   ar
    52   118   112   am
    53    33    35   ar
    54   113   112    2
    55    36    35   ar
    56   112   111    1
    57    40    39    2
    58   116   114    1
    59    97    96    2
    60   111   114    1
    61   111   110    1
    62    44    43   ar
    63    37    38    1
    64   114   115    1
    65    39    38    1
    66    41    38    1
    67    41    42    1
    68    43    45   ar
    69    43    42    1
    70    96    95    1
    71   110   104   am
    72    93    92    2
    73    91    92    1
    74    91    90    1
    75    92    94   am
    76    90    82   am
    77   115   117    1
    78    94    95    1
    79    59    57    1
    80   104   105    2
    81   104   103    1
    82    95    98    1
    83    88    89   ar
    84    88    86   ar
    85    89    87   ar
    86    86    85   ar
    87    82    81    1
    88    82    83    2
    89    81    84    1
    90    81    80    1
    91    87    85   ar
    92   103   106    1
    93   103   102    1
    94    85    84    1
    95   108   107    2
    96    98    99    1
    97   106   107    1
    98    57    58    1
    99    57    54    1
   100    56    55    2
   101   107   109   am
   102    49    48    2
   103    55    54    1
   104    54    53    1
   105    99   100    1
   106    99   101    1
   107    46    47    1
   108    50    51    1
   109    50    47    1
   110    50    52    1
   111    48    47    1
   112    79    77   ar
   113    69    70   ar
   114    69    67   ar
   115    70    68   ar
   116    78    77   ar
   117    67    65   ar
   118    77    76    1
   119    68    66   ar
   120    65    66   ar
   121    65    64    1
   122    64    61    1
   123    76    75    1
   124    61    60    1
   125    61    62    1
   126    75    72    1
   127    63    62    2
   128    74    73    2
   129    72    73    1
   130    72    71    1
