@<TRIPOS>MOLECULE
tmp/3o6gA01.pdb
 123 118 0 0 0
SMALL
GASTEIGER

@<TRIPOS>ATOM
      1  N          8.7390   -0.2610   20.3910 N.3    92  ILE92      -0.1245
      2  CA         8.1730   -1.0970   21.4370 C.3    92  ILE92       0.1561
      3  C          8.6180   -2.5490   21.2240 C.2    92  ILE92       0.2260
      4  O          8.3080   -3.1490   20.1900 O.2    92  ILE92      -0.2867
      5  CB         6.6240   -1.0100   21.4500 C.3    92  ILE92       0.0252
      6  CG1        6.1540    0.4250   21.6890 C.3    92  ILE92       0.0019
      7  CG2        6.0440   -1.9640   22.5090 C.3    92  ILE92       0.0019
      8  CD1        4.6800    0.6540   21.3810 C.3    92  ILE92       0.0001
      9  N          0.7570    3.6320   24.3950 N.3   104  LYS104     -0.1231
     10  CA         0.2680    3.0680   23.1480 C.3   104  LYS104      0.1678
     11  C          1.0590    3.7580   22.0160 C.2   104  LYS104      0.2434
     12  O          1.5620    4.8820   22.2010 O.2   104  LYS104     -0.2733
     13  CB        -1.2430    3.2800   22.9890 C.3   104  LYS104      0.0284
     14  CG        -2.1080    2.5280   24.0120 C.3   104  LYS104      0.0035
     15  CD        -1.8640    1.0450   24.0090 C.3   104  LYS104      0.0206
     16  CE        -2.8170    0.3050   24.9730 C.3   104  LYS104      0.1093
     17  NZ        -2.6010    0.6150   26.4240 N.3   104  LYS104     -0.1314
     18  N          1.1760    3.0950   20.8480 N.am  105  PRO105     -0.2718
     19  CA         2.0110    3.6240   19.7690 C.3   105  PRO105      0.1535
     20  C          1.5390    4.9730   19.2450 C.2   105  PRO105      0.2599
     21  O          0.3360    5.2040   19.1350 O.2   105  PRO105     -0.2715
     22  CB         1.9010    2.5650   18.6610 C.3   105  PRO105      0.0310
     23  CG         1.2570    1.4100   19.2750 C.3   105  PRO105      0.0237
     24  CD         0.5360    1.8220   20.4810 C.3   105  PRO105      0.0939
     25  N          2.4820    5.8540   18.9170 N.am  106  PHE106     -0.1960
     26  CA         2.1460    7.1200   18.2820 C.3   106  PHE106      0.1771
     27  C          2.4580    7.0960   16.7770 C.2   106  PHE106      0.2619
     28  O          2.0590    8.0070   16.0510 O.2   106  PHE106     -0.2715
     29  CB         2.8590    8.2910   18.9640 C.3   106  PHE106      0.0574
     30  CG         4.3650    8.2470   18.8580 C.ar  106  PHE106     -0.0200
     31  CD1        5.0140    8.7640   17.7460 C.ar  106  PHE106     -0.0042
     32  CD2        5.1300    7.7100   19.8880 C.ar  106  PHE106     -0.0042
     33  CE1        6.4040    8.7320   17.6500 C.ar  106  PHE106     -0.0003
     34  CE2        6.5190    7.6700   19.8000 C.ar  106  PHE106     -0.0003
     35  CZ         7.1580    8.1950   18.6750 C.ar  106  PHE106     -0.0000
     36  N          3.1720    6.0560   16.3340 N.am  107  MET107     -0.1963
     37  CA         3.4990    5.8650   14.9210 C.3   107  MET107      0.1736
     38  C          3.7790    4.3960   14.6580 C.2   107  MET107      0.2617
     39  O          4.4260    3.7170   15.4610 O.2   107  MET107     -0.2715
     40  CB         4.7240    6.7190   14.5240 C.3   107  MET107      0.0427
     41  CG         4.9830    6.8010   13.0190 C.3   107  MET107      0.0599
     42  SD         6.3330    7.9130   12.5580 S.3   107  MET107     -0.1393
     43  CE         5.7270    9.4970   13.1330 C.3   107  MET107      0.0692
     44  N          3.3110    3.9180   13.5050 N.am  108  SER108     -0.1950
     45  CA         3.5600    2.5470   13.1000 C.3   108  SER108      0.1924
     46  C          4.7480    2.5010   12.1480 C.2   108  SER108      0.2314
     47  O          5.0780    3.5010   11.4860 O.2   108  SER108     -0.2863
     48  CB         2.3220    1.9340   12.4430 C.3   108  SER108      0.2116
     49  OG         1.9950    2.6090   11.2520 O.3   108  SER108     -0.2180
     50  N          5.7100   -5.7300   11.6310 N.3   217  SER217     -0.1202
     51  CA         4.7440   -4.6680   11.8830 C.3   217  SER217      0.2020
     52  C          4.7170   -4.3320   13.3660 C.2   217  SER217      0.2619
     53  O          4.4420   -5.1990   14.1970 O.2   217  SER217     -0.2717
     54  CB         3.3520   -5.1070   11.4360 C.3   217  SER217      0.2103
     55  OG         3.2200   -4.9990   10.0390 O.3   217  SER217     -0.2182
     56  N          5.0020   -3.0810   13.6910 N.am  218  LYS218     -0.1965
     57  CA         5.0960   -2.6620   15.0770 C.3   218  LYS218      0.1728
     58  C          4.9060   -1.1440   15.1870 C.2   218  LYS218      0.2616
     59  O          4.2920   -0.5370   14.3110 O.2   218  LYS218     -0.2715
     60  CB         6.4090   -3.1820   15.6840 C.3   218  LYS218      0.0311
     61  CG         7.6790   -2.6580   15.0140 C.3   218  LYS218      0.0038
     62  CD         8.8270   -3.6320   15.2130 C.3   218  LYS218      0.0206
     63  CE        10.0750   -3.2130   14.4590 C.3   218  LYS218      0.1093
     64  NZ        11.1610   -4.1990   14.6570 N.3   218  LYS218     -0.1314
     65  N          5.3850   -0.5430   16.2690 N.am  219  GLY219     -0.1955
     66  CA         5.2310    0.8870   16.4760 C.3   219  GLY219      0.1869
     67  C          6.2040    1.4680   17.4770 C.2   219  GLY219      0.2309
     68  O          6.8640    0.7340   18.2190 O.2   219  GLY219     -0.2863
     69  N         -1.3540   10.7030   24.0700 N.3   238  VAL238     -0.1231
     70  CA        -1.0810   10.0460   22.7720 C.3   238  VAL238      0.1692
     71  C         -2.3980    9.6320   22.0860 C.2   238  VAL238      0.2591
     72  O         -2.6040    9.8910   20.9020 O.2   238  VAL238     -0.2718
     73  CB        -0.1700    8.7970   22.9270 C.3   238  VAL238      0.0266
     74  CG1       -0.1530    7.9660   21.6340 C.3   238  VAL238      0.0020
     75  CG2        1.2540    9.1890   23.3320 C.3   238  VAL238      0.0020
     76  N         -3.2920    9.0060   22.8450 N.am  239  LEU239     -0.1980
     77  CA        -4.6100    8.6060   22.3130 C.3   239  LEU239      0.1596
     78  C         -5.4650    9.8020   21.8690 C.2   239  LEU239      0.2287
     79  O         -6.0910    9.7540   20.8140 O.2   239  LEU239     -0.2864
     80  CB        -5.3730    7.7440   23.3340 C.3   239  LEU239      0.0297
     81  CG        -4.7400    6.3900   23.6930 C.3   239  LEU239      0.0022
     82  CD1       -5.6210    5.5970   24.6660 C.3   239  LEU239      0.0001
     83  CD2       -4.4300    5.5430   22.4440 C.3   239  LEU239      0.0001
     84  N         -3.9210   11.2560   18.7070 N.3   242  SER242     -0.1202
     85  CA        -4.2690   10.3580   17.6130 C.3   242  SER242      0.2020
     86  C         -5.6870   10.6400   17.1130 C.2   242  SER242      0.2618
     87  O         -5.9160   10.8660   15.9120 O.2   242  SER242     -0.2717
     88  CB        -4.1990    8.9080   18.0750 C.3   242  SER242      0.2103
     89  OG        -4.7550    8.0370   17.1040 O.3   242  SER242     -0.2182
     90  N         -6.6260   10.6290   18.0540 N.am  243  GLU243     -0.1979
     91  CA        -8.0500   10.7780   17.7230 C.3   243  GLU243      0.1602
     92  C         -8.3980   12.1670   17.1770 C.2   243  GLU243      0.2287
     93  O         -9.2820   12.2880   16.3400 O.2   243  GLU243     -0.2864
     94  CB        -8.9110   10.4100   18.9370 C.3   243  GLU243      0.0415
     95  CG        -8.8520    8.9310   19.2410 C.3   243  GLU243      0.1163
     96  CD        -9.6980    8.4960   20.4330 C.2   243  GLU243      0.3649
     97  OE1      -10.3960    9.3210   21.0480 O.co2 243  GLU243     -0.2457
     98  OE2       -9.6550    7.3010   20.7500 O.co2 243  GLU243     -0.2457
     99  N         -1.5160   13.6160   15.2080 N.3   247  LEU247     -0.1231
    100  CA        -0.3920   12.7470   14.8120 C.3   247  LEU247      0.1693
    101  C         -0.2800   12.6180   13.2840 C.2   247  LEU247      0.2592
    102  O          0.8160   12.6610   12.7350 O.2   247  LEU247     -0.2718
    103  CB        -0.5080   11.3640   15.4520 C.3   247  LEU247      0.0284
    104  CG        -0.5140   11.3180   16.9770 C.3   247  LEU247      0.0019
    105  CD1       -0.5760    9.8720   17.4340 C.3   247  LEU247      0.0001
    106  CD2        0.6990   12.0180   17.5630 C.3   247  LEU247      0.0001
    107  N         -1.4180   12.4720   12.6130 N.am  248  ASP248     -0.1974
    108  CA        -1.4410   12.4030   11.1470 C.3   248  ASP248      0.1709
    109  C         -0.9240   13.7100   10.5220 C.2   248  ASP248      0.2293
    110  O         -0.1420   13.6750    9.5420 O.2   248  ASP248     -0.2864
    111  CB        -2.8560   12.1180   10.6380 C.3   248  ASP248      0.1436
    112  CG        -3.3300   10.7180   10.9720 C.2   248  ASP248      0.3671
    113  OD1       -2.4990    9.7930   11.0310 O.co2 248  ASP248     -0.2456
    114  OD2       -4.5430   10.5480   11.1820 O.co2 248  ASP248     -0.2456
    115  N          2.8540   13.9230   10.8780 N.3   251  LYS251     -0.1245
    116  CA         3.4880   13.0400    9.8970 C.3   251  LYS251      0.1561
    117  C          3.5570   13.7340    8.5280 C.2   251  LYS251      0.2260
    118  O          4.6150   13.7900    7.9190 O.2   251  LYS251     -0.2867
    119  CB         2.7390   11.7110    9.7710 C.3   251  LYS251      0.0271
    120  CG         3.4290   10.6690    8.8510 C.3   251  LYS251      0.0035
    121  CD         4.4320    9.8170    9.5950 C.3   251  LYS251      0.0206
    122  CE         5.2030    8.9000    8.6430 C.3   251  LYS251      0.1093
    123  NZ         4.4030    7.7700    8.0930 N.3   251  LYS251     -0.1314
@<TRIPOS>BOND
     1   118   117    2
     2   123   122    1
     3   117   116    1
     4   122   121    1
     5   120   121    1
     6   120   119    1
     7   110   109    2
     8   119   116    1
     9   116   115    1
    10    55    54    1
    11   109   108    1
    12   111   112    1
    13   111   108    1
    14   112   113   ar
    15   112   114   ar
    16   108   107    1
    17    49    48    1
    18    54    51    1
    19    47    46    2
    20    50    51    1
    21    51    52    1
    22    46    45    1
    23    48    45    1
    24    42    41    1
    25    42    43    1
    26   107   101   am
    27   102   101    2
    28    41    40    1
    29    45    44    1
    30   101   100    1
    31    52    56   am
    32    52    53    2
    33    44    38   am
    34    56    57    1
    35    59    58    2
    36    63    64    1
    37    63    62    1
    38    40    37    1
    39    38    37    1
    40    38    39    2
    41   100    99    1
    42   100   103    1
    43    37    36    1
    44    61    62    1
    45    61    60    1
    46    57    58    1
    47    57    60    1
    48    58    65   am
    49   103   104    1
    50    87    86    2
    51    28    27    2
    52    65    66    1
    53    36    27   am
    54    93    92    2
    55    66    67    1
    56    27    26    1
    57   104   105    1
    58   104   106    1
    59    89    88    1
    60    86    85    1
    61    86    90   am
    62    92    91    1
    63    67    68    2
    64    85    88    1
    65    85    84    1
    66    33    31   ar
    67    33    35   ar
    68    91    90    1
    69    91    94    1
    70    31    30   ar
    71    26    25    1
    72    26    29    1
    73    22    23    1
    74    22    19    1
    75    35    34   ar
    76    30    29    1
    77    30    32   ar
    78    25    20   am
    79    94    95    1
    80    21    20    2
    81    95    96    1
    82    20    19    1
    83    23    24    1
    84    19    18    1
    85    34    32   ar
    86     4     3    2
    87     1     2    1
    88    96    98   ar
    89    96    97   ar
    90    24    18    1
    91    79    78    2
    92    18    11   am
    93    72    71    2
    94     3     2    1
    95     8     6    1
    96     2     5    1
    97     5     6    1
    98     5     7    1
    99    74    73    1
   100    78    77    1
   101    11    12    2
   102    11    10    1
   103    71    70    1
   104    71    76   am
   105    77    76    1
   106    77    80    1
   107    83    81    1
   108    70    73    1
   109    70    69    1
   110    73    75    1
   111    13    10    1
   112    13    14    1
   113    10     9    1
   114    80    81    1
   115    81    82    1
   116    15    14    1
   117    15    16    1
   118    16    17    1
