@<TRIPOS>MOLECULE
tmp/3o6hA01.pdb
 106 102 0 0 0
SMALL
GASTEIGER

@<TRIPOS>ATOM
      1  N          8.7440   -0.2870   20.2850 N.3    91  ILE91      -0.1245
      2  CA         8.1760   -1.1140   21.3440 C.3    91  ILE91       0.1561
      3  C          8.5990   -2.5790   21.1320 C.2    91  ILE91       0.2260
      4  O          8.2280   -3.2100   20.1280 O.2    91  ILE91      -0.2867
      5  CB         6.6480   -1.0140   21.3400 C.3    91  ILE91       0.0252
      6  CG1        6.2040    0.4270   21.6300 C.3    91  ILE91       0.0019
      7  CG2        6.0330   -1.9990   22.3560 C.3    91  ILE91       0.0019
      8  CD1        4.6960    0.6690   21.4400 C.3    91  ILE91       0.0001
      9  N          0.7620    3.6480   24.3310 N.3   103  LYS103     -0.1231
     10  CA         0.2660    3.1060   23.0500 C.3   103  LYS103      0.1678
     11  C          1.0330    3.8070   21.9170 C.2   103  LYS103      0.2434
     12  O          1.5180    4.9150   22.1140 O.2   103  LYS103     -0.2733
     13  CB        -1.2450    3.2950   22.8680 C.3   103  LYS103      0.0284
     14  CG        -2.1390    2.5330   23.8420 C.3   103  LYS103      0.0035
     15  CD        -1.9770    1.0340   23.7830 C.3   103  LYS103      0.0206
     16  CE        -2.9100    0.3250   24.7840 C.3   103  LYS103      0.1093
     17  NZ        -2.6030    0.5970   26.2260 N.3   103  LYS103     -0.1314
     18  N          1.1730    3.1510   20.7510 N.am  104  PRO104     -0.2718
     19  CA         1.9950    3.6590   19.6640 C.3   104  PRO104      0.1535
     20  C          1.5070    4.9790   19.0600 C.2   104  PRO104      0.2599
     21  O          0.3310    5.1650   18.9180 O.2   104  PRO104     -0.2715
     22  CB         1.9180    2.5360   18.6120 C.3   104  PRO104      0.0310
     23  CG         1.3870    1.3850   19.3000 C.3   104  PRO104      0.0237
     24  CD         0.5670    1.8480   20.3970 C.3   104  PRO104      0.0939
     25  N          2.4170    5.8950   18.7500 N.am  105  PHE105     -0.1960
     26  CA         2.0360    7.1750   18.1470 C.3   105  PHE105      0.1771
     27  C          2.2880    7.1270   16.6500 C.2   105  PHE105      0.2619
     28  O          1.8470    8.0230   15.9010 O.2   105  PHE105     -0.2715
     29  CB         2.7760    8.3730   18.7900 C.3   105  PHE105      0.0574
     30  CG         4.2740    8.3270   18.6620 C.ar  105  PHE105     -0.0200
     31  CD1        4.9030    8.7500   17.5000 C.ar  105  PHE105     -0.0042
     32  CD2        5.0660    7.8660   19.7260 C.ar  105  PHE105     -0.0042
     33  CE1        6.2940    8.6930   17.3720 C.ar  105  PHE105     -0.0003
     34  CE2        6.4630    7.8030   19.6090 C.ar  105  PHE105     -0.0003
     35  CZ         7.0760    8.2270   18.4310 C.ar  105  PHE105     -0.0000
     36  N          3.0240    6.0920   16.2280 N.am  106  MET106     -0.1963
     37  CA         3.2810    5.8640   14.8430 C.3   106  MET106      0.1736
     38  C          3.5550    4.3970   14.6190 C.2   106  MET106      0.2617
     39  O          4.1570    3.7400   15.4590 O.2   106  MET106     -0.2715
     40  CB         4.4890    6.6660   14.3650 C.3   106  MET106      0.0427
     41  CG         4.4890    6.9010   12.8530 C.3   106  MET106      0.0599
     42  SD         5.8690    7.8860   12.3040 S.3   106  MET106     -0.1393
     43  CE         5.3720    9.4790   12.9590 C.3   106  MET106      0.0692
     44  N          3.1030    3.8930   13.4770 N.am  107  SER107     -0.1950
     45  CA         3.3130    2.5010   13.0960 C.3   107  SER107      0.1924
     46  C          4.4070    2.4060   12.0490 C.2   107  SER107      0.2314
     47  O          4.6430    3.3520   11.3030 O.2   107  SER107     -0.2863
     48  CB         2.0320    1.8880   12.5530 C.3   107  SER107      0.2116
     49  OG         1.8190    2.2670   11.2030 O.3   107  SER107     -0.2180
     50  N          5.7080   -5.8190   11.7660 N.3   216  SER216     -0.1202
     51  CA         4.7040   -4.8400   12.0520 C.3   216  SER216      0.2020
     52  C          4.8040   -4.4210   13.4930 C.2   216  SER216      0.2619
     53  O          4.5580   -5.2200   14.3980 O.2   216  SER216     -0.2717
     54  CB         3.3330   -5.4420   11.8410 C.3   216  SER216      0.2103
     55  OG         2.7300   -5.0150   10.6540 O.3   216  SER216     -0.2182
     56  N          5.1200   -3.1540   13.7150 N.am  217  LYS217     -0.1965
     57  CA         5.2370   -2.6550   15.0640 C.3   217  LYS217      0.1728
     58  C          5.0490   -1.1260   15.1780 C.2   217  LYS217      0.2616
     59  O          4.5290   -0.4770   14.2650 O.2   217  LYS217     -0.2715
     60  CB         6.5310   -3.1510   15.6680 C.3   217  LYS217      0.0311
     61  CG         7.7720   -2.6960   14.9830 C.3   217  LYS217      0.0038
     62  CD         8.8390   -3.7560   15.0930 C.3   217  LYS217      0.0206
     63  CE        10.0470   -3.3370   14.3270 C.3   217  LYS217      0.1093
     64  NZ        11.1700   -4.2790   14.4300 N.3   217  LYS217     -0.1314
     65  N          5.4140   -0.5690   16.3220 N.am  218  GLY218     -0.1955
     66  CA         5.1350    0.8280   16.5840 C.3   218  GLY218      0.1869
     67  C          6.1470    1.4590   17.4910 C.2   218  GLY218      0.2309
     68  O          6.8980    0.7670   18.1740 O.2   218  GLY218     -0.2863
     69  N         -1.3390   10.7760   24.1580 N.3   237  VAL237     -0.1231
     70  CA        -1.0970   10.1600   22.8340 C.3   237  VAL237      0.1692
     71  C         -2.4020    9.7800   22.1400 C.2   237  VAL237      0.2591
     72  O         -2.5690   10.0670   20.9720 O.2   237  VAL237     -0.2718
     73  CB        -0.1060    8.9480   22.8710 C.3   237  VAL237      0.0266
     74  CG1       -0.0210    8.2800   21.4690 C.3   237  VAL237      0.0020
     75  CG2        1.2540    9.4060   23.3230 C.3   237  VAL237      0.0020
     76  N         -3.3350    9.1530   22.8660 N.am  238  LEU238     -0.1980
     77  CA        -4.6340    8.7370   22.2910 C.3   238  LEU238      0.1596
     78  C         -5.5120    9.9170   21.8630 C.2   238  LEU238      0.2287
     79  O         -6.1600    9.8770   20.8090 O.2   238  LEU238     -0.2864
     80  CB        -5.4200    7.8760   23.2840 C.3   238  LEU238      0.0297
     81  CG        -4.7830    6.5300   23.6570 C.3   238  LEU238      0.0022
     82  CD1       -5.6580    5.7840   24.6380 C.3   238  LEU238      0.0001
     83  CD2       -4.5860    5.7180   22.4190 C.3   238  LEU238      0.0001
     84  N         -4.0300   11.5840   18.7760 N.3   241  SER241     -0.1202
     85  CA        -4.3360   10.7000   17.6760 C.3   241  SER241      0.2020
     86  C         -5.7390   10.9540   17.1810 C.2   241  SER241      0.2618
     87  O         -5.9590   11.2110   15.9910 O.2   241  SER241     -0.2717
     88  CB        -4.2090    9.2410   18.1160 C.3   241  SER241      0.2103
     89  OG        -4.7730    8.3710   17.1670 O.3   241  SER241     -0.2182
     90  N         -6.6780   10.8980   18.1140 N.am  242  GLU242     -0.1979
     91  CA        -8.0900   11.1120   17.8320 C.3   242  GLU242      0.1602
     92  C         -8.4310   12.5340   17.3290 C.2   242  GLU242      0.2287
     93  O         -9.2820   12.6760   16.4590 O.2   242  GLU242     -0.2864
     94  CB        -8.9060   10.6970   19.0680 C.3   242  GLU242      0.0415
     95  CG        -8.7930    9.1750   19.2900 C.3   242  GLU242      0.1163
     96  CD        -9.6050    8.6090   20.4440 C.2   242  GLU242      0.3649
     97  OE1      -10.5240    9.2910   20.9700 O.co2 242  GLU242     -0.2457
     98  OE2       -9.3300    7.4390   20.8000 O.co2 242  GLU242     -0.2457
     99  N         -1.6830   13.8430   15.2150 N.3   246  LEU246     -0.1245
    100  CA        -0.5860   12.9710   14.7730 C.3   246  LEU246      0.1561
    101  C         -0.5350   12.9030   13.2280 C.2   246  LEU246      0.2260
    102  O          0.5220   12.9350   12.6350 O.2   246  LEU246     -0.2867
    103  CB        -0.6880   11.5620   15.3940 C.3   246  LEU246      0.0270
    104  CG        -0.5890   11.4620   16.9250 C.3   246  LEU246      0.0019
    105  CD1       -0.5810    9.9780   17.3800 C.3   246  LEU246      0.0001
    106  CD2        0.6110   12.2380   17.4820 C.3   246  LEU246      0.0001
@<TRIPOS>BOND
     1    55    54    1
     2    49    48    1
     3    47    46    2
     4    50    51    1
     5    54    51    1
     6    46    45    1
     7    51    52    1
     8    42    41    1
     9    42    43    1
    10    48    45    1
    11   102   101    2
    12    41    40    1
    13    45    44    1
    14   101   100    1
    15    44    38   am
    16    52    56   am
    17    52    53    2
    18    56    57    1
    19    59    58    2
    20    63    64    1
    21    63    62    1
    22    40    37    1
    23    38    37    1
    24    38    39    2
    25   100    99    1
    26   100   103    1
    27    37    36    1
    28    61    62    1
    29    61    60    1
    30    57    58    1
    31    57    60    1
    32    58    65   am
    33   103   104    1
    34    28    27    2
    35    87    86    2
    36    36    27   am
    37    65    66    1
    38    93    92    2
    39    66    67    1
    40    27    26    1
    41   104   105    1
    42   104   106    1
    43    89    88    1
    44    86    85    1
    45    86    90   am
    46    92    91    1
    47    33    31   ar
    48    33    35   ar
    49    67    68    2
    50    31    30   ar
    51    85    88    1
    52    85    84    1
    53    91    90    1
    54    91    94    1
    55    26    25    1
    56    26    29    1
    57    35    34   ar
    58    22    23    1
    59    22    19    1
    60    30    29    1
    61    30    32   ar
    62    25    20   am
    63    21    20    2
    64    20    19    1
    65    94    95    1
    66    95    96    1
    67    23    24    1
    68    34    32   ar
    69    19    18    1
    70     4     3    2
    71     1     2    1
    72    24    18    1
    73    96    98   ar
    74    96    97   ar
    75    18    11   am
    76    79    78    2
    77    72    71    2
    78     3     2    1
    79     5     2    1
    80     5     6    1
    81     5     7    1
    82     8     6    1
    83    74    73    1
    84    78    77    1
    85    11    12    2
    86    11    10    1
    87    71    70    1
    88    71    76   am
    89    77    76    1
    90    77    80    1
    91    83    81    1
    92    70    73    1
    93    70    69    1
    94    13    10    1
    95    13    14    1
    96    73    75    1
    97    10     9    1
    98    80    81    1
    99    81    82    1
   100    15    14    1
   101    15    16    1
   102    16    17    1
