@<TRIPOS>MOLECULE
tmp/3o6iA01.pdb
 106 102 0 0 0
SMALL
GASTEIGER

@<TRIPOS>ATOM
      1  N          8.8130   -0.2800   20.2170 N.3    92  ILE92      -0.1245
      2  CA         8.2210   -1.1310   21.2590 C.3    92  ILE92       0.1561
      3  C          8.6450   -2.5720   21.0570 C.2    92  ILE92       0.2260
      4  O          8.3840   -3.1750   19.9960 O.2    92  ILE92      -0.2867
      5  CB         6.6450   -1.0300   21.3030 C.3    92  ILE92       0.0252
      6  CG1        6.2200    0.4130   21.5420 C.3    92  ILE92       0.0019
      7  CG2        6.0790   -2.0010   22.3530 C.3    92  ILE92       0.0019
      8  CD1        4.7720    0.7490   21.3270 C.3    92  ILE92       0.0001
      9  N          0.9210    3.6330   24.2520 N.3   104  LYS104     -0.1231
     10  CA         0.4030    3.1300   22.9930 C.3   104  LYS104      0.1681
     11  C          1.1890    3.8250   21.8750 C.2   104  LYS104      0.2471
     12  O          1.6260    4.9680   22.0370 O.2   104  LYS104     -0.2730
     13  CB        -1.1110    3.4090   22.8500 C.3   104  LYS104      0.0284
     14  CG        -1.9840    2.6800   23.8950 C.3   104  LYS104      0.0035
     15  CD        -1.8120    1.1730   23.8500 C.3   104  LYS104      0.0206
     16  CE        -2.7260    0.3840   24.8280 C.3   104  LYS104      0.1093
     17  NZ        -2.6000    0.6520   26.2900 N.3   104  LYS104     -0.1314
     18  N          1.3460    3.1410   20.7270 N.am  105  PRO105     -0.2492
     19  CA         2.1900    3.6360   19.6290 C.3   105  PRO105      0.1619
     20  C          1.7110    4.9480   19.0280 C.2   105  PRO105      0.2605
     21  O          0.5110    5.1220   18.7940 O.2   105  PRO105     -0.2715
     22  CB         2.1500    2.4990   18.5730 C.3   105  PRO105      0.0570
     23  CG         1.2020    1.4870   19.0710 C.2   105  PRO105     -0.0077
     24  CD         0.7600    1.8200   20.4650 C.2   105  PRO105      0.0634
     25  N          2.6290    5.8770   18.7950 N.am  106  PHE106     -0.1960
     26  CA         2.2870    7.1330   18.1690 C.3   106  PHE106      0.1771
     27  C          2.5560    7.0650   16.6530 C.2   106  PHE106      0.2619
     28  O          2.0950    7.9180   15.8860 O.2   106  PHE106     -0.2715
     29  CB         3.0080    8.3170   18.8230 C.3   106  PHE106      0.0574
     30  CG         4.5180    8.2770   18.7020 C.ar  106  PHE106     -0.0200
     31  CD1        5.1540    8.7180   17.5420 C.ar  106  PHE106     -0.0042
     32  CD2        5.3140    7.7820   19.7580 C.ar  106  PHE106     -0.0042
     33  CE1        6.5600    8.6820   17.4310 C.ar  106  PHE106     -0.0003
     34  CE2        6.7150    7.7240   19.6460 C.ar  106  PHE106     -0.0003
     35  CZ         7.3360    8.1880   18.4940 C.ar  106  PHE106     -0.0000
     36  N          3.2800    6.0340   16.2220 N.am  107  MET107     -0.1963
     37  CA         3.4780    5.8340   14.7970 C.3   107  MET107      0.1736
     38  C          3.7960    4.3830   14.5530 C.2   107  MET107      0.2617
     39  O          4.4510    3.7090   15.3650 O.2   107  MET107     -0.2715
     40  CB         4.5980    6.7690   14.2970 C.3   107  MET107      0.0427
     41  CG         4.7770    6.8450   12.7500 C.3   107  MET107      0.0599
     42  SD         6.1430    7.9500   12.2630 S.3   107  MET107     -0.1393
     43  CE         5.6520    9.5430   12.8450 C.3   107  MET107      0.0692
     44  N          3.3450    3.8800   13.4150 N.am  108  SER108     -0.1950
     45  CA         3.6060    2.5080   13.0530 C.3   108  SER108      0.1924
     46  C          4.7110    2.4620   12.0070 C.2   108  SER108      0.2314
     47  O          4.9240    3.4160   11.2360 O.2   108  SER108     -0.2863
     48  CB         2.3310    1.8300   12.5450 C.3   108  SER108      0.2116
     49  OG         1.9610    2.3440   11.2940 O.3   108  SER108     -0.2180
     50  N          5.6130   -5.8070   11.6060 N.3   217  SER217     -0.1202
     51  CA         4.6810   -4.7450   11.9130 C.3   217  SER217      0.2020
     52  C          4.7460   -4.3960   13.3940 C.2   217  SER217      0.2619
     53  O          4.5270   -5.2330   14.2500 O.2   217  SER217     -0.2717
     54  CB         3.2590   -5.1480   11.5370 C.3   217  SER217      0.2103
     55  OG         2.4030   -4.0250   11.6940 O.3   217  SER217     -0.2182
     56  N          5.0440   -3.1430   13.6860 N.am  218  LYS218     -0.1965
     57  CA         5.2210   -2.7210   15.0560 C.3   218  LYS218      0.1728
     58  C          5.0740   -1.2100   15.1110 C.2   218  LYS218      0.2616
     59  O          4.5070   -0.6160   14.1970 O.2   218  LYS218     -0.2715
     60  CB         6.5470   -3.2430   15.6010 C.3   218  LYS218      0.0311
     61  CG         7.7990   -2.7370   14.8990 C.3   218  LYS218      0.0038
     62  CD         8.8830   -3.7870   15.0260 C.3   218  LYS218      0.0206
     63  CE        10.2330   -3.3840   14.3570 C.3   218  LYS218      0.1093
     64  NZ        11.2460   -4.4740   14.4410 N.3   218  LYS218     -0.1314
     65  N          5.5350   -0.5790   16.1810 N.am  219  GLY219     -0.1955
     66  CA         5.3450    0.8410   16.3320 C.3   219  GLY219      0.1869
     67  C          6.3170    1.4570   17.3280 C.2   219  GLY219      0.2309
     68  O          6.9850    0.7250   18.0750 O.2   219  GLY219     -0.2863
     69  N         -1.2410   10.6500   24.0040 N.3   238  VAL238     -0.1231
     70  CA        -1.0360   10.0240   22.6850 C.3   238  VAL238      0.1692
     71  C         -2.3680    9.6380   22.0360 C.2   238  VAL238      0.2591
     72  O         -2.5760    9.8860   20.8540 O.2   238  VAL238     -0.2718
     73  CB        -0.0810    8.7910   22.7360 C.3   238  VAL238      0.0266
     74  CG1       -0.0910    7.9520   21.3730 C.3   238  VAL238      0.0020
     75  CG2        1.3230    9.2450   23.0970 C.3   238  VAL238      0.0020
     76  N         -3.2700    9.0380   22.8090 N.am  239  LEU239     -0.1980
     77  CA        -4.5640    8.6280   22.2520 C.3   239  LEU239      0.1596
     78  C         -5.4280    9.8180   21.8250 C.2   239  LEU239      0.2287
     79  O         -6.0470    9.7860   20.7520 O.2   239  LEU239     -0.2864
     80  CB        -5.3220    7.7470   23.2400 C.3   239  LEU239      0.0297
     81  CG        -4.7230    6.3820   23.5860 C.3   239  LEU239      0.0022
     82  CD1       -5.5680    5.7080   24.6700 C.3   239  LEU239      0.0001
     83  CD2       -4.6040    5.4870   22.3750 C.3   239  LEU239      0.0001
     84  N         -3.8300   11.3200   18.6510 N.3   242  SER242     -0.1202
     85  CA        -4.2000   10.4270   17.5810 C.3   242  SER242      0.2020
     86  C         -5.6280   10.7140   17.0820 C.2   242  SER242      0.2618
     87  O         -5.8410   10.9750   15.8930 O.2   242  SER242     -0.2717
     88  CB        -4.1440    8.9860   18.0400 C.3   242  SER242      0.2103
     89  OG        -4.6410    8.1120   17.0430 O.3   242  SER242     -0.2182
     90  N         -6.5780   10.6630   18.0120 N.am  243  GLU243     -0.1979
     91  CA        -8.0080   10.8470   17.6870 C.3   243  GLU243      0.1602
     92  C         -8.3330   12.2530   17.1740 C.2   243  GLU243      0.2287
     93  O         -9.1750   12.4120   16.2890 O.2   243  GLU243     -0.2864
     94  CB        -8.8470   10.5070   18.9300 C.3   243  GLU243      0.0415
     95  CG        -8.8290    9.0420   19.1980 C.3   243  GLU243      0.1163
     96  CD        -9.6650    8.6250   20.4000 C.2   243  GLU243      0.3649
     97  OE1      -10.3360    9.4900   20.9970 O.co2 243  GLU243     -0.2457
     98  OE2       -9.6650    7.4250   20.6930 O.co2 243  GLU243     -0.2457
     99  N         -1.4480   13.7210   15.1470 N.3   247  LEU247     -0.1245
    100  CA        -0.3360   12.8730   14.7320 C.3   247  LEU247      0.1561
    101  C         -0.2990   12.7810   13.1980 C.2   247  LEU247      0.2260
    102  O          0.7690   12.8160   12.6140 O.2   247  LEU247     -0.2867
    103  CB        -0.3870   11.4770   15.3730 C.3   247  LEU247      0.0270
    104  CG        -0.4730   11.4260   16.9120 C.3   247  LEU247      0.0019
    105  CD1       -0.4250    9.9940   17.4250 C.3   247  LEU247      0.0001
    106  CD2        0.5910   12.2940   17.5560 C.3   247  LEU247      0.0001
@<TRIPOS>BOND
     1    47    46    2
     2    49    48    1
     3    54    55    1
     4    54    51    1
     5    50    51    1
     6    51    52    1
     7    46    45    1
     8    42    41    1
     9    42    43    1
    10    48    45    1
    11   102   101    2
    12    41    40    1
    13    45    44    1
    14   101   100    1
    15    52    56   am
    16    52    53    2
    17    44    38   am
    18    56    57    1
    19    59    58    2
    20    40    37    1
    21    63    64    1
    22    63    62    1
    23    38    37    1
    24    38    39    2
    25   100    99    1
    26   100   103    1
    27    37    36    1
    28    61    62    1
    29    61    60    1
    30    57    58    1
    31    57    60    1
    32    58    65   am
    33   103   104    1
    34    28    27    2
    35    87    86    2
    36    65    66    1
    37    36    27   am
    38    93    92    2
    39    66    67    1
    40    27    26    1
    41   104   105    1
    42   104   106    1
    43    89    88    1
    44    86    85    1
    45    86    90   am
    46    92    91    1
    47    67    68    2
    48    33    31   ar
    49    33    35   ar
    50    31    30   ar
    51    85    88    1
    52    85    84    1
    53    91    90    1
    54    91    94    1
    55    26    25    1
    56    26    29    1
    57    35    34   ar
    58    22    23    1
    59    22    19    1
    60    30    29    1
    61    30    32   ar
    62    21    20    2
    63    25    20   am
    64    94    95    1
    65    20    19    1
    66    23    24    2
    67    95    96    1
    68    19    18    1
    69    34    32   ar
    70     4     3    2
    71     1     2    1
    72    96    98   ar
    73    96    97   ar
    74    24    18    1
    75    18    11   am
    76    79    78    2
    77    72    71    2
    78     3     2    1
    79     2     5    1
    80     5     6    1
    81     5     7    1
    82     8     6    1
    83    74    73    1
    84    78    77    1
    85    11    12    2
    86    11    10    1
    87    71    70    1
    88    71    76   am
    89    77    76    1
    90    77    80    1
    91    83    81    1
    92    70    73    1
    93    70    69    1
    94    73    75    1
    95    13    10    1
    96    13    14    1
    97    10     9    1
    98    80    81    1
    99    81    82    1
   100    15    14    1
   101    15    16    1
   102    16    17    1
