@<TRIPOS>MOLECULE
tmp/3o6jA01.pdb
 120 115 0 0 0
SMALL
GASTEIGER

@<TRIPOS>ATOM
      1  N         25.9160   56.7680  284.5760 N.3    48  LEU48      -0.1245
      2  CA        26.8550   56.8960  285.7260 C.3    48  LEU48       0.1561
      3  C         28.0890   57.7630  285.4530 C.2    48  LEU48       0.2260
      4  O         28.2740   58.8670  286.0030 O.2    48  LEU48      -0.2867
      5  CB        27.3230   55.5420  286.2460 C.3    48  LEU48       0.0270
      6  CG        28.1020   55.5980  287.5960 C.3    48  LEU48       0.0019
      7  CD1       27.4230   56.4510  288.6420 C.3    48  LEU48       0.0001
      8  CD2       28.4600   54.2410  288.2300 C.3    48  LEU48       0.0001
      9  N         27.3220   61.4160  284.1890 N.3    51  ASP51      -0.1225
     10  CA        26.8840   62.3770  285.1780 C.3    51  ASP51       0.1805
     11  C         28.0310   62.7110  286.1320 C.2    51  ASP51       0.2597
     12  O         28.1880   63.8450  286.5200 O.2    51  ASP51      -0.2718
     13  CB        25.6660   61.8520  285.9350 C.3    51  ASP51       0.1424
     14  CG        24.4440   61.7830  285.0720 C.2    51  ASP51       0.3668
     15  OD1       24.4400   62.5060  284.0670 O.co2  51  ASP51      -0.2456
     16  OD2       23.4920   61.0300  285.3710 O.co2  51  ASP51      -0.2456
     17  N         28.8490   61.7230  286.4790 N.am   52  ALA52      -0.1979
     18  CA        30.0290   61.9390  287.3000 C.3    52  ALA52       0.1597
     19  C         31.0030   62.9190  286.7490 C.2    52  ALA52       0.2287
     20  O         31.6770   63.6000  287.4920 O.2    52  ALA52      -0.2864
     21  CB        30.7310   60.6520  287.5600 C.3    52  ALA52       0.0319
     22  N         22.7140   68.3910  290.4300 N.3    73  ILE73      -0.1245
     23  CA        22.6030   67.4280  289.3730 C.3    73  ILE73       0.1561
     24  C         21.7000   66.3220  289.8220 C.2    73  ILE73       0.2260
     25  O         21.6010   66.0180  291.0360 O.2    73  ILE73      -0.2867
     26  CB        23.9440   66.8660  289.0400 C.3    73  ILE73       0.0252
     27  CG1       24.4280   65.8870  290.1300 C.3    73  ILE73       0.0019
     28  CG2       24.9040   68.0250  288.8340 C.3    73  ILE73       0.0019
     29  CD1       25.8720   65.4070  289.9440 C.3    73  ILE73       0.0001
     30  N         21.8540   63.1570  288.8760 N.3    75  GLY75      -0.1210
     31  CA        22.4230   61.8230  288.8340 C.3    75  GLY75       0.1940
     32  C         21.6430   60.8070  287.9870 C.2    75  GLY75       0.2454
     33  O         20.5250   61.0800  287.4770 O.2    75  GLY75      -0.2732
     34  N         22.2190   59.6100  287.8520 N.am   76  PRO76      -0.2717
     35  CA        21.6880   58.4850  287.1070 C.3    76  PRO76       0.1535
     36  C         20.4750   57.7340  287.6980 C.2    76  PRO76       0.2598
     37  O         19.9240   56.8440  287.0100 O.2    76  PRO76      -0.2715
     38  CB        22.8680   57.5200  287.0940 C.3    76  PRO76       0.0310
     39  CG        23.7270   57.9410  288.2100 C.3    76  PRO76       0.0237
     40  CD        23.6130   59.3820  288.2470 C.3    76  PRO76       0.0939
     41  N         20.0780   58.0450  288.9380 N.am   77  PHE77      -0.1974
     42  CA        19.2670   57.0890  289.7110 C.3    77  PHE77       0.1639
     43  C         17.8540   57.5490  289.9890 C.2    77  PHE77       0.2290
     44  O         17.1140   56.9430  290.7820 O.2    77  PHE77      -0.2864
     45  CB        19.9570   56.6950  291.0070 C.3    77  PHE77       0.0560
     46  CG        21.3010   56.0900  290.8190 C.ar   77  PHE77      -0.0200
     47  CD1       22.3350   56.4400  291.6490 C.ar   77  PHE77      -0.0042
     48  CD2       21.5430   55.1970  289.7920 C.ar   77  PHE77      -0.0042
     49  CE1       23.5940   55.8910  291.4720 C.ar   77  PHE77      -0.0003
     50  CE2       22.8020   54.6400  289.5930 C.ar   77  PHE77      -0.0003
     51  CZ        23.8280   54.9840  290.4130 C.ar   77  PHE77      -0.0000
     52  N         21.0150   51.9200  295.1430 N.3   133  TYR133     -0.1241
     53  CA        19.7750   52.5140  294.7240 C.3   133  TYR133      0.1605
     54  C         18.7960   51.4950  294.0800 C.2   133  TYR133      0.2264
     55  O         19.1920   50.6860  293.2620 O.2   133  TYR133     -0.2867
     56  CB        20.0790   53.5960  293.7340 C.3   133  TYR133      0.0534
     57  CG        20.5460   54.9320  294.2780 C.ar  133  TYR133     -0.0201
     58  CD1       21.9300   55.2310  294.3850 C.ar  133  TYR133     -0.0009
     59  CD2       19.6310   55.9410  294.5860 C.ar  133  TYR133     -0.0009
     60  CE1       22.3930   56.4960  294.8590 C.ar  133  TYR133      0.0417
     61  CE2       20.0730   57.2090  295.0190 C.ar  133  TYR133      0.0417
     62  CZ        21.4640   57.4850  295.1590 C.ar  133  TYR133      0.1957
     63  OH        21.8980   58.7290  295.5860 O.3   133  TYR133     -0.2866
     64  N         28.4480   57.3750  299.6650 N.3   168  TYR168     -0.1241
     65  CA        28.1540   56.3640  298.6170 C.3   168  TYR168      0.1605
     66  C         29.4420   56.2040  297.7660 C.2   168  TYR168      0.2264
     67  O         30.1160   57.1800  297.4330 O.2   168  TYR168     -0.2867
     68  CB        26.8960   56.8170  297.8040 C.3   168  TYR168      0.0534
     69  CG        26.6260   56.0830  296.5110 C.ar  168  TYR168     -0.0201
     70  CD1       25.7770   54.9680  296.4830 C.ar  168  TYR168     -0.0009
     71  CD2       27.1910   56.5100  295.2950 C.ar  168  TYR168     -0.0009
     72  CE1       25.5300   54.2730  295.2880 C.ar  168  TYR168      0.0417
     73  CE2       26.9580   55.8230  294.0970 C.ar  168  TYR168      0.0417
     74  CZ        26.1300   54.7050  294.1010 C.ar  168  TYR168      0.1957
     75  OH        25.8860   53.9890  292.9310 O.3   168  TYR168     -0.2866
     76  N         30.9380   54.8080  294.1700 N.3   170  ILE170     -0.1245
     77  CA        30.6910   54.2450  292.8640 C.3   170  ILE170      0.1561
     78  C         31.4420   52.9170  292.8390 C.2   170  ILE170      0.2260
     79  O         32.5890   52.8660  293.2650 O.2   170  ILE170     -0.2867
     80  CB        31.1630   55.2250  291.7900 C.3   170  ILE170      0.0252
     81  CG1       30.1160   56.3440  291.6130 C.3   170  ILE170      0.0019
     82  CG2       31.4580   54.4990  290.4730 C.3   170  ILE170      0.0019
     83  CD1       30.6570   57.7270  291.5600 C.3   170  ILE170      0.0001
     84  N         30.9600   59.8210  296.7950 N.3   190  ARG190     -0.1245
     85  CA        30.0240   60.9320  297.0790 C.3   190  ARG190      0.1563
     86  C         29.6050   60.9430  298.5540 C.2   190  ARG190      0.2260
     87  O         29.4790   59.8820  299.1950 O.2   190  ARG190     -0.2867
     88  CB        28.7550   60.7700  296.2580 C.3   190  ARG190      0.0307
     89  CG        28.9370   60.6410  294.7310 C.3   190  ARG190      0.0489
     90  CD        27.7280   61.2500  294.0520 C.3   190  ARG190      0.2205
     91  NE        27.7080   62.7200  294.2420 N.pl3 190  ARG190     -0.0865
     92  CZ        26.6260   63.4680  294.5080 C.cat 190  ARG190      0.5346
     93  NH1       25.4250   62.9100  294.6310 N.pl3 190  ARG190      0.1354
     94  NH2       26.7490   64.7890  294.6610 N.pl3 190  ARG190      0.1354
     95  N         23.7980   62.0780  300.5060 N.3   193  HIS193     -0.1241
     96  CA        22.9880   63.1240  299.9340 C.3   193  HIS193      0.1621
     97  C         21.6010   62.5610  299.7700 C.2   193  HIS193      0.2264
     98  O         21.4220   61.3350  299.6980 O.2   193  HIS193     -0.2867
     99  CB        23.5620   63.5640  298.5970 C.3   193  HIS193      0.0745
    100  CG        23.6530   62.4560  297.6110 C.ar  193  HIS193      0.0817
    101  ND1       24.6480   61.5070  297.6540 N.ar  193  HIS193     -0.2268
    102  CD2       22.8500   62.1090  296.5830 C.ar  193  HIS193      0.1154
    103  CE1       24.4580   60.6240  296.6940 C.ar  193  HIS193      0.1986
    104  NE2       23.3790   60.9730  296.0200 N.ar  193  HIS193     -0.2212
    105  N         18.4580   62.9990  297.1070 N.3   195  HIS195     -0.1241
    106  CA        18.0350   63.6830  295.8720 C.3   195  HIS195      0.1621
    107  C         16.6810   64.2260  296.0970 C.2   195  HIS195      0.2264
    108  O         15.8680   63.5530  296.7130 O.2   195  HIS195     -0.2867
    109  CB        17.9920   62.7540  294.6820 C.3   195  HIS195      0.0745
    110  CG        19.3090   62.1490  294.3630 C.ar  195  HIS195      0.0817
    111  ND1       20.1980   62.7350  293.4970 N.ar  195  HIS195     -0.2268
    112  CD2       19.9030   61.0150  294.8020 C.ar  195  HIS195      0.1154
    113  CE1       21.2920   61.9980  293.4230 C.ar  195  HIS195      0.1986
    114  NE2       21.1350   60.9440  294.2010 N.ar  195  HIS195     -0.2212
    115  N         31.7910   63.3160  292.0410 N.3   223  CYS223     -0.1235
    116  CA        31.0870   64.0140  290.9800 C.3   223  CYS223      0.1677
    117  C         31.2760   65.5160  291.1420 C.2   223  CYS223      0.2270
    118  O         31.0510   66.2800  290.2030 O.2   223  CYS223     -0.2867
    119  CB        29.6180   63.6120  290.9750 C.3   223  CYS223      0.0956
    120  SG        29.4610   61.8190  290.9100 S.3   223  CYS223     -0.0801
@<TRIPOS>BOND
     1    15    14   ar
     2     9    10    1
     3     1     2    1
     4    14    16   ar
     5    14    13    1
     6    10    13    1
     7    10    11    1
     8     3     2    1
     9     3     4    2
    10     2     5    1
    11    11    17   am
    12    11    12    2
    13     5     6    1
    14    17    18    1
    15    19    18    1
    16    19    20    2
    17    37    36    2
    18    38    35    1
    19    38    39    1
    20    35    36    1
    21    35    34    1
    22    18    21    1
    23    33    32    2
    24     6     8    1
    25     6     7    1
    26    36    41   am
    27    34    32   am
    28    34    40    1
    29    32    31    1
    30    39    40    1
    31    28    26    1
    32    31    30    1
    33    41    42    1
    34    26    23    1
    35    26    27    1
    36    23    24    1
    37    23    22    1
    38    50    48   ar
    39    50    51   ar
    40    42    43    1
    41    42    45    1
    42    48    46   ar
    43    24    25    2
    44    29    27    1
    45    43    44    2
    46   118   117    2
    47    51    49   ar
    48    82    80    1
    49    46    45    1
    50    46    47   ar
    51   120   119    1
    52   119   116    1
    53   116   117    1
    54   116   115    1
    55    49    47   ar
    56    83    81    1
    57    81    80    1
    58    80    77    1
    59    78    77    1
    60    78    79    2
    61    77    76    1
    62    75    74    1
    63    55    54    2
    64   113   111   ar
    65   113   114   ar
    66   111   110   ar
    67    56    57    1
    68    56    53    1
    69    90    91    1
    70    90    89    1
    71    54    53    1
    72    73    74   ar
    73    73    71   ar
    74    74    72   ar
    75   114   112   ar
    76    91    92    2
    77    57    58   ar
    78    57    59   ar
    79   110   109    1
    80   110   112   ar
    81    58    60   ar
    82    92    93    1
    83    92    94    1
    84    59    61   ar
    85   109   106    1
    86    53    52    1
    87    89    88    1
    88    60    62   ar
    89    61    62   ar
    90    62    63    1
    91    72    70   ar
    92    71    69   ar
    93   106   107    1
    94   106   105    1
    95   104   102   ar
    96   104   103   ar
    97   107   108    2
    98    88    85    1
    99    70    69   ar
   100    69    68    1
   101   102   100   ar
   102   103   101   ar
   103    84    85    1
   104    85    86    1
   105    67    66    2
   106   100   101   ar
   107   100    99    1
   108    66    65    1
   109    68    65    1
   110    86    87    2
   111    99    96    1
   112    65    64    1
   113    98    97    2
   114    97    96    1
   115    96    95    1
