@<TRIPOS>MOLECULE
tmp/3o6mB00.pdb
 111 111 0 0 0
SMALL
GASTEIGER

@<TRIPOS>ATOM
      1  N         42.6810    9.9110  -13.2530 N.3    33  ASP33      -0.1239
      2  CA        42.2210    8.5280  -13.0830 C.3    33  ASP33       0.1674
      3  C         40.9650    8.4580  -12.1080 C.2    33  ASP33       0.2266
      4  O         40.9230    9.1810  -11.0850 O.2    33  ASP33      -0.2867
      5  CB        43.3820    7.6700  -12.5350 C.3    33  ASP33       0.1410
      6  CG        44.5200    7.3960  -13.5800 C.2    33  ASP33       0.3668
      7  OD1       44.5500    8.0910  -14.6370 O.co2  33  ASP33      -0.2456
      8  OD2       45.4050    6.4670  -13.3450 O.co2  33  ASP33      -0.2456
      9  N         37.6520   -3.0160   -3.9290 N.3    47  TRP47      -0.1241
     10  CA        38.0270   -2.3040   -5.0900 C.3    47  TRP47       0.1605
     11  C         37.3450   -2.9810   -6.2740 C.2    47  TRP47       0.2264
     12  O         37.3030   -4.2140   -6.3730 O.2    47  TRP47      -0.2867
     13  CB        39.5550   -2.2990   -5.2550 C.3    47  TRP47       0.0550
     14  CG        39.9390   -1.7130   -6.6050 C.ar   47  TRP47       0.0003
     15  CD1       39.5180   -0.5270   -7.1180 C.ar   47  TRP47       0.0946
     16  CD2       40.7700   -2.2980   -7.5770 C.ar   47  TRP47       0.0152
     17  NE1       40.0010   -0.3530   -8.3560 N.ar   47  TRP47      -0.2442
     18  CE2       40.7880   -1.4290   -8.6720 C.ar   47  TRP47       0.0810
     19  CE3       41.5030   -3.5000   -7.6450 C.ar   47  TRP47       0.0012
     20  CZ2       41.5030   -1.7170   -9.8420 C.ar   47  TRP47       0.0191
     21  CZ3       42.2270   -3.7870   -8.8090 C.ar   47  TRP47       0.0001
     22  CH2       42.2200   -2.9080   -9.8780 C.ar   47  TRP47       0.0015
     23  N         39.2950    0.5920  -12.2200 N.3    50  SER50      -0.1202
     24  CA        39.9990    1.8630  -12.4000 C.3    50  SER50       0.2020
     25  C         40.2600    2.1690  -13.8980 C.2    50  SER50       0.2618
     26  O         40.4910    1.2740  -14.7080 O.2    50  SER50      -0.2717
     27  CB        41.3370    1.8720  -11.6250 C.3    50  SER50       0.2103
     28  OG        41.2290    1.8170  -10.1810 O.3    50  SER50      -0.2182
     29  N         40.2430    3.4400  -14.2680 N.am   51  ILE51      -0.1979
     30  CA        40.4170    3.8290  -15.6570 C.3    51  ILE51       0.1595
     31  C         41.3400    5.0560  -15.6850 C.2    51  ILE51       0.2287
     32  O         41.2000    5.9590  -14.8550 O.2    51  ILE51      -0.2864
     33  CB        39.0390    4.0700  -16.3710 C.3    51  ILE51       0.0276
     34  CG1       39.2400    4.4190  -17.8520 C.3    51  ILE51       0.0022
     35  CG2       38.1670    5.1080  -15.6020 C.3    51  ILE51       0.0022
     36  CD1       37.9800    4.3940  -18.7370 C.3    51  ILE51       0.0001
     37  N         43.7610    3.1670  -20.4170 N.3    57  TYR57      -0.1241
     38  CA        44.0200    2.0380  -19.5420 C.3    57  TYR57       0.1605
     39  C         42.8640    1.7690  -18.5700 C.2    57  TYR57       0.2264
     40  O         42.2560    2.7130  -18.0540 O.2    57  TYR57      -0.2867
     41  CB        45.3530    2.2330  -18.8370 C.3    57  TYR57       0.0534
     42  CG        46.4250    2.5730  -19.8220 C.ar   57  TYR57      -0.0201
     43  CD1       46.9500    1.5840  -20.6460 C.ar   57  TYR57      -0.0009
     44  CD2       46.8970    3.8840  -19.9640 C.ar   57  TYR57      -0.0009
     45  CE1       47.9200    1.8740  -21.5780 C.ar   57  TYR57       0.0417
     46  CE2       47.8670    4.1920  -20.8980 C.ar   57  TYR57       0.0417
     47  CZ        48.3750    3.1720  -21.7090 C.ar   57  TYR57       0.1957
     48  OH        49.3460    3.4100  -22.6640 O.3    57  TYR57      -0.2866
     49  N         41.6700   -1.3830  -15.4680 N.3    59  TYR59      -0.1241
     50  CA        42.2730   -2.3680  -14.5760 C.3    59  TYR59       0.1605
     51  C         41.1840   -2.9760  -13.7150 C.2    59  TYR59       0.2264
     52  O         40.2600   -2.2740  -13.2560 O.2    59  TYR59      -0.2867
     53  CB        43.2880   -1.7400  -13.6280 C.3    59  TYR59       0.0534
     54  CG        44.1690   -0.6920  -14.2390 C.ar   59  TYR59      -0.0201
     55  CD1       45.4800   -1.0000  -14.5860 C.ar   59  TYR59      -0.0009
     56  CD2       43.7090    0.6220  -14.4460 C.ar   59  TYR59      -0.0009
     57  CE1       46.2920   -0.0730  -15.1400 C.ar   59  TYR59       0.0417
     58  CE2       44.5440    1.5760  -15.0270 C.ar   59  TYR59       0.0417
     59  CZ        45.8360    1.1980  -15.3640 C.ar   59  TYR59       0.1957
     60  OH        46.7040    2.0680  -15.9240 O.3    59  TYR59      -0.2866
     61  N         41.1190    9.0100   -8.2810 N.3    99  ASP99      -0.1225
     62  CA        42.4770    8.5600   -7.9750 C.3    99  ASP99       0.1805
     63  C         43.4760    9.7280   -8.0240 C.2    99  ASP99       0.2598
     64  O         43.7730   10.2460   -9.0880 O.2    99  ASP99      -0.2718
     65  CB        42.9430    7.5220   -8.9920 C.3    99  ASP99       0.1424
     66  CG        42.0880    6.2370   -9.0160 C.2    99  ASP99       0.3668
     67  OD1       40.9080    6.2500   -8.5680 O.co2  99  ASP99      -0.2456
     68  OD2       42.6120    5.2110   -9.5390 O.co2  99  ASP99      -0.2456
     69  N         44.0050   10.1280   -6.8750 N.am  100  TYR100     -0.1962
     70  CA        45.0170   11.1530   -6.8150 C.3   100  TYR100      0.1771
     71  C         45.7780   11.0270   -5.5090 C.2   100  TYR100      0.2620
     72  O         45.3040   10.3570   -4.5810 O.2   100  TYR100     -0.2715
     73  CB        44.3930   12.5620   -6.9660 C.3   100  TYR100      0.0574
     74  CG        45.4230   13.5820   -7.3710 C.ar  100  TYR100     -0.0198
     75  CD1       46.2180   13.3670   -8.4940 C.ar  100  TYR100     -0.0009
     76  CD2       45.6410   14.7300   -6.6230 C.ar  100  TYR100     -0.0009
     77  CE1       47.2130   14.2500   -8.8700 C.ar  100  TYR100      0.0417
     78  CE2       46.6270   15.6400   -6.9960 C.ar  100  TYR100      0.0417
     79  CZ        47.4060   15.3930   -8.1320 C.ar  100  TYR100      0.1957
     80  OH        48.4010   16.2630   -8.5210 O.3   100  TYR100     -0.2866
     81  N         46.9360   11.6950   -5.4290 N.am  101  ASP101     -0.1957
     82  CA        47.8350   11.6440   -4.2720 C.3   101  ASP101      0.1840
     83  C         48.1340   10.1570   -3.8850 C.2   101  ASP101      0.2622
     84  O         47.8930    9.7310   -2.7370 O.2   101  ASP101     -0.2715
     85  CB        47.2590   12.4130   -3.0500 C.3   101  ASP101      0.1450
     86  CG        47.4110   13.9530   -3.1320 C.2   101  ASP101      0.3671
     87  OD1       48.3320   14.4830   -3.7840 O.co2 101  ASP101     -0.2456
     88  OD2       46.5900   14.6550   -2.5040 O.co2 101  ASP101     -0.2456
     89  N         48.6540    9.3800   -4.8340 N.am  102  TYR102     -0.1960
     90  CA        49.1380    8.0000   -4.5640 C.3   102  TYR102      0.1771
     91  C         48.0930    7.0890   -3.9390 C.2   102  TYR102      0.2620
     92  O         48.4310    6.2560   -3.0500 O.2   102  TYR102     -0.2715
     93  CB        50.3650    8.0190   -3.6650 C.3   102  TYR102      0.0574
     94  CG        51.3000    9.0830   -4.0780 C.ar  102  TYR102     -0.0198
     95  CD1       52.1940    8.8640   -5.1210 C.ar  102  TYR102     -0.0009
     96  CD2       51.2790   10.3260   -3.4570 C.ar  102  TYR102     -0.0009
     97  CE1       53.0610    9.8370   -5.5240 C.ar  102  TYR102      0.0417
     98  CE2       52.1380   11.3180   -3.8630 C.ar  102  TYR102      0.0417
     99  CZ        53.0330   11.0670   -4.8940 C.ar  102  TYR102      0.1957
    100  OH        53.8940   12.0520   -5.3000 O.3   102  TYR102     -0.2866
    101  N         46.8560    7.2690   -4.4330 N.am  103  GLY103     -0.1940
    102  CA        45.7000    6.5280   -4.0270 C.3   103  GLY103      0.2014
    103  C         44.3990    7.1920   -4.4450 C.2   103  GLY103      0.2638
    104  O         44.1900    7.5530   -5.6160 O.2   103  GLY103     -0.2714
    105  N         43.5110    7.3710   -3.4650 N.am  104  VAL104     -0.1977
    106  CA        42.1760    7.8530   -3.7570 C.3   104  VAL104      0.1596
    107  C         41.9240    8.9760   -2.8060 C.2   104  VAL104      0.2287
    108  O         42.2110    8.8680   -1.6360 O.2   104  VAL104     -0.2864
    109  CB        41.1050    6.7220   -3.5820 C.3   104  VAL104      0.0276
    110  CG1       39.7010    7.2950   -3.4810 C.3   104  VAL104      0.0022
    111  CG2       41.1980    5.7310   -4.7300 C.3   104  VAL104      0.0022
@<TRIPOS>BOND
     1    48    47    1
     2    47    45   ar
     3    47    46   ar
     4    45    43   ar
     5    46    44   ar
     6    43    42   ar
     7    37    38    1
     8    44    42   ar
     9    42    41    1
    10    38    41    1
    11    38    39    1
    12    36    34    1
    13    39    40    2
    14    34    33    1
    15    33    30    1
    16    33    35    1
    17    60    59    1
    18    31    30    1
    19    31    32    2
    20    30    29    1
    21    49    50    1
    22    59    57   ar
    23    59    58   ar
    24    57    55   ar
    25    58    56   ar
    26    26    25    2
    27     7     6   ar
    28    55    54   ar
    29    50    51    1
    30    50    53    1
    31    56    54   ar
    32    29    25   am
    33    54    53    1
    34    25    24    1
    35    51    52    2
    36     6     8   ar
    37     6     5    1
    38     1     2    1
    39     2     5    1
    40     2     3    1
    41    24    23    1
    42    24    27    1
    43     3     4    2
    44    27    28    1
    45    22    20   ar
    46    22    21   ar
    47    20    18   ar
    48    68    66   ar
    49    64    63    2
    50    66    65    1
    51    66    67   ar
    52    65    62    1
    53    77    75   ar
    54    77    79   ar
    55    21    19   ar
    56    18    17   ar
    57    18    16   ar
    58    80    79    1
    59    75    74   ar
    60    17    15   ar
    61    61    62    1
    62    79    78   ar
    63    63    62    1
    64    63    69   am
    65    19    16   ar
    66    16    14   ar
    67    74    73    1
    68    74    76   ar
    69    15    14   ar
    70    78    76   ar
    71    73    70    1
    72    69    70    1
    73    70    71    1
    74    14    13    1
    75    12    11    2
    76    11    10    1
    77   104   103    2
    78    97    95   ar
    79    97    99   ar
    80    71    81   am
    81    71    72    2
    82    81    82    1
    83   100    99    1
    84    13    10    1
    85    95    94   ar
    86    10     9    1
    87    99    98   ar
    88    89    90    1
    89    89    83   am
    90   111   109    1
    91    90    91    1
    92    90    93    1
    93   103   102    1
    94   103   105   am
    95   101   102    1
    96   101    91   am
    97    82    83    1
    98    82    85    1
    99    94    93    1
   100    94    96   ar
   101    91    92    2
   102    83    84    2
   103    98    96   ar
   104    87    86   ar
   105   106   109    1
   106   106   105    1
   107   106   107    1
   108   109   110    1
   109    86    85    1
   110    86    88   ar
   111   107   108    2
