@<TRIPOS>MOLECULE
tmp/3o6mA00.pdb
 97 96 0 0 0
SMALL
GASTEIGER

@<TRIPOS>ATOM
      1  N         57.5520   -0.0870   -1.7580 N.3    31  TYR31      -0.1241
      2  CA        57.8050   -0.3680   -3.1460 C.3    31  TYR31       0.1605
      3  C         59.2190    0.0030   -3.5290 C.2    31  TYR31       0.2264
      4  O         59.8240    0.9320   -2.9560 O.2    31  TYR31      -0.2867
      5  CB        56.7920    0.2950   -4.0370 C.3    31  TYR31       0.0534
      6  CG        56.8650    0.0160   -5.5260 C.ar   31  TYR31      -0.0201
      7  CD1       56.6760   -1.2860   -6.0740 C.ar   31  TYR31      -0.0009
      8  CD2       57.0130    1.0810   -6.4040 C.ar   31  TYR31      -0.0009
      9  CE1       56.6960   -1.4930   -7.4920 C.ar   31  TYR31       0.0417
     10  CE2       57.0230    0.8980   -7.7830 C.ar   31  TYR31       0.0417
     11  CZ        56.8770   -0.3660   -8.3220 C.ar   31  TYR31       0.1957
     12  OH        56.9030   -0.4080   -9.7020 O.3    31  TYR31      -0.2866
     13  N         60.6910    1.8630   -4.9310 N.3    33  ASP33      -0.1239
     14  CA        60.7160    3.2480   -5.3950 C.3    33  ASP33       0.1674
     15  C         60.7840    4.1800   -4.1880 C.2    33  ASP33       0.2266
     16  O         60.7230    5.4130   -4.3190 O.2    33  ASP33      -0.2867
     17  CB        59.5260    3.5470   -6.3380 C.3    33  ASP33       0.1410
     18  CG        58.1920    3.8720   -5.5990 C.2    33  ASP33       0.3668
     19  OD1       58.0340    3.6930   -4.3730 O.co2  33  ASP33      -0.2456
     20  OD2       57.2780    4.3200   -6.2970 O.co2  33  ASP33      -0.2456
     21  N         52.5910    2.6080   -0.2600 N.3    37  TYR37      -0.1241
     22  CA        51.1990    2.9260   -0.5160 C.3    37  TYR37       0.1605
     23  C         50.1790    2.3640    0.4830 C.2    37  TYR37       0.2264
     24  O         49.4090    1.4710    0.1630 O.2    37  TYR37      -0.2867
     25  CB        50.8670    2.5350   -1.9270 C.3    37  TYR37       0.0534
     26  CG        51.8490    3.1580   -2.8880 C.ar   37  TYR37      -0.0201
     27  CD1       51.5460    4.3690   -3.5530 C.ar   37  TYR37      -0.0009
     28  CD2       53.1110    2.5850   -3.0830 C.ar   37  TYR37      -0.0009
     29  CE1       52.4320    4.9240   -4.4080 C.ar   37  TYR37       0.0417
     30  CE2       54.0150    3.1530   -3.9300 C.ar   37  TYR37       0.0417
     31  CZ        53.6760    4.3070   -4.5840 C.ar   37  TYR37       0.1957
     32  OH        54.5820    4.8560   -5.4450 O.3    37  TYR37      -0.2866
     33  N         47.1320    3.4230    3.1620 N.3    39  ASN39      -0.1240
     34  CA        46.1330    4.4560    3.3270 C.3    39  ASN39       0.1653
     35  C         45.2330    4.2060    4.5300 C.2    39  ASN39       0.2266
     36  O         44.9660    3.0570    4.8720 O.2    39  ASN39      -0.2867
     37  CB        45.2680    4.5430    2.0740 C.3    39  ASN39       0.1155
     38  CG        46.1050    4.6170    0.7630 C.2    39  ASN39       0.2627
     39  OD1       46.4090    5.7130    0.2690 O.2    39  ASN39      -0.2716
     40  ND2       46.4920    3.4510    0.2180 N.am   39  ASN39      -0.0877
     41  N         44.1020    0.4910    3.9020 N.3    94  TRP94      -0.1241
     42  CA        44.0750   -0.1020    2.5940 C.3    94  TRP94       0.1605
     43  C         45.3210    0.1210    1.8420 C.2    94  TRP94       0.2264
     44  O         45.9230    1.1030    1.9590 O.2    94  TRP94      -0.2867
     45  CB        42.8340    0.2760    1.7670 C.3    94  TRP94       0.0550
     46  CG        42.7200    1.6700    1.2620 C.ar   94  TRP94       0.0003
     47  CD1       42.1350    2.6690    1.8800 C.ar   94  TRP94       0.0946
     48  CD2       43.0960    2.1570   -0.0160 C.ar   94  TRP94       0.0152
     49  NE1       42.1620    3.7580    1.1410 N.ar   94  TRP94      -0.2442
     50  CE2       42.7480    3.4780   -0.0520 C.ar   94  TRP94       0.0810
     51  CE3       43.7360    1.6060   -1.1160 C.ar   94  TRP94       0.0012
     52  CZ2       42.9990    4.2770   -1.1490 C.ar   94  TRP94       0.0191
     53  CZ3       43.9880    2.3710   -2.1630 C.ar   94  TRP94       0.0001
     54  CH2       43.6180    3.6970   -2.1910 C.ar   94  TRP94       0.0015
     55  N         47.6160   -0.0420   -1.7820 N.3    96  GLY96      -0.1210
     56  CA        47.6660    0.0540   -3.2150 C.3    96  GLY96       0.1956
     57  C         49.0230   -0.1530   -3.8540 C.2    96  GLY96       0.2613
     58  O         49.1910    0.0930   -5.0100 O.2    96  GLY96      -0.2717
     59  N         49.9830   -0.6180   -3.0960 N.am   97  THR97      -0.1938
     60  CA        51.2820   -1.0420   -3.6240 C.3    97  THR97       0.2028
     61  C         51.1070   -2.2440   -4.5780 C.2    97  THR97       0.2642
     62  O         51.5180   -2.1680   -5.7530 O.2    97  THR97      -0.2714
     63  CB        52.2100   -1.4830   -2.5520 C.3    97  THR97       0.1808
     64  OG1       52.2490   -0.4980   -1.5260 O.3    97  THR97      -0.2208
     65  CG2       53.6390   -1.7380   -3.1130 C.3    97  THR97       0.0379
     66  N         50.4740   -3.3200   -4.1000 N.am   98  HIS98      -0.1959
     67  CA        50.3540   -4.5600   -4.8740 C.3    98  HIS98       0.1787
     68  C         49.0110   -4.7180   -5.5440 C.2    98  HIS98       0.2620
     69  O         47.9650   -4.5030   -4.9300 O.2    98  HIS98      -0.2715
     70  CB        50.6200   -5.7600   -3.9780 C.3    98  HIS98       0.0785
     71  CG        51.9650   -5.7110   -3.3230 C.ar   98  HIS98       0.0821
     72  ND1       53.1430   -5.8790   -4.0320 N.ar   98  HIS98      -0.2267
     73  CD2       52.3240   -5.4930   -2.0340 C.ar   98  HIS98       0.1154
     74  CE1       54.1650   -5.7790   -3.1980 C.ar   98  HIS98       0.1986
     75  NE2       53.6970   -5.5450   -1.9800 N.ar   98  HIS98      -0.2212
     76  N         49.0320   -5.0820   -6.8140 N.am   99  PHE99      -0.1974
     77  CA        47.8060   -5.2830   -7.5240 C.3    99  PHE99       0.1639
     78  C         47.1900   -6.6250   -7.0900 C.2    99  PHE99       0.2290
     79  O         47.8760   -7.6350   -7.0580 O.2    99  PHE99      -0.2864
     80  CB        48.0690   -5.2140   -9.0280 C.3    99  PHE99       0.0560
     81  CG        46.8570   -5.4870   -9.8590 C.ar   99  PHE99      -0.0200
     82  CD1       46.1490   -4.4590  -10.4250 C.ar   99  PHE99      -0.0042
     83  CD2       46.4020   -6.8010  -10.0610 C.ar   99  PHE99      -0.0042
     84  CE1       44.9890   -4.7160  -11.1810 C.ar   99  PHE99      -0.0003
     85  CE2       45.2560   -7.0550  -10.8270 C.ar   99  PHE99      -0.0003
     86  CZ        44.5570   -6.0020  -11.3870 C.ar   99  PHE99      -0.0000
     87  N         44.3260   -3.6550   -5.3360 N.3   101  ARG101     -0.1245
     88  CA        44.1090   -2.9270   -4.0710 C.3   101  ARG101      0.1563
     89  C         43.3440   -3.8320   -3.1450 C.2   101  ARG101      0.2260
     90  O         42.4560   -4.5620   -3.5840 O.2   101  ARG101     -0.2867
     91  CB        43.2750   -1.6650   -4.2770 C.3   101  ARG101      0.0307
     92  CG        43.9230   -0.5400   -5.1150 C.3   101  ARG101      0.0489
     93  CD        42.8750    0.5430   -5.5070 C.3   101  ARG101      0.2205
     94  NE        43.4790    1.7410   -6.0980 N.pl3 101  ARG101     -0.0865
     95  CZ        42.8330    2.6740   -6.7910 C.cat 101  ARG101      0.5346
     96  NH1       41.5160    2.6190   -7.0050 N.pl3 101  ARG101      0.1354
     97  NH2       43.5130    3.6840   -7.2750 N.pl3 101  ARG101      0.1354
@<TRIPOS>BOND
     1    86    84   ar
     2    86    85   ar
     3    84    82   ar
     4    85    83   ar
     5    82    81   ar
     6    83    81   ar
     7    81    80    1
     8    12    11    1
     9    80    77    1
    10    11    10   ar
    11    11     9   ar
    12    10     8   ar
    13    77    78    1
    14    77    76    1
    15     9     7   ar
    16    97    95    1
    17    78    79    2
    18    96    95    1
    19    76    68   am
    20    95    94    2
    21     8     6   ar
    22    17    18    1
    23    17    14    1
    24    20    18   ar
    25    94    93    1
    26     7     6   ar
    27    62    61    2
    28    18    19   ar
    29    68    69    2
    30    68    67    1
    31     6     5    1
    32    93    92    1
    33    32    31    1
    34    14    13    1
    35    14    15    1
    36    87    88    1
    37    92    91    1
    38    58    57    2
    39    67    66    1
    40    67    70    1
    41    31    29   ar
    42    31    30   ar
    43    61    66   am
    44    61    60    1
    45    29    27   ar
    46    16    15    2
    47    91    88    1
    48    88    89    1
    49     5     2    1
    50    72    71   ar
    51    72    74   ar
    52    70    71    1
    53    30    28   ar
    54    57    56    1
    55    57    59   am
    56    60    59    1
    57    60    63    1
    58    90    89    2
    59    27    26   ar
    60     3     2    1
    61     3     4    2
    62    71    73   ar
    63    56    55    1
    64    74    75   ar
    65     2     1    1
    66    65    63    1
    67    28    26   ar
    68    26    25    1
    69    63    64    1
    70    54    53   ar
    71    54    52   ar
    72    53    51   ar
    73    73    75   ar
    74    25    22    1
    75    52    50   ar
    76    51    48   ar
    77    22    21    1
    78    22    23    1
    79    50    48   ar
    80    50    49   ar
    81    48    46   ar
    82    24    23    2
    83    40    38   am
    84    39    38    2
    85    38    37    1
    86    49    47   ar
    87    46    45    1
    88    46    47   ar
    89    45    42    1
    90    43    44    2
    91    43    42    1
    92    37    34    1
    93    42    41    1
    94    33    34    1
    95    34    35    1
    96    35    36    2
