@<TRIPOS>MOLECULE
tmp/3o6nA00.pdb
 105 97 0 0 0
SMALL
GASTEIGER

@<TRIPOS>ATOM
      1  N          5.1230   72.7420   19.4730 N.3   113  GLU113     -0.1245
      2  CA         4.7420   71.5190   18.7600 C.3   113  GLU113      0.1567
      3  C          3.8640   70.6030   19.6140 C.2   113  GLU113      0.2260
      4  O          4.0900   70.4500   20.8130 O.2   113  GLU113     -0.2867
      5  CB         5.9890   70.7470   18.3020 C.3   113  GLU113      0.0388
      6  CG         5.6830   69.3460   17.7520 C.3   113  GLU113      0.1160
      7  CD         6.9270   68.5810   17.3200 C.2   113  GLU113      0.3649
      8  OE1        8.0470   69.1140   17.4670 O.co2 113  GLU113     -0.2457
      9  OE2        6.7800   67.4400   16.8300 O.co2 113  GLU113     -0.2457
     10  N          1.6820   70.1020   14.5830 N.3   138  ASN138     -0.1240
     11  CA         0.7580   69.2810   15.3600 C.3   138  ASN138      0.1653
     12  C         -0.1120   70.0990   16.3130 C.2   138  ASN138      0.2266
     13  O         -0.1770   69.8350   17.5180 O.2   138  ASN138     -0.2867
     14  CB         1.4950   68.1660   16.1010 C.3   138  ASN138      0.1155
     15  CG         1.6040   66.8950   15.2710 C.2   138  ASN138      0.2627
     16  OD1        2.5770   66.6870   14.5470 O.2   138  ASN138     -0.2716
     17  ND2        0.5920   66.0470   15.3650 N.am  138  ASN138     -0.0877
     18  N          8.0630   75.9740   11.4110 N.3   159  GLN159     -0.1245
     19  CA         7.4710   74.6410   11.3090 C.3   159  GLN159      0.1566
     20  C          5.9970   74.7200   11.7040 C.2   159  GLN159      0.2260
     21  O          5.6700   75.0230   12.8550 O.2   159  GLN159     -0.2867
     22  CB         8.2370   73.6720   12.2230 C.3   159  GLN159      0.0367
     23  CG         7.5720   72.3180   12.4760 C.3   159  GLN159      0.0905
     24  CD         7.3570   71.5130   11.2090 C.2   159  GLN159      0.2608
     25  OE1        6.5140   71.8540   10.3860 O.2   159  GLN159     -0.2717
     26  NE2        8.1140   70.4310   11.0530 N.am  159  GLN159     -0.0878
     27  N          3.7280   72.2220   10.2530 N.3   161  SER161     -0.1217
     28  CA         3.1720   71.0050    9.6710 C.3   161  SER161      0.1889
     29  C          2.0860   70.4120   10.5620 C.2   161  SER161      0.2288
     30  O          2.0920   70.6030   11.7760 O.2   161  SER161     -0.2866
     31  CB         4.2690   69.9700    9.4200 C.3   161  SER161      0.2089
     32  OG         4.7230   69.4120   10.6390 O.3   161  SER161     -0.2183
     33  N         11.1490   76.3550    5.7970 N.3   179  ALA179     -0.1231
     34  CA         9.7270   76.4640    6.1090 C.3   179  ALA179      0.1694
     35  C          9.0040   75.1610    5.8310 C.2   179  ALA179      0.2592
     36  O          9.2400   74.5080    4.8110 O.2   179  ALA179     -0.2718
     37  CB         9.0900   77.5980    5.3290 C.3   179  ALA179      0.0304
     38  N          8.1120   74.7890    6.7400 N.am  180  ASN180     -0.1974
     39  CA         7.3880   73.5340    6.6170 C.3   180  ASN180      0.1688
     40  C          5.9040   73.7530    6.8830 C.2   180  ASN180      0.2292
     41  O          5.5120   74.0720    8.0070 O.2   180  ASN180     -0.2864
     42  CB         7.9720   72.5140    7.5980 C.3   180  ASN180      0.1181
     43  CG         7.7050   71.0820    7.1870 C.2   180  ASN180      0.2629
     44  OD1        6.6150   70.7530    6.7160 O.2   180  ASN180     -0.2716
     45  ND2        8.7140   70.2210    7.3620 N.am  180  ASN180     -0.0877
     46  N          3.6090   71.3850    5.6180 N.3   182  SER182     -0.1202
     47  CA         3.0440   70.1210    5.1520 C.3   182  SER182      0.2020
     48  C          1.8670   69.6890    6.0220 C.2   182  SER182      0.2618
     49  O          1.7480   70.1000    7.1800 O.2   182  SER182     -0.2717
     50  CB         4.1150   69.0210    5.0950 C.3   182  SER182      0.2103
     51  OG         4.6060   68.6970    6.3870 O.3   182  SER182     -0.2182
     52  N          0.9900   68.8720    5.4500 N.am  183  TYR183     -0.1975
     53  CA        -0.1810   68.3700    6.1600 C.3   183  TYR183      0.1639
     54  C         -1.0860   69.4880    6.6540 C.2   183  TYR183      0.2290
     55  O         -1.3170   69.6480    7.8590 O.2   183  TYR183     -0.2864
     56  CB         0.2280   67.4480    7.3070 C.3   183  TYR183      0.0560
     57  CG         0.7940   66.1390    6.8220 C.ar  183  TYR183     -0.0198
     58  CD1       -0.0420   65.1010    6.4320 C.ar  183  TYR183     -0.0009
     59  CD2        2.1650   65.9440    6.7430 C.ar  183  TYR183     -0.0009
     60  CE1        0.4760   63.8980    5.9840 C.ar  183  TYR183      0.0417
     61  CE2        2.6880   64.7510    6.2980 C.ar  183  TYR183      0.0417
     62  CZ         1.8410   63.7330    5.9200 C.ar  183  TYR183      0.1957
     63  OH         2.3690   62.5460    5.4800 O.3   183  TYR183     -0.2866
     64  N         14.8990   75.5060    1.9210 N.3   197  GLU197     -0.1231
     65  CA        14.1640   74.2500    1.9450 C.3   197  GLU197      0.1699
     66  C         12.7250   74.5380    2.3260 C.2   197  GLU197      0.2592
     67  O         12.4520   75.1710    3.3570 O.2   197  GLU197     -0.2718
     68  CB        14.8010   73.2590    2.9220 C.3   197  GLU197      0.0402
     69  CG        16.2450   72.9140    2.6030 C.3   197  GLU197      0.1161
     70  CD        16.7950   71.8220    3.5030 C.2   197  GLU197      0.3649
     71  OE1       16.0200   71.2820    4.3190 O.co2 197  GLU197     -0.2457
     72  OE2       17.9980   71.5040    3.3920 O.co2 197  GLU197     -0.2457
     73  N         11.8050   74.1020    1.4720 N.am  198  LEU198     -0.1966
     74  CA        10.3890   74.3450    1.6970 C.3   198  LEU198      0.1728
     75  C          9.5820   73.0790    1.4610 C.2   198  LEU198      0.2616
     76  O          9.6580   72.4650    0.3910 O.2   198  LEU198     -0.2715
     77  CB         9.8850   75.4600    0.7830 C.3   198  LEU198      0.0311
     78  CG         8.3740   75.6790    0.7500 C.3   198  LEU198      0.0022
     79  CD1        7.8570   76.0590    2.1270 C.3   198  LEU198      0.0001
     80  CD2        8.0240   76.7540   -0.2720 C.3   198  LEU198      0.0001
     81  N          8.8090   72.6930    2.4690 N.am  199  ASP199     -0.1971
     82  CA         7.9440   71.5290    2.3650 C.3   199  ASP199      0.1709
     83  C          6.4990   71.9980    2.4670 C.2   199  ASP199      0.2293
     84  O          6.0800   72.5160    3.5030 O.2   199  ASP199     -0.2864
     85  CB         8.2690   70.5230    3.4780 C.3   199  ASP199      0.1436
     86  CG         7.6170   69.1680    3.2580 C.2   199  ASP199      0.3671
     87  OD1        6.5140   69.1210    2.6810 O.co2 199  ASP199     -0.2456
     88  OD2        8.2070   68.1450    3.6680 O.co2 199  ASP199     -0.2456
     89  N         15.6400   72.4350   -1.9520 N.3   218  ILE218     -0.1245
     90  CA        14.7440   71.3080   -1.7300 C.3   218  ILE218      0.1561
     91  C         13.3010   71.7940   -1.6900 C.2   218  ILE218      0.2260
     92  O         12.9340   72.6140   -0.8430 O.2   218  ILE218     -0.2867
     93  CB        15.0640   70.5780   -0.4080 C.3   218  ILE218      0.0252
     94  CG1       16.5440   70.1910   -0.3480 C.3   218  ILE218      0.0019
     95  CG2       14.1890   69.3460   -0.2610 C.3   218  ILE218      0.0019
     96  CD1       16.9550   69.1700   -1.3840 C.3   218  ILE218      0.0001
     97  N          9.4430   70.2810   -1.5980 N.3   220  LYS220     -0.1245
     98  CA         8.5420   69.1430   -1.4620 C.3   220  LYS220      0.1561
     99  C          7.0960   69.5720   -1.7010 C.2   220  LYS220      0.2260
    100  O          6.5190   70.3090   -0.9000 O.2   220  LYS220     -0.2867
    101  CB         8.6780   68.5170   -0.0700 C.3   220  LYS220      0.0271
    102  CG        10.1040   68.1400    0.3170 C.3   220  LYS220      0.0035
    103  CD        10.6780   67.0890   -0.6240 C.3   220  LYS220      0.0206
    104  CE        12.1090   66.7260   -0.2530 C.3   220  LYS220      0.1093
    105  NZ        12.2010   65.5640    0.6810 N.3   220  LYS220     -0.1314
@<TRIPOS>BOND
     1    89    90    1
     2    90    91    1
     3    90    93    1
     4    99    98    1
     5    99   100    2
     6    91    92    2
     7    97    98    1
     8    98   101    1
     9    96    94    1
    10   103   104    1
    11   103   102    1
    12    93    94    1
    13    93    95    1
    14    80    78    1
    15   104   105    1
    16   101   102    1
    17    76    75    2
    18    78    77    1
    19    78    79    1
    20    77    74    1
    21    75    74    1
    22    75    81   am
    23    73    74    1
    24    73    66   am
    25    64    65    1
    26    65    66    1
    27    65    68    1
    28    66    67    2
    29    82    83    1
    30    82    81    1
    31    82    85    1
    32    83    84    2
    33    69    68    1
    34    69    70    1
    35    87    86   ar
    36    86    85    1
    37    86    88   ar
    38    72    70   ar
    39    70    71   ar
    40    36    35    2
    41    50    47    1
    42    50    51    1
    43    47    46    1
    44    47    48    1
    45    37    34    1
    46    52    48   am
    47    52    53    1
    48    63    62    1
    49    33    34    1
    50    35    34    1
    51    35    38   am
    52    62    60   ar
    53    62    61   ar
    54    60    58   ar
    55    48    49    2
    56    53    54    1
    57    53    56    1
    58    61    59   ar
    59    58    57   ar
    60    39    38    1
    61    39    40    1
    62    39    42    1
    63    54    55    2
    64    44    43    2
    65    59    57   ar
    66    57    56    1
    67    40    41    2
    68    43    45   am
    69    43    42    1
    70    31    28    1
    71    31    32    1
    72    28    27    1
    73    28    29    1
    74    25    24    2
    75    29    30    2
    76    26    24   am
    77    24    23    1
    78    19    18    1
    79    19    20    1
    80    19    22    1
    81    20    21    2
    82    22    23    1
    83    16    15    2
    84    10    11    1
    85    15    17   am
    86    15    14    1
    87    11    14    1
    88    11    12    1
    89    12    13    2
    90     9     7   ar
    91     7     8   ar
    92     7     6    1
    93     6     5    1
    94     5     2    1
    95     2     1    1
    96     2     3    1
    97     3     4    2
