@<TRIPOS>MOLECULE
tmp/3o6oB01.pdb
 70 63 0 0 0
SMALL
GASTEIGER

@<TRIPOS>ATOM
      1  N         14.2670   17.9270   25.1010 N.3    36  ASN36      -0.1240
      2  CA        15.2580   18.5660   24.2240 C.3    36  ASN36       0.1653
      3  C         16.4770   17.6910   24.0540 C.2    36  ASN36       0.2266
      4  O         16.9850   17.5800   22.9430 O.2    36  ASN36      -0.2867
      5  CB        15.7010   19.9230   24.8050 C.3    36  ASN36       0.1155
      6  CG        14.7090   21.0190   24.5490 C.2    36  ASN36       0.2627
      7  OD1       13.6980   20.8080   23.8690 O.2    36  ASN36      -0.2716
      8  ND2       14.9680   22.2100   25.0880 N.am   36  ASN36      -0.0877
      9  N         15.7290   14.8850   21.7420 N.3    39  ASP39      -0.1225
     10  CA        15.7090   15.3150   20.3490 C.3    39  ASP39       0.1805
     11  C         17.1190   15.4710   19.8330 C.2    39  ASP39       0.2597
     12  O         17.3900   15.1270   18.6800 O.2    39  ASP39      -0.2718
     13  CB        14.9290   16.6180   20.1790 C.3    39  ASP39       0.1424
     14  CG        13.4680   16.4880   20.5330 C.2    39  ASP39       0.3668
     15  OD1       13.0240   15.3540   20.8250 O.co2  39  ASP39      -0.2456
     16  OD2       12.7660   17.5070   20.5000 O.co2  39  ASP39      -0.2456
     17  N         18.0280   15.9610   20.6940 N.am   40  ALA40      -0.1979
     18  CA        19.4410   16.1310   20.3120 C.3    40  ALA40       0.1597
     19  C         20.0910   14.7910   20.0100 C.2    40  ALA40       0.2287
     20  O         20.8670   14.6720   19.0580 O.2    40  ALA40      -0.2864
     21  CB        20.2010   16.8580   21.4140 C.3    40  ALA40       0.0319
     22  N         18.6850   13.3600   16.6590 N.3    43  LYS43      -0.1245
     23  CA        19.3360   14.0310   15.5350 C.3    43  LYS43       0.1561
     24  C         20.7150   13.4250   15.2080 C.2    43  LYS43       0.2260
     25  O         20.9540   13.0900   14.0530 O.2    43  LYS43      -0.2867
     26  CB        19.4370   15.5730   15.7290 C.3    43  LYS43       0.0271
     27  CG        19.6540   16.2840   14.4070 C.3    43  LYS43       0.0035
     28  CD        19.5130   17.7960   14.4830 C.3    43  LYS43       0.0206
     29  CE        19.6810   18.4440   13.1250 C.3    43  LYS43       0.1093
     30  NZ        21.0570   18.2960   12.5930 N.3    43  LYS43      -0.1314
     31  N         23.5520   15.9330   19.5050 N.3    81  ILE81      -0.1231
     32  CA        24.1260   16.6880   18.3980 C.3    81  ILE81       0.1692
     33  C         24.9490   17.9360   18.8610 C.2    81  ILE81       0.2593
     34  O         25.9280   18.2680   18.1980 O.2    81  ILE81      -0.2718
     35  CB        23.0320   17.0600   17.3550 C.3    81  ILE81       0.0266
     36  CG1       23.6610   17.5320   16.0220 C.3    81  ILE81       0.0019
     37  CG2       22.0320   18.0940   17.8830 C.3    81  ILE81       0.0020
     38  CD1       23.7700   16.5510   14.9460 C.3    81  ILE81       0.0001
     39  N         24.5330   18.6110   19.9440 N.am   82  GLY82      -0.1942
     40  CA        25.2080   19.8160   20.4200 C.3    82  GLY82       0.2014
     41  C         24.8820   21.0400   19.5750 C.2    82  GLY82       0.2638
     42  O         24.2130   20.9300   18.5420 O.2    82  GLY82      -0.2714
     43  N         25.3400   22.2260   20.0110 N.am   83  MET83      -0.1976
     44  CA        25.0810   23.4880   19.3310 C.3    83  MET83       0.1605
     45  C         26.3500   24.1910   18.8810 C.2    83  MET83       0.2287
     46  O         27.3800   24.1240   19.5560 O.2    83  MET83      -0.2864
     47  CB        24.2520   24.4170   20.2340 C.3    83  MET83       0.0413
     48  CG        22.8460   23.8670   20.5200 C.3    83  MET83       0.0598
     49  SD        22.1130   24.6220   21.9800 S.3    83  MET83      -0.1393
     50  CE        22.8960   23.6980   23.1840 C.3    83  MET83       0.0692
     51  N         19.0810   29.6360   17.0410 N.3    92  LEU92      -0.1245
     52  CA        18.0560   29.1830   17.9970 C.3    92  LEU92       0.1561
     53  C         17.0560   30.2740   18.3500 C.2    92  LEU92       0.2260
     54  O         15.8700   29.9850   18.4860 O.2    92  LEU92      -0.2867
     55  CB        18.6590   28.5750   19.2710 C.3    92  LEU92       0.0270
     56  CG        19.4240   27.2690   19.0950 C.3    92  LEU92       0.0019
     57  CD1       20.0600   26.8710   20.3730 C.3    92  LEU92       0.0001
     58  CD2       18.5310   26.1470   18.5760 C.3    92  LEU92       0.0001
     59  N         14.4220   30.7720   15.3830 N.3    95  ILE95      -0.1245
     60  CA        13.3760   29.7430   15.3830 C.3    95  ILE95       0.1561
     61  C         12.4620   29.9080   16.6170 C.2    95  ILE95       0.2260
     62  O         11.2580   29.6820   16.5010 O.2    95  ILE95      -0.2867
     63  CB        13.9930   28.3220   15.2440 C.3    95  ILE95       0.0252
     64  CG1       14.6820   28.1990   13.8740 C.3    95  ILE95       0.0019
     65  CG2       12.9440   27.2040   15.4210 C.3    95  ILE95       0.0019
     66  CD1       15.9480   27.5280   13.9250 C.3    95  ILE95       0.0001
     67  N          7.9650   24.6230   21.0790 N.3   120  GLY120     -0.1225
     68  CA         9.4010   24.4710   20.8510 C.3   120  GLY120      0.1811
     69  C         10.2900   25.4710   21.5650 C.2   120  GLY120      0.2280
     70  O         11.4190   25.7240   21.1230 O.2   120  GLY120     -0.2866
@<TRIPOS>BOND
     1    30    29    1
     2    29    28    1
     3    64    66    1
     4    64    63    1
     5    25    24    2
     6    27    28    1
     7    27    26    1
     8    38    36    1
     9    24    23    1
    10    63    60    1
    11    63    65    1
    12    59    60    1
    13    60    61    1
    14    23    26    1
    15    23    22    1
    16    36    35    1
    17    62    61    2
    18    51    52    1
    19    35    37    1
    20    35    32    1
    21    52    53    1
    22    52    55    1
    23    34    33    2
    24    53    54    2
    25    32    33    1
    26    32    31    1
    27    42    41    2
    28    58    56    1
    29    12    11    2
    30    33    39   am
    31    45    44    1
    32    45    46    2
    33    20    19    2
    34    56    55    1
    35    56    57    1
    36    44    43    1
    37    44    47    1
    38    41    43   am
    39    41    40    1
    40    11    10    1
    41    11    17   am
    42    39    40    1
    43    19    18    1
    44    13    10    1
    45    13    14    1
    46    47    48    1
    47    18    17    1
    48    18    21    1
    49    10     9    1
    50    16    14   ar
    51    48    49    1
    52    14    15   ar
    53    68    67    1
    54    68    69    1
    55    70    69    2
    56    49    50    1
    57     4     3    2
    58     7     6    2
    59     3     2    1
    60     2     5    1
    61     2     1    1
    62     6     5    1
    63     6     8   am
