@<TRIPOS>MOLECULE
tmp/3o6oB00.pdb
 150 141 0 0 0
SMALL
GASTEIGER

@<TRIPOS>ATOM
      1  N         19.0730   39.9170   23.5740 N.3     7  PHE7       -0.1241
      2  CA        18.0570   38.9790   23.0970 C.3     7  PHE7        0.1605
      3  C         17.1260   39.7880   22.1920 C.2     7  PHE7        0.2264
      4  O         17.0230   41.0070   22.3420 O.2     7  PHE7       -0.2867
      5  CB        17.2240   38.4150   24.2780 C.3     7  PHE7        0.0534
      6  CG        17.8680   37.3130   25.0890 C.ar    7  PHE7       -0.0203
      7  CD1       18.0650   36.0450   24.5430 C.ar    7  PHE7       -0.0042
      8  CD2       18.3110   37.5510   26.3850 C.ar    7  PHE7       -0.0042
      9  CE1       18.6920   35.0360   25.2810 C.ar    7  PHE7       -0.0003
     10  CE2       18.9410   36.5400   27.1240 C.ar    7  PHE7       -0.0003
     11  CZ        19.1300   35.2910   26.5650 C.ar    7  PHE7       -0.0000
     12  N         13.6850   19.9230   29.4000 N.3    33  LEU33      -0.1245
     13  CA        15.1240   19.7940   29.1440 C.3    33  LEU33       0.1561
     14  C         15.4880   18.3620   28.7120 C.2    33  LEU33       0.2260
     15  O         16.3470   18.1990   27.8430 O.2    33  LEU33      -0.2867
     16  CB        15.9310   20.2240   30.3890 C.3    33  LEU33       0.0270
     17  CG        15.7270   21.6770   30.8920 C.3    33  LEU33       0.0019
     18  CD1       16.5030   21.9280   32.1500 C.3    33  LEU33       0.0001
     19  CD2       16.0940   22.7170   29.8020 C.3    33  LEU33       0.0001
     20  N         14.2670   17.9270   25.1010 N.3    36  ASN36      -0.1225
     21  CA        15.2580   18.5660   24.2240 C.3    36  ASN36       0.1785
     22  C         16.4770   17.6910   24.0540 C.2    36  ASN36       0.2597
     23  O         16.9850   17.5800   22.9430 O.2    36  ASN36      -0.2718
     24  CB        15.7010   19.9230   24.8050 C.3    36  ASN36       0.1169
     25  CG        14.7090   21.0190   24.5490 C.2    36  ASN36       0.2627
     26  OD1       13.6980   20.8080   23.8690 O.2    36  ASN36      -0.2716
     27  ND2       14.9680   22.2100   25.0880 N.am   36  ASN36      -0.0877
     28  N         16.9700   17.1020   25.1610 N.am   37  SER37      -0.1952
     29  CA        18.1240   16.1910   25.1530 C.3    37  SER37       0.1924
     30  C         17.8210   14.9730   24.2880 C.2    37  SER37       0.2314
     31  O         18.7070   14.5180   23.5730 O.2    37  SER37      -0.2863
     32  CB        18.4720   15.7300   26.5660 C.3    37  SER37       0.2116
     33  OG        19.1960   16.7370   27.2500 O.3    37  SER37      -0.2180
     34  N         18.0280   15.9610   20.6940 N.3    40  ALA40      -0.1245
     35  CA        19.4410   16.1310   20.3120 C.3    40  ALA40       0.1562
     36  C         20.0910   14.7910   20.0100 C.2    40  ALA40       0.2260
     37  O         20.8670   14.6720   19.0580 O.2    40  ALA40      -0.2867
     38  CB        20.2010   16.8580   21.4140 C.3    40  ALA40       0.0290
     39  N         23.7460   15.7830   27.9950 N.3    78  ASP78      -0.1239
     40  CA        23.4720   14.7700   26.9820 C.3    78  ASP78       0.1674
     41  C         24.6490   14.6880   26.0240 C.2    78  ASP78       0.2266
     42  O         25.4180   15.6440   25.8930 O.2    78  ASP78      -0.2867
     43  CB        22.1310   15.0520   26.2360 C.3    78  ASP78       0.1410
     44  CG        22.1250   16.3250   25.3820 C.2    78  ASP78       0.3668
     45  OD1       22.7980   16.3400   24.3380 O.co2  78  ASP78      -0.2456
     46  OD2       21.4680   17.3140   25.7860 O.co2  78  ASP78      -0.2456
     47  N         23.5520   15.9330   19.5050 N.3    81  ILE81      -0.1231
     48  CA        24.1260   16.6880   18.3980 C.3    81  ILE81       0.1692
     49  C         24.9490   17.9360   18.8610 C.2    81  ILE81       0.2593
     50  O         25.9280   18.2680   18.1980 O.2    81  ILE81      -0.2718
     51  CB        23.0320   17.0600   17.3550 C.3    81  ILE81       0.0266
     52  CG1       23.6610   17.5320   16.0220 C.3    81  ILE81       0.0019
     53  CG2       22.0320   18.0940   17.8830 C.3    81  ILE81       0.0020
     54  CD1       23.7700   16.5510   14.9460 C.3    81  ILE81       0.0001
     55  N         24.5330   18.6110   19.9440 N.am   82  GLY82      -0.1942
     56  CA        25.2080   19.8160   20.4200 C.3    82  GLY82       0.2014
     57  C         24.8820   21.0400   19.5750 C.2    82  GLY82       0.2638
     58  O         24.2130   20.9300   18.5420 O.2    82  GLY82      -0.2714
     59  N         25.3400   22.2260   20.0110 N.am   83  MET83      -0.1976
     60  CA        25.0810   23.4880   19.3310 C.3    83  MET83       0.1605
     61  C         26.3500   24.1910   18.8810 C.2    83  MET83       0.2287
     62  O         27.3800   24.1240   19.5560 O.2    83  MET83      -0.2864
     63  CB        24.2520   24.4170   20.2340 C.3    83  MET83       0.0413
     64  CG        22.8460   23.8670   20.5200 C.3    83  MET83       0.0598
     65  SD        22.1130   24.6220   21.9800 S.3    83  MET83      -0.1393
     66  CE        22.8960   23.6980   23.1840 C.3    83  MET83       0.0692
     67  N         23.8230   29.2350   19.1120 N.3    88  LEU88      -0.1245
     68  CA        23.7600   29.9780   20.3690 C.3    88  LEU88       0.1561
     69  C         23.5080   31.4800   20.1890 C.2    88  LEU88       0.2260
     70  O         22.6880   32.0670   20.9010 O.2    88  LEU88      -0.2867
     71  CB        25.0830   29.7530   21.1320 C.3    88  LEU88       0.0270
     72  CG        25.3880   28.3170   21.5570 C.3    88  LEU88       0.0019
     73  CD1       26.7950   28.2120   22.0980 C.3    88  LEU88       0.0001
     74  CD2       24.4210   27.8330   22.6030 C.3    88  LEU88       0.0001
     75  N         19.0810   29.6360   17.0410 N.3    92  LEU92      -0.1231
     76  CA        18.0560   29.1830   17.9970 C.3    92  LEU92       0.1693
     77  C         17.0560   30.2740   18.3500 C.2    92  LEU92       0.2592
     78  O         15.8700   29.9850   18.4860 O.2    92  LEU92      -0.2718
     79  CB        18.6590   28.5750   19.2710 C.3    92  LEU92       0.0284
     80  CG        19.4240   27.2690   19.0950 C.3    92  LEU92       0.0019
     81  CD1       20.0600   26.8710   20.3730 C.3    92  LEU92       0.0001
     82  CD2       18.5310   26.1470   18.5760 C.3    92  LEU92       0.0001
     83  N         17.5390   31.5040   18.4430 N.am   93  GLY93      -0.1957
     84  CA        16.7190   32.6790   18.7240 C.3    93  GLY93       0.1869
     85  C         15.7310   32.9750   17.6170 C.2    93  GLY93       0.2309
     86  O         14.5950   33.3570   17.8930 O.2    93  GLY93      -0.2863
     87  N         13.0270   30.3110   17.7730 N.3    96  ALA96      -0.1245
     88  CA        12.2750   30.5450   19.0090 C.3    96  ALA96       0.1562
     89  C         11.3360   31.7690   18.9240 C.2    96  ALA96       0.2260
     90  O         10.3320   31.7830   19.6370 O.2    96  ALA96      -0.2867
     91  CB        13.2230   30.7090   20.1850 C.3    96  ALA96       0.0290
     92  N         13.0820   25.0930   26.4180 N.3   123  PHE123     -0.1227
     93  CA        14.3770   25.3770   27.0700 C.3   123  PHE123      0.1736
     94  C         14.2430   26.4940   28.1540 C.2   123  PHE123      0.2595
     95  O         14.8020   26.3830   29.2500 O.2   123  PHE123     -0.2718
     96  CB        15.4480   25.7850   26.0320 C.3   123  PHE123      0.0547
     97  CG        16.6080   26.5350   26.6510 C.ar  123  PHE123     -0.0202
     98  CD1       17.5440   25.8740   27.4440 C.ar  123  PHE123     -0.0042
     99  CD2       16.7130   27.9210   26.5200 C.ar  123  PHE123     -0.0042
    100  CE1       18.5760   26.5840   28.0800 C.ar  123  PHE123     -0.0003
    101  CE2       17.7570   28.6270   27.1430 C.ar  123  PHE123     -0.0003
    102  CZ        18.6710   27.9600   27.9230 C.ar  123  PHE123     -0.0000
    103  N         13.5120   27.5730   27.8100 N.am  124  TYR124     -0.1976
    104  CA        13.3580   28.7560   28.6540 C.3   124  TYR124      0.1639
    105  C         12.5900   28.4790   29.9450 C.2   124  TYR124      0.2290
    106  O         12.7200   29.2630   30.8740 O.2   124  TYR124     -0.2864
    107  CB        12.7530   29.9290   27.8570 C.3   124  TYR124      0.0560
    108  CG        13.5810   30.2890   26.6410 C.ar  124  TYR124     -0.0198
    109  CD1       14.6900   31.1180   26.7520 C.ar  124  TYR124     -0.0009
    110  CD2       13.2800   29.7600   25.3850 C.ar  124  TYR124     -0.0009
    111  CE1       15.4840   31.4150   25.6460 C.ar  124  TYR124      0.0417
    112  CE2       14.0730   30.0420   24.2720 C.ar  124  TYR124      0.0417
    113  CZ        15.1580   30.8980   24.4030 C.ar  124  TYR124      0.1957
    114  OH        15.9450   31.2130   23.3150 O.3   124  TYR124     -0.2866
    115  N         24.9940   27.1630   29.5080 N.3   135  VAL135     -0.1245
    116  CA        24.9400   26.0740   28.5360 C.3   135  VAL135      0.1561
    117  C         26.3080   25.9290   27.8590 C.2   135  VAL135      0.2260
    118  O         26.7130   26.8160   27.1130 O.2   135  VAL135     -0.2867
    119  CB        23.7890   26.3080   27.5050 C.3   135  VAL135      0.0252
    120  CG1       23.7910   25.2420   26.4100 C.3   135  VAL135      0.0019
    121  CG2       22.4240   26.3770   28.1960 C.3   135  VAL135      0.0019
    122  N         27.4310   29.5320   26.7170 N.3   147  TRP147     -0.1241
    123  CA        26.3740   30.5160   26.6100 C.3   147  TRP147      0.1605
    124  C         25.9020   30.6770   28.0560 C.2   147  TRP147      0.2264
    125  O         25.9240   29.7060   28.8170 O.2   147  TRP147     -0.2867
    126  CB        25.2670   29.9830   25.6860 C.3   147  TRP147      0.0550
    127  CG        23.9910   30.8020   25.5790 C.ar  147  TRP147      0.0003
    128  CD1       23.5660   31.5010   24.4920 C.ar  147  TRP147      0.0946
    129  CD2       22.8990   30.8300   26.5220 C.ar  147  TRP147      0.0152
    130  NE1       22.3070   32.0250   24.7230 N.ar  147  TRP147     -0.2442
    131  CE2       21.8680   31.6100   25.9480 C.ar  147  TRP147      0.0810
    132  CE3       22.6920   30.2680   27.8000 C.ar  147  TRP147      0.0012
    133  CZ2       20.6640   31.8770   26.6190 C.ar  147  TRP147      0.0191
    134  CZ3       21.4970   30.5260   28.4580 C.ar  147  TRP147      0.0001
    135  CH2       20.4890   31.3000   27.8610 C.ar  147  TRP147      0.0015
    136  N         25.7190   18.5880   25.0120 N.3   167  THR167     -0.1218
    137  CA        25.3520   19.7930   25.7300 C.3   167  THR167      0.1862
    138  C         25.2230   19.5260   27.2130 C.2   167  THR167      0.2287
    139  O         24.7510   18.4690   27.6320 O.2   167  THR167     -0.2866
    140  CB        24.0320   20.3520   25.1360 C.3   167  THR167      0.1770
    141  OG1       24.1860   20.5670   23.7240 O.3   167  THR167     -0.2211
    142  CG2       23.5620   21.6340   25.8170 C.3   167  THR167      0.0375
    143  N         23.6360   21.6470   30.4080 N.3   169  ILE169     -0.1245
    144  CA        22.8080   22.7810   30.8540 C.3   169  ILE169      0.1561
    145  C         22.8250   22.8560   32.3660 C.2   169  ILE169      0.2260
    146  O         22.2580   22.0050   33.0370 O.2   169  ILE169     -0.2867
    147  CB        21.3780   22.7310   30.2750 C.3   169  ILE169      0.0252
    148  CG1       21.4380   22.7080   28.7230 C.3   169  ILE169      0.0019
    149  CG2       20.5490   23.9240   30.8160 C.3   169  ILE169      0.0019
    150  CD1       20.1950   22.6090   28.0430 C.3   169  ILE169      0.0001
@<TRIPOS>BOND
     1    54    52    1
     2    52    51    1
     3    75    76    1
     4    51    53    1
     5    51    48    1
     6    85    86    2
     7    85    84    1
     8    87    88    1
     9    76    77    1
    10    76    79    1
    11    50    49    2
    12    77    83   am
    13    77    78    2
    14    48    49    1
    15    48    47    1
    16    83    84    1
    17    58    57    2
    18    82    80    1
    19    49    55   am
    20    61    60    1
    21    61    62    2
    22    89    88    1
    23    89    90    2
    24    88    91    1
    25    37    36    2
    26    80    79    1
    27    80    81    1
    28    67    68    1
    29    60    59    1
    30    60    63    1
    31    57    59   am
    32    57    56    1
    33    55    56    1
    34    36    35    1
    35    69    68    1
    36    69    70    2
    37    63    64    1
    38    35    34    1
    39    35    38    1
    40    68    71    1
    41    64    65    1
    42    71    72    1
    43    72    73    1
    44    72    74    1
    45    65    66    1
    46     3     4    2
    47     3     2    1
    48    23    22    2
    49     2     1    1
    50     2     5    1
    51   114   113    1
    52    31    30    2
    53   141   140    1
    54    26    25    2
    55    22    21    1
    56    22    28   am
    57    21    24    1
    58    21    20    1
    59   112   113   ar
    60   112   110   ar
    61     5     6    1
    62    30    29    1
    63    45    44   ar
    64   113   111   ar
    65   128   130   ar
    66   128   127   ar
    67     7     6   ar
    68     7     9   ar
    69    25    24    1
    70    25    27   am
    71   130   131   ar
    72   136   137    1
    73     6     8   ar
    74   140   137    1
    75   140   142    1
    76    29    28    1
    77    29    32    1
    78     9    11   ar
    79    44    46   ar
    80    44    43    1
    81   110   108   ar
    82   127   126    1
    83   127   129   ar
    84   111   109   ar
    85   126   123    1
    86   137   138    1
    87    42    41    2
    88   131   129   ar
    89   131   133   ar
    90    41    40    1
    91    96    97    1
    92    96    93    1
    93    43    40    1
    94     8    10   ar
    95   120   119    1
    96    92    93    1
    97    99    97   ar
    98    99   101   ar
    99   129   132   ar
   100    11    10   ar
   101    32    33    1
   102   123   122    1
   103   123   124    1
   104   133   135   ar
   105   108   109   ar
   106   108   107    1
   107    97    98   ar
   108    40    39    1
   109    93    94    1
   110   118   117    2
   111   101   102   ar
   112   138   139    2
   113    98   100   ar
   114   119   121    1
   115   119   116    1
   116   132   134   ar
   117   103    94   am
   118   103   104    1
   119    15    14    2
   120   107   104    1
   121   117   116    1
   122   135   134   ar
   123   102   100   ar
   124   150   148    1
   125   124   125    2
   126    94    95    2
   127   116   115    1
   128   104   105    1
   129    14    13    1
   130   148   147    1
   131    13    12    1
   132    13    16    1
   133    19    17    1
   134   105   106    2
   135   147   149    1
   136   147   144    1
   137    16    17    1
   138   143   144    1
   139   144   145    1
   140    17    18    1
   141   145   146    2
