@<TRIPOS>MOLECULE
tmp/3o6rB02.pdb
 115 110 0 0 0
SMALL
GASTEIGER

@<TRIPOS>ATOM
      1  N         32.9610   50.6500  269.7250 N.3    48  LEU48      -0.1245
      2  CA        32.6000   51.3750  268.4960 C.3    48  LEU48       0.1561
      3  C         32.5660   52.8550  268.7570 C.2    48  LEU48       0.2260
      4  O         33.1810   53.6430  267.9770 O.2    48  LEU48      -0.2867
      5  CB        31.2610   50.9100  267.9400 C.3    48  LEU48       0.0270
      6  CG        30.6490   51.6670  266.7490 C.3    48  LEU48       0.0019
      7  CD1       31.2990   51.2810  265.4020 C.3    48  LEU48       0.0001
      8  CD2       29.1700   51.3240  266.7460 C.3    48  LEU48       0.0001
      9  N         35.9070   54.3610  269.6960 N.3    51  ASP51      -0.1239
     10  CA        36.7910   54.2910  268.5390 C.3    51  ASP51       0.1674
     11  C         36.4490   55.3310  267.5230 C.2    51  ASP51       0.2266
     12  O         37.3370   55.8590  266.8390 O.2    51  ASP51      -0.2867
     13  CB        36.7710   52.9280  267.8960 C.3    51  ASP51       0.1410
     14  CG        37.6750   51.9900  268.5870 C.2    51  ASP51       0.3668
     15  OD1       38.2080   52.3830  269.6720 O.co2  51  ASP51      -0.2456
     16  OD2       37.8580   50.8840  268.0480 O.co2  51  ASP51      -0.2456
     17  N         43.3200   53.5570  262.6610 N.3    73  ILE73      -0.1245
     18  CA        42.7120   52.9320  263.8180 C.3    73  ILE73       0.1561
     19  C         42.3990   51.4540  263.5760 C.2    73  ILE73       0.2260
     20  O         42.0460   51.0570  262.4640 O.2    73  ILE73      -0.2867
     21  CB        41.4700   53.7320  264.2670 C.3    73  ILE73       0.0252
     22  CG1       40.1870   53.1800  263.6610 C.3    73  ILE73       0.0019
     23  CG2       41.6470   55.2310  263.9760 C.3    73  ILE73       0.0019
     24  CD1       38.9390   53.7380  264.2800 C.3    73  ILE73       0.0001
     25  N         39.9990   49.9230  264.7190 N.3    75  GLY75      -0.1210
     26  CA        38.5700   49.7040  264.7840 C.3    75  GLY75       0.1940
     27  C         38.2980   48.7710  265.9320 C.2    75  GLY75       0.2454
     28  O         39.1710   48.5380  266.7700 O.2    75  GLY75      -0.2732
     29  N         37.0700   48.2640  266.0060 N.am   76  PRO76      -0.2717
     30  CA        36.6750   47.2600  266.9840 C.3    76  PRO76       0.1535
     31  C         36.4160   45.9350  266.2940 C.2    76  PRO76       0.2598
     32  O         35.5740   45.1540  266.7410 O.2    76  PRO76      -0.2715
     33  CB        35.3570   47.8170  267.5150 C.3    76  PRO76       0.0310
     34  CG        34.7840   48.5940  266.3480 C.3    76  PRO76       0.0237
     35  CD        35.8970   48.8550  265.3460 C.3    76  PRO76       0.0939
     36  N         37.1230   45.6920  265.2030 N.am   77  PHE77      -0.1974
     37  CA        36.8190   44.5240  264.4010 C.3    77  PHE77       0.1639
     38  C         38.0230   43.6410  264.0370 C.2    77  PHE77       0.2290
     39  O         37.9130   42.8230  263.1340 O.2    77  PHE77      -0.2864
     40  CB        36.0620   44.9470  263.1330 C.3    77  PHE77       0.0560
     41  CG        34.6380   45.4180  263.3750 C.ar   77  PHE77      -0.0200
     42  CD1       33.7680   44.6980  264.1980 C.ar   77  PHE77      -0.0042
     43  CD2       34.1600   46.5700  262.7440 C.ar   77  PHE77      -0.0042
     44  CE1       32.4570   45.1190  264.4080 C.ar   77  PHE77      -0.0003
     45  CE2       32.8390   47.0050  262.9400 C.ar   77  PHE77      -0.0003
     46  CZ        31.9870   46.2720  263.7740 C.ar   77  PHE77      -0.0000
     47  N         31.5150   42.4340  258.5460 N.3   133  TYR133     -0.1241
     48  CA        32.7970   41.7940  258.9730 C.3   133  TYR133      0.1605
     49  C         32.5510   40.3650  259.4770 C.2   133  TYR133      0.2264
     50  O         31.5930   40.1050  260.2300 O.2   133  TYR133     -0.2867
     51  CB        33.5190   42.5760  260.0860 C.3   133  TYR133      0.0534
     52  CG        34.2580   43.8490  259.6710 C.ar  133  TYR133     -0.0201
     53  CD1       35.6250   43.8430  259.3540 C.ar  133  TYR133     -0.0009
     54  CD2       33.6020   45.0720  259.6370 C.ar  133  TYR133     -0.0009
     55  CE1       36.3000   45.0370  258.9850 C.ar  133  TYR133      0.0417
     56  CE2       34.2800   46.2620  259.2800 C.ar  133  TYR133      0.0417
     57  CZ        35.6080   46.2340  258.9540 C.ar  133  TYR133      0.1957
     58  OH        36.1970   47.4130  258.6140 O.3   133  TYR133     -0.2866
     59  N         31.0070   51.4480  254.5030 N.3   168  TYR168     -0.1241
     60  CA        30.2780   50.7470  255.5780 C.3   168  TYR168      0.1605
     61  C         29.4890   51.7530  256.4490 C.2   168  TYR168      0.2264
     62  O         29.9810   52.8310  256.7540 O.2   168  TYR168     -0.2867
     63  CB        31.2510   49.9400  256.4970 C.3   168  TYR168      0.0534
     64  CG        30.5910   49.4100  257.7620 C.ar  168  TYR168     -0.0201
     65  CD1       29.8230   48.2420  257.7300 C.ar  168  TYR168     -0.0009
     66  CD2       30.7180   50.0880  258.9740 C.ar  168  TYR168     -0.0009
     67  CE1       29.2880   47.7050  258.8930 C.ar  168  TYR168      0.0417
     68  CE2       30.1250   49.6080  260.1120 C.ar  168  TYR168      0.0417
     69  CZ        29.4660   48.3730  260.0730 C.ar  168  TYR168      0.1957
     70  OH        28.8550   47.8650  261.2160 O.3   168  TYR168     -0.2866
     71  N         27.5730   52.4810  260.0400 N.3   170  ILE170     -0.1245
     72  CA        27.4430   52.0720  261.4430 C.3   170  ILE170      0.1561
     73  C         25.9660   52.0010  261.8600 C.2   170  ILE170      0.2260
     74  O         25.2420   52.9910  261.6630 O.2   170  ILE170     -0.2867
     75  CB        28.1890   53.0580  262.3900 C.3   170  ILE170      0.0252
     76  CG1       29.6250   53.2930  261.9160 C.3   170  ILE170      0.0019
     77  CG2       28.2330   52.5020  263.7930 C.3   170  ILE170      0.0019
     78  CD1       30.1170   54.7330  262.0870 C.3   170  ILE170      0.0001
     79  N         31.1330   55.2110  256.9760 N.3   190  ARG190     -0.1245
     80  CA        32.6000   55.1960  256.9210 C.3   190  ARG190      0.1563
     81  C         32.9910   54.9070  255.4880 C.2   190  ARG190      0.2260
     82  O         32.2900   54.1880  254.7860 O.2   190  ARG190     -0.2867
     83  CB        33.1650   54.0830  257.8240 C.3   190  ARG190      0.0307
     84  CG        33.3500   54.4560  259.3230 C.3   190  ARG190      0.0489
     85  CD        34.7000   53.9670  259.8690 C.3   190  ARG190      0.2205
     86  NE        35.8120   54.4430  259.0530 N.pl3 190  ARG190     -0.0865
     87  CZ        37.0210   53.9040  259.0710 C.cat 190  ARG190      0.5346
     88  NH1       37.2680   52.8950  259.8810 N.pl3 190  ARG190      0.1354
     89  NH2       37.9830   54.3720  258.2880 N.pl3 190  ARG190      0.1354
     90  N         37.0540   51.0490  253.0290 N.3   193  HIS193     -0.1241
     91  CA        38.4210   50.9840  253.5370 C.3   193  HIS193      0.1621
     92  C         38.9120   49.5720  253.5940 C.2   193  HIS193      0.2264
     93  O         38.1140   48.6650  253.7330 O.2   193  HIS193     -0.2867
     94  CB        38.4940   51.5480  254.9260 C.3   193  HIS193      0.0745
     95  CG        37.5430   50.9020  255.8690 C.ar  193  HIS193      0.0817
     96  ND1       36.2330   51.2950  255.9720 N.ar  193  HIS193     -0.2268
     97  CD2       37.7020   49.8760  256.7380 C.ar  193  HIS193      0.1154
     98  CE1       35.6260   50.5560  256.8840 C.ar  193  HIS193      0.1986
     99  NE2       36.4980   49.6890  257.3700 N.ar  193  HIS193     -0.2212
    100  N         41.4730   47.3470  255.8510 N.3   195  HIS195     -0.1241
    101  CA        42.2510   47.3690  257.0820 C.3   195  HIS195      0.1621
    102  C         43.6010   46.7000  256.8570 C.2   195  HIS195      0.2264
    103  O         43.7050   45.7460  256.0560 O.2   195  HIS195     -0.2867
    104  CB        41.5070   46.6210  258.1930 C.3   195  HIS195      0.0745
    105  CG        40.4210   47.4160  258.8800 C.ar  195  HIS195      0.0817
    106  ND1       40.6530   48.1880  260.0030 N.ar  195  HIS195     -0.2268
    107  CD2       39.0890   47.5160  258.6300 C.ar  195  HIS195      0.1154
    108  CE1       39.5160   48.7370  260.4020 C.ar  195  HIS195      0.1986
    109  NE2       38.5520   48.3470  259.5870 N.ar  195  HIS195     -0.2212
    110  N         34.1090   58.6370  261.3360 N.3   223  CYS223     -0.1235
    111  CA        35.1400   58.4420  262.4020 C.3   223  CYS223      0.1677
    112  C         36.4540   59.2480  262.2020 C.2   223  CYS223      0.2270
    113  O         37.4650   59.0210  262.8930 O.2   223  CYS223     -0.2867
    114  CB        35.4450   56.9500  262.6140 C.3   223  CYS223      0.0956
    115  SG        33.9750   55.9190  262.9460 S.3   223  CYS223     -0.0801
@<TRIPOS>BOND
     1    90    91    1
     2    91    92    1
     3    91    94    1
     4    92    93    2
     5    59    60    1
     6    82    81    2
     7    94    95    1
     8    81    80    1
     9    60    61    1
    10    60    63    1
    11   100   101    1
    12    95    96   ar
    13    95    97   ar
    14    96    98   ar
    15   103   102    2
    16    61    62    2
    17    63    64    1
    18    97    99   ar
    19   102   101    1
    20    98    99   ar
    21    80    79    1
    22    80    83    1
    23   101   104    1
    24    65    64   ar
    25    65    67   ar
    26    64    66   ar
    27    83    84    1
    28   104   105    1
    29    89    87    1
    30    47    48    1
    31    58    57    1
    32   107   105   ar
    33   107   109   ar
    34   105   106   ar
    35    67    69   ar
    36    57    55   ar
    37    57    56   ar
    38    48    49    1
    39    48    51    1
    40    66    68   ar
    41    55    53   ar
    42    86    87    2
    43    86    85    1
    44    87    88    1
    45    56    54   ar
    46    84    85    1
    47    53    52   ar
    48    49    50    2
    49   109   108   ar
    50    54    52   ar
    51    52    51    1
    52   106   108   ar
    53    71    72    1
    54    69    68   ar
    55    69    70    1
    56   110   111    1
    57    72    73    1
    58    72    75    1
    59    74    73    2
    60    76    78    1
    61    76    75    1
    62   112   111    1
    63   112   113    2
    64    75    77    1
    65   111   114    1
    66    20    19    2
    67   114   115    1
    68    17    18    1
    69    43    45   ar
    70    43    41   ar
    71    45    46   ar
    72    40    41    1
    73    40    37    1
    74    39    38    2
    75    41    42   ar
    76    19    18    1
    77    22    21    1
    78    22    24    1
    79    46    44   ar
    80    18    21    1
    81    23    21    1
    82    38    37    1
    83    42    44   ar
    84    37    36    1
    85    25    26    1
    86    26    27    1
    87    36    31   am
    88    35    29    1
    89    35    34    1
    90     7     6    1
    91    27    29   am
    92    27    28    2
    93    29    30    1
    94    31    32    2
    95    31    30    1
    96    34    33    1
    97     8     6    1
    98     6     5    1
    99    12    11    2
   100    30    33    1
   101    11    10    1
   102    13    10    1
   103    13    14    1
   104     5     2    1
   105     4     3    2
   106    16    14   ar
   107     2     3    1
   108     2     1    1
   109    10     9    1
   110    14    15   ar
