@<TRIPOS>MOLECULE
tmp/3o6rA02.pdb
 120 115 0 0 0
SMALL
GASTEIGER

@<TRIPOS>ATOM
      1  N         25.9500   56.3160  289.8840 N.3    48  LEU48      -0.1245
      2  CA        26.7380   56.5280  291.1100 C.3    48  LEU48       0.1561
      3  C         27.9940   57.2060  290.7480 C.2    48  LEU48       0.2260
      4  O         28.3070   58.2620  291.2840 O.2    48  LEU48      -0.2867
      5  CB        27.0390   55.2170  291.8180 C.3    48  LEU48       0.0270
      6  CG        28.1270   55.1060  292.9180 C.3    48  LEU48       0.0019
      7  CD1       27.8980   56.0050  294.1870 C.3    48  LEU48       0.0001
      8  CD2       28.2460   53.6130  293.2990 C.3    48  LEU48       0.0001
      9  N         27.1330   61.0590  289.4770 N.3    51  ASP51      -0.1225
     10  CA        26.7130   61.7960  290.6320 C.3    51  ASP51       0.1805
     11  C         27.8660   61.9460  291.6440 C.2    51  ASP51       0.2597
     12  O         28.0910   63.0540  292.1910 O.2    51  ASP51      -0.2718
     13  CB        25.5770   61.0570  291.2900 C.3    51  ASP51       0.1424
     14  CG        24.3510   60.9690  290.4280 C.2    51  ASP51       0.3668
     15  OD1       24.2560   61.5380  289.2990 O.co2  51  ASP51      -0.2456
     16  OD2       23.4420   60.3270  290.9500 O.co2  51  ASP51      -0.2456
     17  N         28.6010   60.8480  291.8630 N.am   52  ALA52      -0.1979
     18  CA        29.7560   60.8440  292.7960 C.3    52  ALA52       0.1597
     19  C         30.6430   61.9930  292.5170 C.2    52  ALA52       0.2287
     20  O         30.9190   62.8180  293.3860 O.2    52  ALA52      -0.2864
     21  CB        30.5670   59.5400  292.6920 C.3    52  ALA52       0.0319
     22  N         22.7210   67.6630  296.2250 N.3    73  ILE73      -0.1245
     23  CA        22.4880   66.5650  295.3050 C.3    73  ILE73       0.1561
     24  C         21.4780   65.5450  295.8380 C.2    73  ILE73       0.2260
     25  O         21.0690   65.5490  297.0240 O.2    73  ILE73      -0.2867
     26  CB        23.8550   65.9100  294.8480 C.3    73  ILE73       0.0252
     27  CG1       24.6410   65.3030  296.0310 C.3    73  ILE73       0.0019
     28  CG2       24.7320   66.9830  294.1610 C.3    73  ILE73       0.0019
     29  CD1       25.8870   64.4990  295.6900 C.3    73  ILE73       0.0001
     30  N         21.6850   62.4500  294.3930 N.3    75  GLY75      -0.1210
     31  CA        22.4430   61.2370  294.2520 C.3    75  GLY75       0.1940
     32  C         21.6940   60.1810  293.4820 C.2    75  GLY75       0.2454
     33  O         20.7270   60.4640  292.7680 O.2    75  GLY75      -0.2732
     34  N         22.1390   58.9420  293.6370 N.am   76  PRO76      -0.2717
     35  CA        21.6640   57.8150  292.8980 C.3    76  PRO76       0.1535
     36  C         20.4960   57.0180  293.5660 C.2    76  PRO76       0.2598
     37  O         19.9790   56.0470  292.9380 O.2    76  PRO76      -0.2715
     38  CB        22.9090   56.9330  292.8530 C.3    76  PRO76       0.0310
     39  CG        23.9450   57.5930  293.7640 C.3    76  PRO76       0.0237
     40  CD        23.2600   58.5880  294.5240 C.3    76  PRO76       0.0939
     41  N         20.0680   57.3600  294.7850 N.am   77  PHE77      -0.1974
     42  CA        19.1860   56.4040  295.4420 C.3    77  PHE77       0.1639
     43  C         17.7630   56.8510  295.7860 C.2    77  PHE77       0.2290
     44  O         17.0310   56.1300  296.4720 O.2    77  PHE77      -0.2864
     45  CB        19.8550   55.7990  296.6710 C.3    77  PHE77       0.0560
     46  CG        21.1990   55.1630  296.4170 C.ar   77  PHE77      -0.0200
     47  CD1       22.3400   55.7500  296.8720 C.ar   77  PHE77      -0.0042
     48  CD2       21.3080   53.9320  295.8080 C.ar   77  PHE77      -0.0042
     49  CE1       23.6190   55.1150  296.6870 C.ar   77  PHE77      -0.0003
     50  CE2       22.5740   53.3120  295.5980 C.ar   77  PHE77      -0.0003
     51  CZ        23.7090   53.9160  296.0440 C.ar   77  PHE77      -0.0000
     52  N         20.7770   51.1420  300.6330 N.3   133  TYR133     -0.1241
     53  CA        19.5310   51.8400  300.3460 C.3   133  TYR133      0.1605
     54  C         18.5220   50.8670  299.7180 C.2   133  TYR133      0.2264
     55  O         18.8860   50.0480  298.8660 O.2   133  TYR133     -0.2867
     56  CB        19.7690   52.9890  299.3640 C.3   133  TYR133      0.0534
     57  CG        20.4210   54.2580  299.9300 C.ar  133  TYR133     -0.0201
     58  CD1       21.7880   54.4980  299.7560 C.ar  133  TYR133     -0.0009
     59  CD2       19.6680   55.2200  300.6220 C.ar  133  TYR133     -0.0009
     60  CE1       22.3970   55.6570  300.2690 C.ar  133  TYR133      0.0417
     61  CE2       20.2790   56.3810  301.1300 C.ar  133  TYR133      0.0417
     62  CZ        21.6350   56.5890  300.9300 C.ar  133  TYR133      0.1957
     63  OH        22.2210   57.7050  301.4030 O.3   133  TYR133     -0.2866
     64  N         28.3530   56.4860  305.2380 N.3   168  TYR168     -0.1241
     65  CA        28.0670   55.4930  304.1520 C.3   168  TYR168      0.1605
     66  C         29.4100   55.3470  303.4240 C.2   168  TYR168      0.2264
     67  O         30.1610   56.3010  303.3620 O.2   168  TYR168     -0.2867
     68  CB        26.9050   56.0280  303.2210 C.3   168  TYR168      0.0534
     69  CG        26.5670   55.1880  301.9920 C.ar  168  TYR168     -0.0201
     70  CD1       25.4950   54.2900  302.0010 C.ar  168  TYR168     -0.0009
     71  CD2       27.3140   55.3020  300.8170 C.ar  168  TYR168     -0.0009
     72  CE1       25.2270   53.4910  300.8860 C.ar  168  TYR168      0.0417
     73  CE2       27.0530   54.5190  299.6990 C.ar  168  TYR168      0.0417
     74  CZ        26.0240   53.6200  299.7350 C.ar  168  TYR168      0.1957
     75  OH        25.7780   52.8500  298.6180 O.3   168  TYR168     -0.2866
     76  N         30.8730   53.7730  299.6880 N.3   170  ILE170     -0.1245
     77  CA        30.4800   53.2550  298.4200 C.3   170  ILE170      0.1561
     78  C         31.2450   51.9600  298.3210 C.2   170  ILE170      0.2260
     79  O         32.3980   51.9280  298.7140 O.2   170  ILE170     -0.2867
     80  CB        30.9020   54.2550  297.3460 C.3   170  ILE170      0.0252
     81  CG1       30.0060   55.5030  297.3540 C.3   170  ILE170      0.0019
     82  CG2       30.8480   53.6420  295.9480 C.3   170  ILE170      0.0019
     83  CD1       30.2830   56.5050  298.4200 C.3   170  ILE170      0.0001
     84  N         31.1010   58.7050  302.4900 N.3   190  ARG190     -0.1245
     85  CA        30.3080   59.9100  302.6410 C.3   190  ARG190      0.1563
     86  C         30.0220   59.9770  304.1040 C.2   190  ARG190      0.2260
     87  O         29.9090   58.9280  304.7600 O.2   190  ARG190     -0.2867
     88  CB        28.9500   59.8100  301.9270 C.3   190  ARG190      0.0307
     89  CG        28.9700   59.9540  300.4330 C.3   190  ARG190      0.0489
     90  CD        27.7320   60.7310  299.9870 C.3   190  ARG190      0.2205
     91  NE        27.9210   62.1590  300.2170 N.pl3 190  ARG190     -0.0865
     92  CZ        26.9550   63.0130  300.5220 C.cat 190  ARG190      0.5346
     93  NH1       25.7040   62.5930  300.6760 N.pl3 190  ARG190      0.1354
     94  NH2       27.2610   64.2880  300.7340 N.pl3 190  ARG190      0.1354
     95  N         23.9320   61.3200  306.3460 N.3   193  HIS193     -0.1241
     96  CA        23.0250   62.3550  305.7490 C.3   193  HIS193      0.1621
     97  C         21.5720   61.8870  305.6890 C.2   193  HIS193      0.2264
     98  O         21.3160   60.7270  305.5140 O.2   193  HIS193     -0.2867
     99  CB        23.5030   62.8730  304.3630 C.3   193  HIS193      0.0745
    100  CG        23.7900   61.7820  303.3770 C.ar  193  HIS193      0.0817
    101  ND1       24.9980   61.1240  303.3360 N.ar  193  HIS193     -0.2268
    102  CD2       23.0250   61.2340  302.3970 C.ar  193  HIS193      0.1154
    103  CE1       24.9720   60.2280  302.3580 C.ar  193  HIS193      0.1986
    104  NE2       23.7930   60.2910  301.7580 N.ar  193  HIS193     -0.2212
    105  N         18.5990   62.5810  303.2200 N.3   195  HIS195     -0.1241
    106  CA        18.2420   63.1930  301.9670 C.3   195  HIS195      0.1621
    107  C         16.8370   63.7150  302.1510 C.2   195  HIS195      0.2264
    108  O         15.9890   62.9760  302.6490 O.2   195  HIS195     -0.2867
    109  CB        18.1600   62.1450  300.8710 C.3   195  HIS195      0.0745
    110  CG        19.4690   61.5520  300.4220 C.ar  195  HIS195      0.0817
    111  ND1       20.1640   62.0320  299.3280 N.ar  195  HIS195     -0.2268
    112  CD2       20.1530   60.4570  300.8470 C.ar  195  HIS195      0.1154
    113  CE1       21.2270   61.2680  299.1110 C.ar  195  HIS195      0.1986
    114  NE2       21.2650   60.3250  300.0400 N.ar  195  HIS195     -0.2212
    115  N         32.0620   62.3170  297.7630 N.3   223  CYS223     -0.1235
    116  CA        31.1800   62.8790  296.7360 C.3   223  CYS223      0.1677
    117  C         31.2620   64.4290  296.6280 C.2   223  CYS223      0.2270
    118  O         30.6750   65.0440  295.7120 O.2   223  CYS223     -0.2867
    119  CB        29.7480   62.3860  296.9670 C.3   223  CYS223      0.0956
    120  SG        29.5360   60.5860  296.7130 S.3   223  CYS223     -0.0801
@<TRIPOS>BOND
     1    15    14   ar
     2     9    10    1
     3     1     2    1
     4    14    16   ar
     5    14    13    1
     6    10    13    1
     7    10    11    1
     8     3     2    1
     9     3     4    2
    10     2     5    1
    11    11    17   am
    12    11    12    2
    13     5     6    1
    14    17    18    1
    15    19    18    1
    16    19    20    2
    17    21    18    1
    18    33    32    2
    19    38    35    1
    20    38    39    1
    21    35    36    1
    22    35    34    1
    23     6     8    1
    24     6     7    1
    25    37    36    2
    26    32    34   am
    27    32    31    1
    28    36    41   am
    29    34    40    1
    30    39    40    1
    31    28    26    1
    32    31    30    1
    33    41    42    1
    34    26    23    1
    35    26    27    1
    36    23    24    1
    37    23    22    1
    38    42    43    1
    39    42    45    1
    40    50    48   ar
    41    50    51   ar
    42    29    27    1
    43   118   117    2
    44    43    44    2
    45    48    46   ar
    46    24    25    2
    47    82    80    1
    48    51    49   ar
    49    46    45    1
    50    46    47   ar
    51   117   116    1
    52    49    47   ar
    53   120   119    1
    54   116   119    1
    55   116   115    1
    56    80    81    1
    57    80    77    1
    58    81    83    1
    59    78    77    1
    60    78    79    2
    61    77    76    1
    62    75    74    1
    63    55    54    2
    64   113   111   ar
    65   113   114   ar
    66   111   110   ar
    67    56    57    1
    68    56    53    1
    69    73    74   ar
    70    73    71   ar
    71    54    53    1
    72    74    72   ar
    73    58    57   ar
    74    58    60   ar
    75    57    59   ar
    76    90    91    1
    77    90    89    1
    78   114   112   ar
    79    91    92    2
    80    60    62   ar
    81    53    52    1
    82   110   112   ar
    83   110   109    1
    84    89    88    1
    85    92    93    1
    86    92    94    1
    87    59    61   ar
    88    71    69   ar
    89   109   106    1
    90    72    70   ar
    91    62    61   ar
    92    62    63    1
    93   104   103   ar
    94   104   102   ar
    95    88    85    1
    96   106   107    1
    97   106   105    1
    98    69    70   ar
    99    69    68    1
   100   107   108    2
   101   103   101   ar
   102   102   100   ar
   103    84    85    1
   104    85    86    1
   105    68    65    1
   106   101   100   ar
   107    67    66    2
   108   100    99    1
   109    66    65    1
   110    86    87    2
   111    65    64    1
   112    99    96    1
   113    98    97    2
   114    97    96    1
   115    96    95    1
