@<TRIPOS>MOLECULE
tmp/3o6xC00.pdb
 165 155 0 0 0
SMALL
GASTEIGER

@<TRIPOS>ATOM
      1  N         53.7390   35.9820  192.1880 N.3   180  GLU180     -0.1245
      2  CA        54.1320   37.3220  192.6190 C.3   180  GLU180      0.1567
      3  C         54.9510   37.1880  193.8920 C.2   180  GLU180      0.2260
      4  O         54.4050   36.8060  194.9250 O.2   180  GLU180     -0.2867
      5  CB        52.8960   38.1650  192.9160 C.3   180  GLU180      0.0388
      6  CG        52.0170   38.4530  191.7110 C.3   180  GLU180      0.1160
      7  CD        50.7410   39.1840  192.0950 C.2   180  GLU180      0.3649
      8  OE1       50.8370   40.2370  192.7630 O.co2 180  GLU180     -0.2457
      9  OE2       49.6420   38.7080  191.7330 O.co2 180  GLU180     -0.2457
     10  N         56.9360   38.5940  197.0870 N.3   182  GLU182     -0.1245
     11  CA        57.1080   39.7160  198.0090 C.3   182  GLU182      0.1567
     12  C         58.2290   39.3850  199.0000 C.2   182  GLU182      0.2260
     13  O         58.4850   38.2080  199.2770 O.2   182  GLU182     -0.2867
     14  CB        55.8180   39.9870  198.7760 C.3   182  GLU182      0.0388
     15  CG        54.7570   40.6690  197.9640 C.3   182  GLU182      0.1160
     16  CD        53.5500   41.0310  198.7900 C.2   182  GLU182      0.3649
     17  OE1       52.6870   41.7760  198.2800 O.co2 182  GLU182     -0.2457
     18  OE2       53.4610   40.5700  199.9480 O.co2 182  GLU182     -0.2457
     19  N         58.3160   46.5140  192.0960 N.3   235  HIS235     -0.1241
     20  CA        57.9480   47.7510  192.7820 C.3   235  HIS235      0.1621
     21  C         57.9900   47.5140  194.2760 C.2   235  HIS235      0.2264
     22  O         58.0710   46.3640  194.7130 O.2   235  HIS235     -0.2867
     23  CB        56.5390   48.1640  192.3800 C.3   235  HIS235      0.0745
     24  CG        55.4850   47.2140  192.8470 C.ar  235  HIS235      0.0817
     25  ND1       55.0960   47.1280  194.1660 N.ar  235  HIS235     -0.2268
     26  CD2       54.7450   46.3030  192.1740 C.ar  235  HIS235      0.1154
     27  CE1       54.1600   46.2050  194.2860 C.ar  235  HIS235      0.1986
     28  NE2       53.9280   45.6890  193.0920 N.ar  235  HIS235     -0.2212
     29  N         56.4420   47.4500  198.1460 N.3   237  GLU237     -0.1231
     30  CA        55.1870   47.2060  198.8240 C.3   237  GLU237      0.1699
     31  C         54.7100   48.2830  199.7810 C.2   237  GLU237      0.2592
     32  O         55.3180   49.3500  199.9070 O.2   237  GLU237     -0.2718
     33  CB        55.2600   45.8820  199.5670 C.3   237  GLU237      0.0402
     34  CG        53.9910   45.1110  199.4360 C.3   237  GLU237      0.1161
     35  CD        53.5860   45.0450  197.9970 C.2   237  GLU237      0.3649
     36  OE1       54.3580   44.4820  197.2010 O.co2 237  GLU237     -0.2457
     37  OE2       52.5140   45.5730  197.6560 O.co2 237  GLU237     -0.2457
     38  N         53.6130   47.9650  200.4650 N.am  238  VAL238     -0.1980
     39  CA        52.9750   48.8670  201.4050 C.3   238  VAL238      0.1595
     40  C         53.8680   49.1770  202.5740 C.2   238  VAL238      0.2287
     41  O         53.9840   50.3210  202.9700 O.2   238  VAL238     -0.2864
     42  CB        51.6930   48.2630  201.9620 C.3   238  VAL238      0.0276
     43  CG1       50.7280   49.3740  202.3230 C.3   238  VAL238      0.0022
     44  CG2       51.0950   47.2830  200.9570 C.3   238  VAL238      0.0022
     45  N         59.7460   46.7410  202.0600 N.3   242  GLN242     -0.1245
     46  CA        59.1030   45.5710  201.4810 C.3   242  GLN242      0.1566
     47  C         59.0120   45.8370  199.9750 C.2   242  GLN242      0.2260
     48  O         58.8800   46.9860  199.5570 O.2   242  GLN242     -0.2867
     49  CB        57.7220   45.3450  202.0700 C.3   242  GLN242      0.0367
     50  CG        57.0810   44.1120  201.4910 C.3   242  GLN242      0.0905
     51  CD        55.8010   43.7090  202.2020 C.2   242  GLN242      0.2608
     52  OE1       54.9530   44.5530  202.5200 O.2   242  GLN242     -0.2717
     53  NE2       55.6430   42.4050  202.4370 N.am  242  GLN242     -0.0878
     54  N         58.0960   43.8250  195.7880 N.3   244  GLU244     -0.1245
     55  CA        57.5810   42.6810  195.0380 C.3   244  GLU244      0.1567
     56  C         58.3780   42.5450  193.7530 C.2   244  GLU244      0.2260
     57  O         59.3230   43.2810  193.5340 O.2   244  GLU244     -0.2867
     58  CB        56.1150   42.8840  194.6830 C.3   244  GLU244      0.0388
     59  CG        55.4840   41.6600  194.0610 C.3   244  GLU244      0.1160
     60  CD        54.4110   42.0000  193.0530 C.2   244  GLU244      0.3649
     61  OE1       53.8060   41.0620  192.4980 O.co2 244  GLU244     -0.2457
     62  OE2       54.1740   43.2010  192.8070 O.co2 244  GLU244     -0.2457
     63  N         52.4240   45.1410  207.3580 N.3   288  ASN288     -0.1225
     64  CA        52.1060   44.2630  206.2420 C.3   288  ASN288      0.1785
     65  C         52.9960   43.0320  206.1720 C.2   288  ASN288      0.2598
     66  O         54.2190   43.1490  206.2420 O.2   288  ASN288     -0.2718
     67  CB        52.2110   45.0350  204.9310 C.3   288  ASN288      0.1169
     68  CG        50.8690   45.4940  204.4210 C.2   288  ASN288      0.2627
     69  OD1       50.1170   46.1660  205.1240 O.2   288  ASN288     -0.2716
     70  ND2       50.5590   45.1340  203.1840 N.am  288  ASN288     -0.0877
     71  N         52.3890   41.8530  206.0520 N.am  289  GLY289     -0.1942
     72  CA        53.1750   40.6350  205.9470 C.3   289  GLY289      0.2014
     73  C         53.5830   40.4850  204.4940 C.2   289  GLY289      0.2640
     74  O         53.1900   41.3090  203.6690 O.2   289  GLY289     -0.2714
     75  N         54.3680   39.4610  204.1650 N.am  290  SER290     -0.1935
     76  CA        54.7920   39.2380  202.7770 C.3   290  SER290      0.2055
     77  C         54.0710   38.0180  202.2450 C.2   290  SER290      0.2643
     78  O         54.0230   37.0000  202.9150 O.2   290  SER290     -0.2714
     79  CB        56.2950   38.9740  202.7030 C.3   290  SER290      0.2130
     80  OG        57.0590   40.0520  203.2010 O.3   290  SER290     -0.2179
     81  N         53.5230   38.1050  201.0420 N.am  291  GLY291     -0.1954
     82  CA        52.8180   36.9610  200.4950 C.3   291  GLY291      0.1869
     83  C         53.2220   36.6260  199.0740 C.2   291  GLY291      0.2309
     84  O         53.8360   37.4440  198.3890 O.2   291  GLY291     -0.2863
     85  N         51.3880   35.4410  195.7480 N.3   293  HIS293     -0.1241
     86  CA        50.1570   35.1320  195.0540 C.3   293  HIS293      0.1621
     87  C         50.4200   34.1350  193.9710 C.2   293  HIS293      0.2264
     88  O         51.5500   34.0050  193.5160 O.2   293  HIS293     -0.2867
     89  CB        49.5710   36.3980  194.4540 C.3   293  HIS293      0.0745
     90  CG        49.2390   37.4320  195.4760 C.ar  293  HIS293      0.0817
     91  ND1       48.8030   38.6950  195.1430 N.ar  293  HIS293     -0.2268
     92  CD2       49.2760   37.3900  196.8280 C.ar  293  HIS293      0.1154
     93  CE1       48.5870   39.3860  196.2470 C.ar  293  HIS293      0.1986
     94  NE2       48.8670   38.6170  197.2840 N.ar  293  HIS293     -0.2212
     95  N         50.7950   35.4210  209.3200 N.3   349  ARG349     -0.1245
     96  CA        50.3450   36.3510  208.2820 C.3   349  ARG349      0.1563
     97  C         48.8900   36.3840  207.9140 C.2   349  ARG349      0.2260
     98  O         48.2270   37.3960  208.1210 O.2   349  ARG349     -0.2867
     99  CB        51.1220   36.1480  206.9800 C.3   349  ARG349      0.0307
    100  CG        50.7500   37.1730  205.9100 C.3   349  ARG349      0.0489
    101  CD        51.3910   36.8470  204.5760 C.3   349  ARG349      0.2205
    102  NE        50.6890   35.7750  203.8830 N.pl3 349  ARG349     -0.0865
    103  CZ        49.7960   35.9770  202.9210 C.cat 349  ARG349      0.5346
    104  NH1       49.5060   37.2120  202.5330 N.pl3 349  ARG349      0.1354
    105  NH2       49.1750   34.9460  202.3630 N.pl3 349  ARG349      0.1354
    106  N         46.5420   42.3560  207.8750 N.3   353  ASN353     -0.1225
    107  CA        46.8540   43.4320  206.9430 C.3   353  ASN353      0.1785
    108  C         46.9550   42.9440  205.5000 C.2   353  ASN353      0.2597
    109  O         48.0360   42.5810  205.0320 O.2   353  ASN353     -0.2718
    110  CB        48.1640   44.1130  207.3490 C.3   353  ASN353      0.1169
    111  CG        48.0840   44.7580  208.7180 C.2   353  ASN353      0.2627
    112  OD1       47.8320   44.0880  209.7200 O.2   353  ASN353     -0.2716
    113  ND2       48.2980   46.0680  208.7680 N.am  353  ASN353     -0.0877
    114  N         45.8150   42.9450  204.8080 N.am  354  GLU354     -0.1965
    115  CA        45.7040   42.5260  203.4070 C.3   354  GLU354      0.1733
    116  C         45.9770   41.0450  203.1370 C.2   354  GLU354      0.2616
    117  O         46.2050   40.6470  201.9910 O.2   354  GLU354     -0.2715
    118  CB        46.6090   43.3960  202.5320 C.3   354  GLU354      0.0429
    119  CG        46.1940   44.8570  202.5390 C.3   354  GLU354      0.1163
    120  CD        47.1320   45.7490  201.7520 C.2   354  GLU354      0.3649
    121  OE1       47.2980   45.5110  200.5360 O.co2 354  GLU354     -0.2457
    122  OE2       47.7000   46.6920  202.3500 O.co2 354  GLU354     -0.2457
    123  N         45.9270   40.2340  204.1940 N.am  355  ALA355     -0.1964
    124  CA        46.1690   38.7950  204.0920 C.3   355  ALA355      0.1713
    125  C         44.8860   38.0230  204.3750 C.2   355  ALA355      0.2458
    126  O         44.3210   38.1220  205.4700 O.2   355  ALA355     -0.2730
    127  CB        47.2600   38.3750  205.0770 C.3   355  ALA355      0.0333
    128  N         44.4200   37.2280  203.3940 N.am  356  PRO356     -0.2727
    129  CA        43.1970   36.4240  203.5080 C.3   356  PRO356      0.1402
    130  C         43.1420   35.5160  204.7370 C.2   356  PRO356      0.2269
    131  O         44.0540   34.7350  204.9900 O.2   356  PRO356     -0.2865
    132  CB        43.1810   35.6350  202.1970 C.3   356  PRO356      0.0296
    133  CG        44.6320   35.4960  201.8670 C.3   356  PRO356      0.0237
    134  CD        45.1500   36.8830  202.1610 C.3   356  PRO356      0.0939
    135  N         40.6950   42.7350  196.4490 N.3   378  ARG378     -0.1245
    136  CA        41.5320   41.8090  197.2070 C.3   378  ARG378      0.1563
    137  C         40.7720   41.2890  198.4220 C.2   378  ARG378      0.2260
    138  O         39.6080   40.9030  198.3170 O.2   378  ARG378     -0.2867
    139  CB        42.8230   42.5010  197.6640 C.3   378  ARG378      0.0307
    140  CG        43.7750   42.8950  196.5410 C.3   378  ARG378      0.0489
    141  CD        43.2170   44.0230  195.6890 C.3   378  ARG378      0.2205
    142  NE        44.1540   44.4280  194.6440 N.pl3 378  ARG378     -0.0865
    143  CZ        43.9320   45.4140  193.7810 C.cat 378  ARG378      0.5346
    144  NH1       42.8000   46.1020  193.8340 N.pl3 378  ARG378      0.1354
    145  NH2       44.8430   45.7120  192.8650 N.pl3 378  ARG378      0.1354
    146  N         43.2390   34.2820  191.0330 N.3   390  GLU390     -0.1245
    147  CA        44.4210   34.5850  191.8380 C.3   390  GLU390      0.1567
    148  C         44.2670   33.9700  193.2250 C.2   390  GLU390      0.2260
    149  O         43.2800   34.2400  193.9070 O.2   390  GLU390     -0.2867
    150  CB        44.6140   36.0920  191.9630 C.3   390  GLU390      0.0388
    151  CG        45.9760   36.4600  192.5230 C.3   390  GLU390      0.1160
    152  CD        46.1870   37.9580  192.6500 C.2   390  GLU390      0.3649
    153  OE1       45.8460   38.7020  191.7020 O.co2 390  GLU390     -0.2457
    154  OE2       46.7080   38.3910  193.6980 O.co2 390  GLU390     -0.2457
    155  N         45.5910   34.1250  196.6650 N.3   392  ARG392     -0.1245
    156  CA        46.3720   34.8970  197.6290 C.3   392  ARG392      0.1563
    157  C         46.8280   34.2360  198.9180 C.2   392  ARG392      0.2260
    158  O         47.8100   34.6660  199.5000 O.2   392  ARG392     -0.2867
    159  CB        45.6120   36.1830  197.9760 C.3   392  ARG392      0.0307
    160  CG        45.3370   37.0700  196.7730 C.3   392  ARG392      0.0489
    161  CD        44.6550   38.3680  197.1670 C.3   392  ARG392      0.2205
    162  NE        44.5140   39.2770  196.0290 N.pl3 392  ARG392     -0.0865
    163  CZ        43.8000   39.0130  194.9360 C.cat 392  ARG392      0.5346
    164  NH1       43.1520   37.8610  194.8240 N.pl3 392  ARG392      0.1354
    165  NH2       43.7360   39.9020  193.9500 N.pl3 392  ARG392      0.1354
@<TRIPOS>BOND
     1   146   147    1
     2   153   152   ar
     3     6     7    1
     4     6     5    1
     5     9     7   ar
     6   147   150    1
     7   147   148    1
     8   150   151    1
     9     7     8   ar
    10    19    20    1
    11    26    24   ar
    12    26    28   ar
    13     1     2    1
    14    23    20    1
    15    23    24    1
    16    61    60   ar
    17   151   152    1
    18     2     5    1
    19     2     3    1
    20   152   154   ar
    21    20    21    1
    22    62    60   ar
    23    24    25   ar
    24   145   143    1
    25    60    59    1
    26    28    27   ar
    27   148   149    2
    28    88    87    2
    29    57    56    2
    30    56    55    1
    31   143   144    1
    32   143   142    2
    33     3     4    2
    34   165   163    1
    35    87    86    1
    36    59    58    1
    37    25    27   ar
    38    21    22    2
    39    89    86    1
    40    89    90    1
    41   142   141    1
    42    58    55    1
    43   164   163    1
    44   163   162    2
    45    55    54    1
    46    86    85    1
    47    91    90   ar
    48    91    93   ar
    49    90    92   ar
    50   141   140    1
    51   162   161    1
    52    93    94   ar
    53   135   136    1
    54   140   139    1
    55   155   156    1
    56   160   161    1
    57   160   159    1
    58    92    94   ar
    59    10    11    1
    60    36    35   ar
    61   136   139    1
    62   136   137    1
    63   156   159    1
    64   156   157    1
    65    37    35   ar
    66    15    14    1
    67    15    16    1
    68    35    34    1
    69    11    14    1
    70    11    12    1
    71    29    30    1
    72    17    16   ar
    73   138   137    2
    74    84    83    2
    75    16    18   ar
    76    30    33    1
    77    30    31    1
    78   157   158    2
    79    12    13    2
    80    83    82    1
    81    34    33    1
    82    48    47    2
    83    31    32    2
    84    31    38   am
    85    47    46    1
    86    38    39    1
    87    82    81    1
    88   121   120   ar
    89    44    42    1
    90    81    77   am
    91    39    42    1
    92    39    40    1
    93    46    45    1
    94    46    49    1
    95    50    49    1
    96    50    51    1
    97   120   122   ar
    98   120   119    1
    99   133   134    1
   100   133   132    1
   101    42    43    1
   102   117   116    2
   103   134   128    1
   104   132   129    1
   105    51    53   am
   106    51    52    2
   107    77    76    1
   108    77    78    2
   109   105   103    1
   110   118   119    1
   111   118   115    1
   112   104   103    1
   113    40    41    2
   114    79    76    1
   115    79    80    1
   116    76    75    1
   117   103   102    2
   118   116   115    1
   119   116   123   am
   120    70    68   am
   121   128   129    1
   122   128   125   am
   123   115   114    1
   124   129   130    1
   125    74    73    2
   126   102   101    1
   127   124   123    1
   128   124   125    1
   129   124   127    1
   130    75    73   am
   131   125   126    2
   132    68    67    1
   133    68    69    2
   134    73    72    1
   135   101   100    1
   136   130   131    2
   137   114   108   am
   138    67    64    1
   139   109   108    2
   140   108   107    1
   141   100    99    1
   142    72    71    1
   143    71    65   am
   144    65    64    1
   145    65    66    2
   146    64    63    1
   147   107   110    1
   148   107   106    1
   149    99    96    1
   150   110   111    1
   151    97    98    2
   152    97    96    1
   153    96    95    1
   154   111   113   am
   155   111   112    2
