@<TRIPOS>MOLECULE
tmp/3o6xC01.pdb
 174 166 0 0 0
SMALL
GASTEIGER

@<TRIPOS>ATOM
      1  N         48.8730   27.3350  183.4140 N.3   176  ASN176     -0.1240
      2  CA        49.7790   28.4600  183.5350 C.3   176  ASN176      0.1653
      3  C         49.7990   29.0530  184.9240 C.2   176  ASN176      0.2266
      4  O         48.7470   29.3300  185.5110 O.2   176  ASN176     -0.2867
      5  CB        49.4140   29.5370  182.5420 C.3   176  ASN176      0.1155
      6  CG        49.7780   29.1570  181.1530 C.2   176  ASN176      0.2627
      7  OD1       50.9450   28.9090  180.8570 O.2   176  ASN176     -0.2716
      8  ND2       48.7850   29.0980  180.2800 N.am  176  ASN176     -0.0877
      9  N         51.2820   32.2010  187.2010 N.3   178  GLY178     -0.1210
     10  CA        51.9690   33.4720  187.2690 C.3   178  GLY178      0.1956
     11  C         52.1160   33.7830  188.7390 C.2   178  GLY178      0.2612
     12  O         51.1080   33.9800  189.4160 O.2   178  GLY178     -0.2717
     13  N         53.3390   33.8140  189.2560 N.am  179  TRP179     -0.1962
     14  CA        53.5130   34.1000  190.6750 C.3   179  TRP179      0.1771
     15  C         53.9740   35.5230  190.9600 C.2   179  TRP179      0.2619
     16  O         54.5230   36.1880  190.0850 O.2   179  TRP179     -0.2715
     17  CB        54.4920   33.1110  191.3050 C.3   179  TRP179      0.0590
     18  CG        55.7560   32.9100  190.5240 C.ar  179  TRP179      0.0006
     19  CD1       56.0350   31.8770  189.6790 C.ar  179  TRP179      0.0946
     20  CD2       56.9370   33.7290  190.5590 C.ar  179  TRP179      0.0152
     21  NE1       57.3160   31.9950  189.1940 N.ar  179  TRP179     -0.2442
     22  CE2       57.8910   33.1210  189.7190 C.ar  179  TRP179      0.0810
     23  CE3       57.2800   34.9120  191.2200 C.ar  179  TRP179      0.0012
     24  CZ2       59.1650   33.6530  189.5260 C.ar  179  TRP179      0.0191
     25  CZ3       58.5500   35.4390  191.0250 C.ar  179  TRP179      0.0001
     26  CH2       59.4740   34.8090  190.1880 C.ar  179  TRP179      0.0015
     27  N         53.7390   35.9820  192.1880 N.am  180  GLU180     -0.1977
     28  CA        54.1320   37.3220  192.6190 C.3   180  GLU180      0.1602
     29  C         54.9510   37.1880  193.8920 C.2   180  GLU180      0.2287
     30  O         54.4050   36.8060  194.9250 O.2   180  GLU180     -0.2864
     31  CB        52.8960   38.1650  192.9160 C.3   180  GLU180      0.0415
     32  CG        52.0170   38.4530  191.7110 C.3   180  GLU180      0.1163
     33  CD        50.7410   39.1840  192.0950 C.2   180  GLU180      0.3649
     34  OE1       50.8370   40.2370  192.7630 O.co2 180  GLU180     -0.2457
     35  OE2       49.6420   38.7080  191.7330 O.co2 180  GLU180     -0.2457
     36  N         57.7200   42.8890  186.1990 N.3   233  THR233     -0.1218
     37  CA        57.5970   44.0930  187.0230 C.3   233  THR233      0.1862
     38  C         58.3240   43.9740  188.3410 C.2   233  THR233      0.2287
     39  O         58.6710   42.8790  188.7750 O.2   233  THR233     -0.2866
     40  CB        56.1520   44.3910  187.3790 C.3   233  THR233      0.1770
     41  OG1       55.7140   43.4720  188.3910 O.3   233  THR233     -0.2211
     42  CG2       55.2760   44.2500  186.1620 C.3   233  THR233      0.0375
     43  N         58.3160   46.5140  192.0960 N.3   235  HIS235     -0.1241
     44  CA        57.9480   47.7510  192.7820 C.3   235  HIS235      0.1621
     45  C         57.9900   47.5140  194.2760 C.2   235  HIS235      0.2264
     46  O         58.0710   46.3640  194.7130 O.2   235  HIS235     -0.2867
     47  CB        56.5390   48.1640  192.3800 C.3   235  HIS235      0.0745
     48  CG        55.4850   47.2140  192.8470 C.ar  235  HIS235      0.0817
     49  ND1       55.0960   47.1280  194.1660 N.ar  235  HIS235     -0.2268
     50  CD2       54.7450   46.3030  192.1740 C.ar  235  HIS235      0.1154
     51  CE1       54.1600   46.2050  194.2860 C.ar  235  HIS235      0.1986
     52  NE2       53.9280   45.6890  193.0920 N.ar  235  HIS235     -0.2212
     53  N         58.0960   43.8250  195.7880 N.3   244  GLU244     -0.1245
     54  CA        57.5810   42.6810  195.0380 C.3   244  GLU244      0.1567
     55  C         58.3780   42.5450  193.7530 C.2   244  GLU244      0.2260
     56  O         59.3230   43.2810  193.5340 O.2   244  GLU244     -0.2867
     57  CB        56.1150   42.8840  194.6830 C.3   244  GLU244      0.0388
     58  CG        55.4840   41.6600  194.0610 C.3   244  GLU244      0.1160
     59  CD        54.4110   42.0000  193.0530 C.2   244  GLU244      0.3649
     60  OE1       53.8060   41.0620  192.4980 O.co2 244  GLU244     -0.2457
     61  OE2       54.1740   43.2010  192.8070 O.co2 244  GLU244     -0.2457
     62  N         57.4030   40.2940  189.8200 N.3   246  ALA246     -0.1231
     63  CA        56.7210   39.1770  189.1930 C.3   246  ALA246      0.1679
     64  C         57.0980   39.0660  187.7390 C.2   246  ALA246      0.2434
     65  O         57.4210   40.0590  187.0960 O.2   246  ALA246     -0.2733
     66  CB        55.2240   39.3410  189.3250 C.3   246  ALA246      0.0304
     67  N         57.0580   37.8480  187.1960 N.am  247  PRO247     -0.2718
     68  CA        57.3960   37.5740  185.8010 C.3   247  PRO247      0.1535
     69  C         56.1250   37.3790  185.0150 C.2   247  PRO247      0.2598
     70  O         55.0330   37.6080  185.5220 O.2   247  PRO247     -0.2715
     71  CB        58.1360   36.2730  185.9090 C.3   247  PRO247      0.0310
     72  CG        57.2230   35.5430  186.8840 C.3   247  PRO247      0.0237
     73  CD        56.9150   36.5900  187.9460 C.3   247  PRO247      0.0939
     74  N         56.2680   36.9310  183.7800 N.am  248  ILE248     -0.1964
     75  CA        55.1120   36.6500  182.9490 C.3   248  ILE248      0.1727
     76  C         54.7820   35.1810  183.2340 C.2   248  ILE248      0.2616
     77  O         55.6950   34.3670  183.3760 O.2   248  ILE248     -0.2715
     78  CB        55.4750   36.8180  181.4930 C.3   248  ILE248      0.0290
     79  CG1       56.1570   38.1710  181.2920 C.3   248  ILE248      0.0022
     80  CG2       54.2310   36.7120  180.6540 C.3   248  ILE248      0.0023
     81  CD1       56.7350   38.3720  179.9080 C.3   248  ILE248      0.0001
     82  N         53.5050   34.8250  183.3240 N.am  249  PHE249     -0.1974
     83  CA        53.1520   33.4320  183.6210 C.3   249  PHE249      0.1639
     84  C         53.9130   32.4270  182.7740 C.2   249  PHE249      0.2290
     85  O         54.4430   32.7760  181.7320 O.2   249  PHE249     -0.2864
     86  CB        51.6640   33.1980  183.4230 C.3   249  PHE249      0.0560
     87  CG        51.1690   33.6070  182.0830 C.ar  249  PHE249     -0.0200
     88  CD1       51.0350   34.9510  181.7630 C.ar  249  PHE249     -0.0042
     89  CD2       50.8300   32.6530  181.1380 C.ar  249  PHE249     -0.0042
     90  CE1       50.5640   35.3430  180.5110 C.ar  249  PHE249     -0.0003
     91  CE2       50.3570   33.0290  179.8820 C.ar  249  PHE249     -0.0003
     92  CZ        50.2230   34.3770  179.5670 C.ar  249  PHE249     -0.0000
     93  N         51.3880   35.4410  195.7480 N.3   293  HIS293     -0.1241
     94  CA        50.1570   35.1320  195.0540 C.3   293  HIS293      0.1621
     95  C         50.4200   34.1350  193.9710 C.2   293  HIS293      0.2264
     96  O         51.5500   34.0050  193.5160 O.2   293  HIS293     -0.2867
     97  CB        49.5710   36.3980  194.4540 C.3   293  HIS293      0.0745
     98  CG        49.2390   37.4320  195.4760 C.ar  293  HIS293      0.0817
     99  ND1       48.8030   38.6950  195.1430 N.ar  293  HIS293     -0.2268
    100  CD2       49.2760   37.3900  196.8280 C.ar  293  HIS293      0.1154
    101  CE1       48.5870   39.3860  196.2470 C.ar  293  HIS293      0.1986
    102  NE2       48.8670   38.6170  197.2840 N.ar  293  HIS293     -0.2212
    103  N         48.6140   33.2930  190.4380 N.3   295  ASN295     -0.1240
    104  CA        47.5910   33.5100  189.4460 C.3   295  ASN295      0.1653
    105  C         47.5690   32.2480  188.5970 C.2   295  ASN295      0.2266
    106  O         48.5410   31.9220  187.9010 O.2   295  ASN295     -0.2867
    107  CB        47.9440   34.7260  188.6370 C.3   295  ASN295      0.1155
    108  CG        48.0260   35.9400  189.4900 C.2   295  ASN295      0.2627
    109  OD1       47.0700   36.7020  189.6000 O.2   295  ASN295     -0.2716
    110  ND2       49.1620   36.1190  190.1400 N.am  295  ASN295     -0.0877
    111  N         45.5630   29.6650  185.7630 N.3   297  SER297     -0.1217
    112  CA        44.7410   29.6880  184.5520 C.3   297  SER297      0.1889
    113  C         44.9920   28.4110  183.7590 C.2   297  SER297      0.2288
    114  O         45.9820   27.7230  184.0000 O.2   297  SER297     -0.2866
    115  CB        45.0930   30.8970  183.6940 C.3   297  SER297      0.2089
    116  OG        46.4370   30.8150  183.2650 O.3   297  SER297     -0.2183
    117  N         41.9130   30.6930  176.8230 N.3   305  ASN305     -0.1240
    118  CA        42.2410   30.9100  178.2170 C.3   305  ASN305      0.1653
    119  C         41.4770   29.9180  179.0640 C.2   305  ASN305      0.2266
    120  O         41.9400   29.5190  180.1210 O.2   305  ASN305     -0.2867
    121  CB        41.8750   32.3270  178.6330 C.3   305  ASN305      0.1155
    122  CG        42.2320   32.6160  180.0710 C.2   305  ASN305      0.2627
    123  OD1       41.7650   31.9400  180.9850 O.2   305  ASN305     -0.2716
    124  ND2       43.0670   33.6270  180.2820 N.am  305  ASN305     -0.0877
    125  N         40.6950   42.7350  196.4490 N.3   378  ARG378     -0.1245
    126  CA        41.5320   41.8090  197.2070 C.3   378  ARG378      0.1563
    127  C         40.7720   41.2890  198.4220 C.2   378  ARG378      0.2260
    128  O         39.6080   40.9030  198.3170 O.2   378  ARG378     -0.2867
    129  CB        42.8230   42.5010  197.6640 C.3   378  ARG378      0.0307
    130  CG        43.7750   42.8950  196.5410 C.3   378  ARG378      0.0489
    131  CD        43.2170   44.0230  195.6890 C.3   378  ARG378      0.2205
    132  NE        44.1540   44.4280  194.6440 N.pl3 378  ARG378     -0.0865
    133  CZ        43.9320   45.4140  193.7810 C.cat 378  ARG378      0.5346
    134  NH1       42.8000   46.1020  193.8340 N.pl3 378  ARG378      0.1354
    135  NH2       44.8430   45.7120  192.8650 N.pl3 378  ARG378      0.1354
    136  N         40.0690   36.6580  183.1520 N.3   387  ASN387     -0.1225
    137  CA        40.7900   35.6650  182.3790 C.3   387  ASN387      0.1785
    138  C         41.8910   35.0410  183.2290 C.2   387  ASN387      0.2597
    139  O         43.0330   35.0080  182.8020 O.2   387  ASN387     -0.2718
    140  CB        41.3850   36.2940  181.1060 C.3   387  ASN387      0.1169
    141  CG        42.3530   37.4320  181.3990 C.2   387  ASN387      0.2627
    142  OD1       43.4220   37.2260  181.9740 O.2   387  ASN387     -0.2716
    143  ND2       41.9780   38.6420  181.0000 N.am  387  ASN387     -0.0877
    144  N         41.5260   34.5700  184.4320 N.am  388  ARG388     -0.1979
    145  CA        42.4290   33.9080  185.4090 C.3   388  ARG388      0.1597
    146  C         41.9890   34.0760  186.8730 C.2   388  ARG388      0.2287
    147  O         41.3240   35.0500  187.2190 O.2   388  ARG388     -0.2864
    148  CB        43.8500   34.4510  185.3210 C.3   388  ARG388      0.0334
    149  CG        44.0170   35.8260  185.9690 C.3   388  ARG388      0.0492
    150  CD        45.4810   36.1030  186.2690 C.3   388  ARG388      0.2205
    151  NE        45.7090   37.4040  186.8950 N.pl3 388  ARG388     -0.0865
    152  CZ        45.4830   38.5720  186.3040 C.cat 388  ARG388      0.5346
    153  NH1       45.7260   39.6980  186.9600 N.pl3 388  ARG388      0.1354
    154  NH2       45.0140   38.6130  185.0640 N.pl3 388  ARG388      0.1354
    155  N         43.2390   34.2820  191.0330 N.3   390  GLU390     -0.1245
    156  CA        44.4210   34.5850  191.8380 C.3   390  GLU390      0.1567
    157  C         44.2670   33.9700  193.2250 C.2   390  GLU390      0.2260
    158  O         43.2800   34.2400  193.9070 O.2   390  GLU390     -0.2867
    159  CB        44.6140   36.0920  191.9630 C.3   390  GLU390      0.0388
    160  CG        45.9760   36.4600  192.5230 C.3   390  GLU390      0.1160
    161  CD        46.1870   37.9580  192.6500 C.2   390  GLU390      0.3649
    162  OE1       45.8460   38.7020  191.7020 O.co2 390  GLU390     -0.2457
    163  OE2       46.7080   38.3910  193.6980 O.co2 390  GLU390     -0.2457
    164  N         45.5910   34.1250  196.6650 N.3   392  ARG392     -0.1245
    165  CA        46.3720   34.8970  197.6290 C.3   392  ARG392      0.1563
    166  C         46.8280   34.2360  198.9180 C.2   392  ARG392      0.2260
    167  O         47.8100   34.6660  199.5000 O.2   392  ARG392     -0.2867
    168  CB        45.6120   36.1830  197.9760 C.3   392  ARG392      0.0307
    169  CG        45.3370   37.0700  196.7730 C.3   392  ARG392      0.0489
    170  CD        44.6550   38.3680  197.1670 C.3   392  ARG392      0.2205
    171  NE        44.5140   39.2770  196.0290 N.pl3 392  ARG392     -0.0865
    172  CZ        43.8000   39.0130  194.9360 C.cat 392  ARG392      0.5346
    173  NH1       43.1520   37.8610  194.8240 N.pl3 392  ARG392      0.1354
    174  NH2       43.7360   39.9020  193.9500 N.pl3 392  ARG392      0.1354
@<TRIPOS>BOND
     1   117   118    1
     2   118   121    1
     3   118   119    1
     4   121   122    1
     5   119   120    2
     6    92    91   ar
     7    92    90   ar
     8    91    89   ar
     9    81    79    1
    10   122   124   am
    11   122   123    2
    12     8     6   am
    13    90    88   ar
    14    80    78    1
    15     7     6    2
    16   143   141   am
    17   140   141    1
    18   140   137    1
    19    89    87   ar
    20     6     5    1
    21    79    78    1
    22   141   142    2
    23    78    75    1
    24    85    84    2
    25    88    87   ar
    26    87    86    1
    27   137   136    1
    28   137   138    1
    29     5     2    1
    30    84    83    1
    31   139   138    2
    32    75    76    1
    33    75    74    1
    34   138   144   am
    35    76    82   am
    36    76    77    2
    37   116   115    1
    38    82    83    1
    39     1     2    1
    40    86    83    1
    41     2     3    1
    42   115   112    1
    43   113   114    2
    44   113   112    1
    45    74    69   am
    46   144   145    1
    47   112   111    1
    48     3     4    2
    49    69    70    2
    50    69    68    1
    51   154   152    1
    52   148   145    1
    53   148   149    1
    54   145   146    1
    55    68    71    1
    56    68    67    1
    57    71    72    1
    58   149   150    1
    59    42    40    1
    60    36    37    1
    61   150   151    1
    62   152   151    2
    63   152   153    1
    64   146   147    2
    65    72    73    1
    66    37    40    1
    67    37    38    1
    68    65    64    2
    69    67    64   am
    70    67    73    1
    71     9    10    1
    72    10    11    1
    73    40    41    1
    74    64    63    1
    75   106   105    2
    76    38    39    2
    77   105   104    1
    78   107   104    1
    79   107   108    1
    80    11    13   am
    81    11    12    2
    82    63    66    1
    83    63    62    1
    84    21    19   ar
    85    21    22   ar
    86    13    14    1
    87   104   103    1
    88   108   109    2
    89   108   110   am
    90    24    22   ar
    91    24    26   ar
    92    19    18   ar
    93    22    20   ar
    94    16    15    2
    95    26    25   ar
    96    18    20   ar
    97    18    17    1
    98    20    23   ar
    99    14    15    1
   100    14    17    1
   101    15    27   am
   102    25    23   ar
   103   155   156    1
   104   162   161   ar
   105    32    33    1
   106    32    31    1
   107    35    33   ar
   108   156   159    1
   109   156   157    1
   110   159   160    1
   111    33    34   ar
   112    43    44    1
   113    50    48   ar
   114    50    52   ar
   115    27    28    1
   116    47    44    1
   117    47    48    1
   118    60    59   ar
   119   160   161    1
   120    28    31    1
   121    28    29    1
   122   161   163   ar
   123    44    45    1
   124    61    59   ar
   125    48    49   ar
   126   135   133    1
   127    59    58    1
   128    52    51   ar
   129   157   158    2
   130    96    95    2
   131    56    55    2
   132    55    54    1
   133   133   134    1
   134   133   132    2
   135    29    30    2
   136   174   172    1
   137    95    94    1
   138    58    57    1
   139    49    51   ar
   140    45    46    2
   141    97    94    1
   142    97    98    1
   143   132   131    1
   144    57    54    1
   145   173   172    1
   146   172   171    2
   147    54    53    1
   148    94    93    1
   149    99    98   ar
   150    99   101   ar
   151    98   100   ar
   152   131   130    1
   153   171   170    1
   154   101   102   ar
   155   125   126    1
   156   130   129    1
   157   164   165    1
   158   169   170    1
   159   169   168    1
   160   100   102   ar
   161   126   129    1
   162   126   127    1
   163   165   168    1
   164   165   166    1
   165   128   127    2
   166   166   167    2
