@<TRIPOS>MOLECULE
tmp/3o71A00.pdb
 154 150 0 0 0
SMALL
GASTEIGER

@<TRIPOS>ATOM
      1  N        -23.4230   -6.9250   10.6420 N.3    99  GLU99      -0.1231
      2  CA       -24.2690   -7.6910    9.7190 C.3    99  GLU99       0.1699
      3  C        -25.2910   -8.6090   10.3890 C.2    99  GLU99       0.2592
      4  O        -26.3480   -8.8830    9.8220 O.2    99  GLU99      -0.2718
      5  CB       -23.4030   -8.4940    8.7420 C.3    99  GLU99       0.0402
      6  CG       -22.7630   -7.6560    7.6290 C.3    99  GLU99       0.1161
      7  CD       -21.4270   -7.0320    8.0220 C.2    99  GLU99       0.3649
      8  OE1      -21.1930   -6.7780    9.2240 O.co2  99  GLU99      -0.2457
      9  OE2      -20.6020   -6.7910    7.1170 O.co2  99  GLU99      -0.2457
     10  N        -24.9790   -9.0790   11.5930 N.am  100  THR100     -0.1953
     11  CA       -25.8100  -10.0750   12.2580 C.3   100  THR100      0.1897
     12  C        -25.6590   -9.9730   13.7830 C.2   100  THR100      0.2313
     13  O        -25.0330   -9.0400   14.2910 O.2   100  THR100     -0.2863
     14  CB       -25.4870  -11.5140   11.7140 C.3   100  THR100      0.1794
     15  OG1      -26.5490  -12.4200   12.0370 O.3   100  THR100     -0.2208
     16  CG2      -24.1520  -12.0470   12.2570 C.3   100  THR100      0.0378
     17  N        -27.1500  -15.9040   14.3560 N.3   105  LEU105     -0.1245
     18  CA       -26.0440  -16.7700   13.9780 C.3   105  LEU105      0.1561
     19  C        -26.2520  -18.1960   14.4840 C.2   105  LEU105      0.2260
     20  O        -26.0290  -19.1570   13.7440 O.2   105  LEU105     -0.2867
     21  CB       -24.7230  -16.1890   14.4910 C.3   105  LEU105      0.0270
     22  CG       -23.3770  -16.7030   13.9620 C.3   105  LEU105      0.0019
     23  CD1      -22.9650  -17.9740   14.6700 C.3   105  LEU105      0.0001
     24  CD2      -23.3800  -16.8920   12.4400 C.3   105  LEU105      0.0001
     25  N        -28.6610  -20.4590   12.6380 N.3   108  THR108     -0.1203
     26  CA       -28.2550  -20.8320   11.2830 C.3   108  THR108      0.1994
     27  C        -27.0270  -21.7460   11.1890 C.2   108  THR108      0.2617
     28  O        -26.8420  -22.4130   10.1710 O.2   108  THR108     -0.2717
     29  CB       -27.9950  -19.5870   10.4090 C.3   108  THR108      0.1784
     30  OG1      -26.9500  -18.8050   10.9940 O.3   108  THR108     -0.2211
     31  CG2      -29.2530  -18.7330   10.2850 C.3   108  THR108      0.0376
     32  N        -26.1790  -21.7650   12.2170 N.am  109  GLN109     -0.1979
     33  CA       -24.9720  -22.6080   12.1640 C.3   109  GLN109      0.1601
     34  C        -24.4000  -23.0290   13.5140 C.2   109  GLN109      0.2287
     35  O        -24.5860  -22.3490   14.5220 O.2   109  GLN109     -0.2864
     36  CB       -23.8770  -21.9560   11.3020 C.3   109  GLN109      0.0394
     37  CG       -23.3330  -20.6370   11.8320 C.3   109  GLN109      0.0908
     38  CD       -22.5010  -19.8920   10.7980 C.2   109  GLN109      0.2608
     39  OE1      -21.2990  -19.6990   10.9760 O.2   109  GLN109     -0.2717
     40  NE2      -23.1410  -19.4710    9.7110 N.am  109  GLN109     -0.0878
     41  N        -21.2050  -23.4850   15.8600 N.3   111  LEU111     -0.1245
     42  CA       -19.9260  -22.8000   16.0110 C.3   111  LEU111      0.1561
     43  C        -18.7940  -23.7440   16.3840 C.2   111  LEU111      0.2260
     44  O        -18.9550  -24.6000   17.2560 O.2   111  LEU111     -0.2867
     45  CB       -20.0260  -21.6990   17.0710 C.3   111  LEU111      0.0270
     46  CG       -20.8170  -20.4410   16.7300 C.3   111  LEU111      0.0019
     47  CD1      -20.8680  -19.5180   17.9430 C.3   111  LEU111      0.0001
     48  CD2      -20.1850  -19.7420   15.5350 C.3   111  LEU111      0.0001
     49  N        -13.0730  -22.6670   18.1950 N.3   114  ASP114     -0.1225
     50  CA       -12.3010  -21.4450   17.9340 C.3   114  ASP114      0.1805
     51  C        -13.1780  -20.1890   17.9550 C.2   114  ASP114      0.2597
     52  O        -12.8090  -19.1820   18.5580 O.2   114  ASP114     -0.2718
     53  CB       -11.5300  -21.5420   16.6080 C.3   114  ASP114      0.1424
     54  CG       -10.2890  -22.4190   16.7100 C.2   114  ASP114      0.3668
     55  OD1       -9.8190  -22.6740   17.8400 O.co2 114  ASP114     -0.2456
     56  OD2       -9.7780  -22.8510   15.6530 O.co2 114  ASP114     -0.2456
     57  N        -14.3380  -20.2600   17.3040 N.am  115  HIS115     -0.1975
     58  CA       -15.2930  -19.1500   17.3050 C.3   115  HIS115      0.1656
     59  C        -15.8900  -18.8980   18.6870 C.2   115  HIS115      0.2291
     60  O        -15.9950  -17.7510   19.1090 O.2   115  HIS115     -0.2864
     61  CB       -16.4090  -19.3760   16.2850 C.3   115  HIS115      0.0771
     62  CG       -15.9750  -19.1680   14.8710 C.ar  115  HIS115      0.0820
     63  ND1      -15.7240  -20.2130   14.0100 N.ar  115  HIS115     -0.2267
     64  CD2      -15.7220  -18.0360   14.1730 C.ar  115  HIS115      0.1154
     65  CE1      -15.3470  -19.7340   12.8380 C.ar  115  HIS115      0.1986
     66  NE2      -15.3380  -18.4150   12.9110 N.ar  115  HIS115     -0.2212
     67  N        -13.2250  -17.1800   20.8630 N.3   118  TYR118     -0.1227
     68  CA       -13.0040  -15.7990   20.4460 C.3   118  TYR118      0.1736
     69  C        -14.1800  -14.8870   20.7860 C.2   118  TYR118      0.2595
     70  O        -13.9790  -13.7350   21.1800 O.2   118  TYR118     -0.2718
     71  CB       -12.7040  -15.7360   18.9480 C.3   118  TYR118      0.0548
     72  CG       -12.2690  -14.3760   18.4570 C.ar  118  TYR118     -0.0200
     73  CD1      -11.2590  -13.6650   19.1100 C.ar  118  TYR118     -0.0009
     74  CD2      -12.8470  -13.8100   17.3220 C.ar  118  TYR118     -0.0009
     75  CE1      -10.8430  -12.4110   18.6490 C.ar  118  TYR118      0.0417
     76  CE2      -12.4370  -12.5620   16.8500 C.ar  118  TYR118      0.0417
     77  CZ       -11.4350  -11.8690   17.5190 C.ar  118  TYR118      0.1957
     78  OH       -11.0280  -10.6350   17.0610 O.3   118  TYR118     -0.2866
     79  N        -15.3970  -15.4010   20.6140 N.am  119  PHE119     -0.1976
     80  CA       -16.6040  -14.6540   20.9660 C.3   119  PHE119      0.1639
     81  C        -16.6980  -14.4450   22.4680 C.2   119  PHE119      0.2290
     82  O        -16.9950  -13.3380   22.9170 O.2   119  PHE119     -0.2864
     83  CB       -17.8750  -15.3490   20.4660 C.3   119  PHE119      0.0560
     84  CG       -18.0600  -15.3040   18.9680 C.ar  119  PHE119     -0.0200
     85  CD1      -17.4960  -14.2860   18.2020 C.ar  119  PHE119     -0.0042
     86  CD2      -18.8350  -16.2670   18.3320 C.ar  119  PHE119     -0.0042
     87  CE1      -17.6790  -14.2510   16.8160 C.ar  119  PHE119     -0.0003
     88  CE2      -19.0310  -16.2380   16.9500 C.ar  119  PHE119     -0.0003
     89  CZ       -18.4510  -15.2320   16.1930 C.ar  119  PHE119     -0.0000
     90  N        -22.5490   -8.9220   15.6610 N.3   147  LEU147     -0.1231
     91  CA       -21.4120   -9.5560   15.0030 C.3   147  LEU147      0.1693
     92  C        -21.2790   -9.0520   13.5810 C.2   147  LEU147      0.2592
     93  O        -22.2790   -8.7160   12.9410 O.2   147  LEU147     -0.2718
     94  CB       -21.5770  -11.0820   14.9820 C.3   147  LEU147      0.0284
     95  CG       -21.7800  -11.8130   16.3110 C.3   147  LEU147      0.0019
     96  CD1      -22.2780  -13.2330   16.0770 C.3   147  LEU147      0.0001
     97  CD2      -20.4940  -11.8220   17.1140 C.3   147  LEU147      0.0001
     98  N        -20.0410   -8.9940   13.1000 N.am  148  ASN148     -0.1960
     99  CA       -19.7740   -8.7430   11.6870 C.3   148  ASN148      0.1819
    100  C        -19.0700   -9.9340   11.0350 C.2   148  ASN148      0.2622
    101  O        -18.7320  -10.9100   11.7130 O.2   148  ASN148     -0.2715
    102  CB       -19.0200   -7.4130   11.4740 C.3   148  ASN148      0.1195
    103  CG       -17.6180   -7.4050   12.0750 C.2   148  ASN148      0.2630
    104  OD1      -16.9840   -8.4460   12.2650 O.2   148  ASN148     -0.2716
    105  ND2      -17.1200   -6.2090   12.3560 N.am  148  ASN148     -0.0877
    106  N        -18.8520   -9.8490    9.7250 N.am  149  THR149     -0.1937
    107  CA       -18.2770  -10.9490    8.9500 C.3   149  THR149      0.2028
    108  C        -16.8390  -11.3040    9.3470 C.2   149  THR149      0.2643
    109  O        -16.3770  -12.4170    9.0860 O.2   149  THR149     -0.2714
    110  CB       -18.3330  -10.6560    7.4330 C.3   149  THR149      0.1808
    111  OG1      -17.8640   -9.3250    7.1860 O.3   149  THR149     -0.2208
    112  CG2      -19.7570  -10.7840    6.9130 C.3   149  THR149      0.0379
    113  N        -16.1410  -10.3640    9.9780 N.am  150  THR150     -0.1936
    114  CA       -14.7630  -10.5950   10.4160 C.3   150  THR150      0.2028
    115  C        -14.6790  -10.9800   11.9000 C.2   150  THR150      0.2642
    116  O        -13.6210  -10.8630   12.5240 O.2   150  THR150     -0.2714
    117  CB       -13.8570   -9.3840   10.1170 C.3   150  THR150      0.1808
    118  OG1      -14.4620   -8.1950   10.6360 O.3   150  THR150     -0.2208
    119  CG2      -13.6420   -9.2300    8.6100 C.3   150  THR150      0.0379
    120  N        -15.8070  -11.4300   12.4490 N.am  151  CYS151     -0.1953
    121  CA       -15.8890  -11.9780   13.8120 C.3   151  CYS151      0.1843
    122  C        -15.6950  -10.9790   14.9570 C.2   151  CYS151      0.2625
    123  O        -15.4790  -11.3720   16.1070 O.2   151  CYS151     -0.2714
    124  CB       -14.9540  -13.1870   13.9760 C.3   151  CYS151      0.0997
    125  SG       -15.3060  -14.5350   12.8260 S.3   151  CYS151     -0.0797
    126  N        -15.7940   -9.6880   14.6520 N.am  152  ASP152     -0.1971
    127  CA       -15.8280   -8.6670   15.6950 C.3   152  ASP152      0.1709
    128  C        -17.1730   -8.7200   16.4230 C.2   152  ASP152      0.2293
    129  O        -18.2160   -8.8680   15.7890 O.2   152  ASP152     -0.2864
    130  CB       -15.5930   -7.2760   15.1050 C.3   152  ASP152      0.1436
    131  CG       -14.2960   -7.1850   14.3180 C.2   152  ASP152      0.3671
    132  OD1      -13.2150   -7.4220   14.9040 O.co2 152  ASP152     -0.2456
    133  OD2      -14.3610   -6.8790   13.1090 O.co2 152  ASP152     -0.2456
    134  N         -5.2200  -18.0340   24.9320 N.3   299  GLN299     -0.1231
    135  CA        -4.8450  -17.6270   23.5780 C.3   299  GLN299      0.1698
    136  C         -4.9660  -16.1140   23.3680 C.2   299  GLN299      0.2592
    137  O         -4.1630  -15.5140   22.6510 O.2   299  GLN299     -0.2718
    138  CB        -5.7360  -18.3570   22.5710 C.3   299  GLN299      0.0381
    139  CG        -5.2520  -18.3430   21.1320 C.3   299  GLN299      0.0905
    140  CD        -6.2170  -19.0480   20.1880 C.2   299  GLN299      0.2608
    141  OE1       -6.4260  -18.6090   19.0570 O.2   299  GLN299     -0.2717
    142  NE2       -6.8130  -20.1440   20.6520 N.am  299  GLN299     -0.0878
    143  N         -5.9660  -15.5070   24.0080 N.am  300  TYR300     -0.1976
    144  CA        -6.3020  -14.1010   23.7820 C.3   300  TYR300      0.1639
    145  C         -5.9920  -13.1630   24.9440 C.2   300  TYR300      0.2290
    146  O         -5.7800  -11.9730   24.7300 O.2   300  TYR300     -0.2864
    147  CB        -7.7800  -13.9710   23.3940 C.3   300  TYR300      0.0560
    148  CG        -8.1350  -14.7190   22.1310 C.ar  300  TYR300     -0.0198
    149  CD1       -7.6480  -14.2960   20.8920 C.ar  300  TYR300     -0.0009
    150  CD2       -8.9430  -15.8560   22.1720 C.ar  300  TYR300     -0.0009
    151  CE1       -7.9560  -14.9820   19.7260 C.ar  300  TYR300      0.0417
    152  CE2       -9.2630  -16.5490   21.0060 C.ar  300  TYR300      0.0417
    153  CZ        -8.7660  -16.0990   19.7860 C.ar  300  TYR300      0.1957
    154  OH        -9.0650  -16.7660   18.6240 O.3   300  TYR300     -0.2866
@<TRIPOS>BOND
     1   112   110    1
     2     9     7   ar
     3   111   110    1
     4   110   107    1
     5     6     7    1
     6     6     5    1
     7     7     8   ar
     8   119   117    1
     9     5     2    1
    10   107   108    1
    11   107   106    1
    12   109   108    2
    13   108   113   am
    14    40    38   am
    15     2     3    1
    16     2     1    1
    17   106   100   am
    18     4     3    2
    19   113   114    1
    20   117   114    1
    21   117   118    1
    22    28    27    2
    23    31    29    1
    24     3    10   am
    25    29    30    1
    26    29    26    1
    27   114   115    1
    28    38    39    2
    29    38    37    1
    30   100    99    1
    31   100   101    2
    32    27    26    1
    33    27    32   am
    34    26    25    1
    35    36    37    1
    36    36    33    1
    37   102    99    1
    38   102   103    1
    39    10    11    1
    40    99    98    1
    41    14    15    1
    42    14    16    1
    43    14    11    1
    44   115   120   am
    45   115   116    2
    46   103   104    2
    47   103   105   am
    48    33    32    1
    49    33    34    1
    50    11    12    1
    51    24    22    1
    52   120   121    1
    53   125   124    1
    54    65    66   ar
    55    65    63   ar
    56    66    64   ar
    57    93    92    2
    58    98    92   am
    59   133   131   ar
    60    34    35    2
    61    92    91    1
    62    20    19    2
    63    12    13    2
    64   121   124    1
    65   121   122    1
    66    22    21    1
    67    22    23    1
    68    18    17    1
    69    18    19    1
    70    18    21    1
    71    63    62   ar
    72    64    62   ar
    73   131   132   ar
    74   131   130    1
    75   126   122   am
    76   126   127    1
    77    62    61    1
    78   122   123    2
    79    94    91    1
    80    94    95    1
    81    91    90    1
    82   130   127    1
    83    48    46    1
    84    56    54   ar
    85   127   128    1
    86   129   128    2
    87    41    42    1
    88    42    43    1
    89    42    45    1
    90    96    95    1
    91    89    87   ar
    92    89    88   ar
    93    61    58    1
    94    95    97    1
    95    43    44    2
    96    53    54    1
    97    53    50    1
    98    54    55   ar
    99    46    45    1
   100    46    47    1
   101    87    85   ar
   102    76    74   ar
   103    76    77   ar
   104    88    86   ar
   105    78    77    1
   106    57    58    1
   107    57    51   am
   108    58    59    1
   109    74    72   ar
   110    77    75   ar
   111    50    51    1
   112    50    49    1
   113    51    52    2
   114    85    84   ar
   115    86    84   ar
   116    72    71    1
   117    72    73   ar
   118   154   153    1
   119    75    73   ar
   120    59    60    2
   121    71    68    1
   122    84    83    1
   123   141   140    2
   124   151   153   ar
   125   151   149   ar
   126   153   152   ar
   127   140   142   am
   128   140   139    1
   129    68    69    1
   130    68    67    1
   131    83    80    1
   132    79    69   am
   133    79    80    1
   134    69    70    2
   135   149   148   ar
   136    80    81    1
   137   152   150   ar
   138   139   138    1
   139   148   150   ar
   140   148   147    1
   141    81    82    2
   142   138   135    1
   143   137   136    2
   144   136   135    1
   145   136   143   am
   146   147   144    1
   147   135   134    1
   148   144   143    1
   149   144   145    1
   150   146   145    2
