@<TRIPOS>MOLECULE
tmp/3o73B02.pdb
 90 88 0 0 0
SMALL
GASTEIGER

@<TRIPOS>ATOM
      1  N         19.3300   12.0480   14.7540 N.3   105  TRP105     -0.1227
      2  CA        18.5130   12.6590   13.6660 C.3   105  TRP105      0.1737
      3  C         17.3060   13.4200   14.1860 C.2   105  TRP105      0.2595
      4  O         16.1170   13.1580   13.7310 O.2   105  TRP105     -0.2718
      5  CB        18.0310   11.6090   12.6130 C.3   105  TRP105      0.0564
      6  CG        19.2020   11.0090   11.9120 C.ar  105  TRP105      0.0003
      7  CD1       19.5350    9.6820   11.8600 C.ar  105  TRP105      0.0946
      8  CD2       20.2420   11.7200   11.2050 C.ar  105  TRP105      0.0152
      9  NE1       20.7350    9.5330   11.1720 N.ar  105  TRP105     -0.2442
     10  CE2       21.1760   10.7630   10.7570 C.ar  105  TRP105      0.0810
     11  CE3       20.4520   13.0750   10.8820 C.ar  105  TRP105      0.0012
     12  CZ2       22.3320   11.1160    9.9870 C.ar  105  TRP105      0.0191
     13  CZ3       21.6230   13.4380   10.1360 C.ar  105  TRP105      0.0001
     14  CH2       22.5390   12.4510    9.7020 C.ar  105  TRP105      0.0015
     15  N         17.5730   14.3320   15.1280 N.am  106  PHE106     -0.1976
     16  CA        16.4890   15.1900   15.7250 C.3   106  PHE106      0.1639
     17  C         15.3730   14.4320   16.4020 C.2   106  PHE106      0.2290
     18  O         14.2580   14.9910   16.6120 O.2   106  PHE106     -0.2864
     19  CB        15.8490   16.1140   14.6220 C.3   106  PHE106      0.0560
     20  CG        16.6220   17.4230   14.3640 C.ar  106  PHE106     -0.0200
     21  CD1       17.9900   17.4230   14.3510 C.ar  106  PHE106     -0.0042
     22  CD2       15.9570   18.6180   14.0640 C.ar  106  PHE106     -0.0042
     23  CE1       18.7220   18.6260   14.0920 C.ar  106  PHE106     -0.0003
     24  CE2       16.6810   19.8030   13.8430 C.ar  106  PHE106     -0.0003
     25  CZ        18.0590   19.8000   13.8490 C.ar  106  PHE106     -0.0000
     26  N         24.7300   16.0900   20.2210 N.3   149  GLY149     -0.1210
     27  CA        26.0300   16.5170   19.6330 C.3   149  GLY149      0.1956
     28  C         26.1160   18.0390   19.3780 C.2   149  GLY149      0.2612
     29  O         27.1330   18.6680   19.6260 O.2   149  GLY149     -0.2717
     30  N         25.0600   18.6480   18.8910 N.am  150  GLY150     -0.1956
     31  CA        25.0070   20.1130   18.8380 C.3   150  GLY150      0.1869
     32  C         25.0290   20.8990   20.1550 C.2   150  GLY150      0.2309
     33  O         24.4430   20.4810   21.1620 O.2   150  GLY150     -0.2863
     34  N         24.0090   26.3160   18.3340 N.3   154  MET154     -0.1230
     35  CA        23.4280   25.6680   17.1550 C.3   154  MET154      0.1702
     36  C         21.9130   25.5480   17.3320 C.2   154  MET154      0.2592
     37  O         21.1560   25.9240   16.4180 O.2   154  MET154     -0.2718
     38  CB        24.0870   24.3060   16.8810 C.3   154  MET154      0.0401
     39  CG        25.5140   24.4440   16.3780 C.3   154  MET154      0.0596
     40  SD        26.4850   22.9390   16.6210 S.3   154  MET154     -0.1393
     41  CE        28.1580   23.5250   17.0220 C.3   154  MET154      0.0692
     42  N         21.4820   25.1220   18.5260 N.am  155  TYR155     -0.1976
     43  CA        20.0370   24.9640   18.8520 C.3   155  TYR155      0.1639
     44  C         19.2730   26.2190   19.3300 C.2   155  TYR155      0.2290
     45  O         18.4890   26.1820   20.2980 O.2   155  TYR155     -0.2864
     46  CB        19.7900   23.7610   19.8110 C.3   155  TYR155      0.0560
     47  CG        19.9830   22.3900   19.1710 C.ar  155  TYR155     -0.0198
     48  CD1       18.9920   21.8140   18.3440 C.ar  155  TYR155     -0.0009
     49  CD2       21.1880   21.6950   19.3400 C.ar  155  TYR155     -0.0009
     50  CE1       19.1990   20.5290   17.7460 C.ar  155  TYR155      0.0417
     51  CE2       21.3930   20.4630   18.7650 C.ar  155  TYR155      0.0417
     52  CZ        20.4160   19.8830   17.9640 C.ar  155  TYR155      0.1957
     53  OH        20.6640   18.6420   17.3970 O.3   155  TYR155     -0.2866
     54  N         21.9800   26.9700   13.4700 N.3   160  VAL160     -0.1231
     55  CA        21.8980   26.1520   12.2760 C.3   160  VAL160      0.1692
     56  C         20.7870   25.0550   12.4200 C.2   160  VAL160      0.2592
     57  O         20.0960   24.6880   11.4240 O.2   160  VAL160     -0.2718
     58  CB        23.3450   25.6640   12.0190 C.3   160  VAL160      0.0266
     59  CG1       23.6060   24.1670   12.4670 C.3   160  VAL160      0.0020
     60  CG2       23.8590   26.0960   10.6520 C.3   160  VAL160      0.0020
     61  N         20.5720   24.6080   13.6640 N.am  161  ASN161     -0.1974
     62  CA        19.5310   23.6280   13.9540 C.3   161  ASN161      0.1688
     63  C         18.1610   24.1720   14.3110 C.2   161  ASN161      0.2292
     64  O         17.2610   23.4000   14.5730 O.2   161  ASN161     -0.2864
     65  CB        19.9360   22.7150   15.0890 C.3   161  ASN161      0.1181
     66  CG        21.2010   21.9680   14.8240 C.2   161  ASN161      0.2629
     67  OD1       22.0170   21.8300   15.7330 O.2   161  ASN161     -0.2716
     68  ND2       21.3940   21.4950   13.5920 N.am  161  ASN161     -0.0877
     69  N         25.9390   18.7670   23.8360 N.3   191  ALA191     -0.1245
     70  CA        27.3190   18.5290   23.4420 C.3   191  ALA191      0.1562
     71  C         28.2080   18.1440   24.6390 C.2   191  ALA191      0.2260
     72  O         29.0780   18.9310   25.0090 O.2   191  ALA191     -0.2867
     73  CB        27.8820   19.7890   22.7330 C.3   191  ALA191      0.0290
     74  N         30.3730   15.6360   24.4860 N.3   193  GLU193     -0.1231
     75  CA        31.6810   15.2100   23.9320 C.3   193  GLU193      0.1699
     76  C         32.5690   16.4490   23.6850 C.2   193  GLU193      0.2592
     77  O         33.7870   16.3940   23.8150 O.2   193  GLU193     -0.2718
     78  CB        31.4970   14.3230   22.6760 C.3   193  GLU193      0.0402
     79  CG        30.3910   13.2060   22.8280 C.3   193  GLU193      0.1161
     80  CD        29.9310   12.5520   21.5000 C.2   193  GLU193      0.3649
     81  OE1       28.9570   13.0590   20.8550 O.co2 193  GLU193     -0.2457
     82  OE2       30.5310   11.4980   21.1350 O.co2 193  GLU193     -0.2457
     83  N         31.9280   17.5740   23.3840 N.am  194  ILE194     -0.1980
     84  CA        32.6090   18.8580   23.1650 C.3   194  ILE194      0.1595
     85  C         32.8050   19.6290   24.4970 C.2   194  ILE194      0.2287
     86  O         33.7810   20.3690   24.6760 O.2   194  ILE194     -0.2864
     87  CB        31.8870   19.7170   22.0590 C.3   194  ILE194      0.0276
     88  CG1       31.8240   18.9330   20.7330 C.3   194  ILE194      0.0022
     89  CG2       32.5560   21.0720   21.8790 C.3   194  ILE194      0.0022
     90  CD1       31.8740   19.7740   19.4380 C.3   194  ILE194      0.0001
@<TRIPOS>BOND
     1    14    12   ar
     2    14    13   ar
     3    12    10   ar
     4    13    11   ar
     5    60    58    1
     6    10     9   ar
     7    10     8   ar
     8    11     8   ar
     9     9     7   ar
    10     8     6   ar
    11    57    56    2
    12     7     6   ar
    13     6     5    1
    14    58    55    1
    15    58    59    1
    16    55    56    1
    17    55    54    1
    18    56    61   am
    19     5     2    1
    20    68    66   am
    21    61    62    1
    22     2     3    1
    23     2     1    1
    24     4     3    2
    25    24    25   ar
    26    24    22   ar
    27    25    23   ar
    28    62    63    1
    29    62    65    1
    30    22    20   ar
    31    23    21   ar
    32     3    15   am
    33    63    64    2
    34    21    20   ar
    35    20    19    1
    36    19    16    1
    37    66    65    1
    38    66    67    2
    39    15    16    1
    40    16    17    1
    41    39    40    1
    42    39    38    1
    43    17    18    2
    44    37    36    2
    45    40    41    1
    46    38    35    1
    47    35    36    1
    48    35    34    1
    49    36    42   am
    50    53    52    1
    51    50    52   ar
    52    50    48   ar
    53    52    51   ar
    54    48    47   ar
    55    42    43    1
    56    51    49   ar
    57    31    30    1
    58    31    32    1
    59    43    44    1
    60    43    46    1
    61    30    28   am
    62    47    49   ar
    63    47    46    1
    64    44    45    2
    65    28    29    2
    66    28    27    1
    67    90    88    1
    68    27    26    1
    69    32    33    2
    70    88    87    1
    71    81    80   ar
    72    82    80   ar
    73    80    79    1
    74    89    87    1
    75    87    84    1
    76    78    79    1
    77    78    75    1
    78    73    70    1
    79    84    83    1
    80    84    85    1
    81    83    76   am
    82    70    69    1
    83    70    71    1
    84    76    77    2
    85    76    75    1
    86    75    74    1
    87    85    86    2
    88    71    72    2
