@<TRIPOS>MOLECULE
tmp/3o73B01.pdb
 122 118 0 0 0
SMALL
GASTEIGER

@<TRIPOS>ATOM
      1  N         -1.3170   -3.4010   11.1650 N.3    67  TYR67      -0.1227
      2  CA        -0.7690   -3.4010   12.5230 C.3    67  TYR67       0.1736
      3  C         -1.6400   -2.7050   13.5620 C.2    67  TYR67       0.2596
      4  O         -1.9560   -3.3010   14.5960 O.2    67  TYR67      -0.2718
      5  CB         0.6590   -2.8750   12.5280 C.3    67  TYR67       0.0548
      6  CG         1.4130   -3.1110   13.8230 C.ar   67  TYR67      -0.0200
      7  CD1        1.9810   -4.3600   14.1190 C.ar   67  TYR67      -0.0009
      8  CD2        1.6330   -2.0540   14.7270 C.ar   67  TYR67      -0.0009
      9  CE1        2.7070   -4.5510   15.3000 C.ar   67  TYR67       0.0417
     10  CE2        2.3510   -2.2420   15.9160 C.ar   67  TYR67       0.0417
     11  CZ         2.8760   -3.4840   16.1980 C.ar   67  TYR67       0.1957
     12  OH         3.6030   -3.6370   17.3460 O.3    67  TYR67      -0.2866
     13  N         -2.1190   -1.5060   13.2420 N.am   68  GLY68      -0.1957
     14  CA        -2.9770   -0.7390   14.1440 C.3    68  GLY68       0.1869
     15  C         -4.1880   -1.5210   14.5950 C.2    68  GLY68       0.2309
     16  O         -4.5150   -1.5340   15.7920 O.2    68  GLY68      -0.2863
     17  N         -3.0730   -5.1150   16.5510 N.3    71  THR71      -0.1218
     18  CA        -2.6440   -4.8680   17.9280 C.3    71  THR71       0.1862
     19  C         -3.7820   -4.3840   18.8390 C.2    71  THR71       0.2287
     20  O         -3.8980   -4.8380   19.9500 O.2    71  THR71      -0.2866
     21  CB        -1.3820   -3.9580   17.9990 C.3    71  THR71       0.1770
     22  OG1       -1.6240   -2.7600   17.2630 O.3    71  THR71      -0.2211
     23  CG2       -0.1990   -4.7070   17.3850 C.3    71  THR71       0.0375
     24  N          6.4190    2.6320   19.2830 N.3   117  ASP117     -0.1225
     25  CA         5.5020    2.1090   18.2400 C.3   117  ASP117      0.1805
     26  C          4.7660    0.8900   18.7440 C.2   117  ASP117      0.2597
     27  O          3.6040    0.7220   18.4790 O.2   117  ASP117     -0.2718
     28  CB         6.1830    1.7480   16.9360 C.3   117  ASP117      0.1424
     29  CG         6.7370    2.9640   16.1870 C.2   117  ASP117      0.3668
     30  OD1        6.4080    4.1460   16.5100 O.co2 117  ASP117     -0.2456
     31  OD2        7.5680    2.7480   15.2870 O.co2 117  ASP117     -0.2456
     32  N          5.4670    0.0400   19.4670 N.am  118  ARG118     -0.1979
     33  CA         4.9480   -1.2170   19.9290 C.3   118  ARG118      0.1597
     34  C          4.2880   -1.2370   21.3130 C.2   118  ARG118      0.2287
     35  O          3.3830   -1.9560   21.5050 O.2   118  ARG118     -0.2864
     36  CB         5.9980   -2.2940   19.8310 C.3   118  ARG118      0.0334
     37  CG         6.3100   -2.7340   18.4560 C.3   118  ARG118      0.0492
     38  CD         6.6660   -4.2210   18.3740 C.3   118  ARG118      0.2205
     39  NE         7.8010   -4.5220   19.1880 N.pl3 118  ARG118     -0.0865
     40  CZ         7.9780   -5.6110   19.9020 C.cat 118  ARG118      0.5346
     41  NH1        7.1210   -6.5850   19.9110 N.pl3 118  ARG118      0.1354
     42  NH2        9.0540   -5.6930   20.6290 N.pl3 118  ARG118      0.1354
     43  N          2.8490    1.4120   23.0520 N.3   120  LEU120     -0.1231
     44  CA         1.7800    2.3770   23.2610 C.3   120  LEU120      0.1693
     45  C          0.6590    2.1100   22.2920 C.2   120  LEU120      0.2592
     46  O          0.3530    2.9570   21.4310 O.2   120  LEU120     -0.2718
     47  CB         2.3610    3.8150   23.0270 C.3   120  LEU120      0.0284
     48  CG         3.5150    4.2750   23.9370 C.3   120  LEU120      0.0019
     49  CD1        4.0600    5.6190   23.4370 C.3   120  LEU120      0.0001
     50  CD2        3.0580    4.3780   25.3980 C.3   120  LEU120      0.0001
     51  N          0.0260    0.9300   22.3860 N.am  121  CYS121     -0.1956
     52  CA        -0.9470    0.5520   21.3850 C.3   121  CYS121      0.1843
     53  C         -2.3090    1.1510   21.7160 C.2   121  CYS121      0.2625
     54  O         -2.5140    1.6860   22.8250 O.2   121  CYS121     -0.2714
     55  CB        -0.9860   -0.9750   21.2370 C.3   121  CYS121      0.0997
     56  SG        -1.7250   -1.8400   22.5750 S.3   121  CYS121     -0.0797
     57  N         -3.2220    1.0830   20.7640 N.am  122  GLN122     -0.1977
     58  CA        -4.5910    1.4700   20.9880 C.3   122  GLN122      0.1601
     59  C         -5.2170    0.5330   22.0010 C.2   122  GLN122      0.2287
     60  O         -4.9480   -0.6800   21.9830 O.2   122  GLN122     -0.2864
     61  CB        -5.4150    1.4610   19.6930 C.3   122  GLN122      0.0394
     62  CG        -6.6070    2.4160   19.8300 C.3   122  GLN122      0.0908
     63  CD        -7.3690    2.6640   18.5580 C.2   122  GLN122      0.2608
     64  OE1       -7.0400    2.1280   17.5150 O.2   122  GLN122     -0.2717
     65  NE2       -8.4300    3.4680   18.6500 N.am  122  GLN122     -0.0878
     66  N         -4.1040    4.9700   24.4140 N.3   126  PHE126     -0.1241
     67  CA        -5.0540    5.9050   23.8910 C.3   126  PHE126      0.1605
     68  C         -6.1690    5.0740   23.2620 C.2   126  PHE126      0.2264
     69  O         -6.0380    3.8480   23.1060 O.2   126  PHE126     -0.2867
     70  CB        -4.4320    6.8190   22.8360 C.3   126  PHE126      0.0534
     71  CG        -4.0490    6.0960   21.5540 C.ar  126  PHE126     -0.0203
     72  CD1       -2.8600    5.3760   21.4580 C.ar  126  PHE126     -0.0042
     73  CD2       -4.9110    6.0860   20.4650 C.ar  126  PHE126     -0.0042
     74  CE1       -2.5150    4.7020   20.2770 C.ar  126  PHE126     -0.0003
     75  CE2       -4.5590    5.4270   19.2960 C.ar  126  PHE126     -0.0003
     76  CZ        -3.3930    4.7270   19.2240 C.ar  126  PHE126     -0.0000
     77  N         -9.8670    6.0050   20.4190 N.3   128  ILE128     -0.1245
     78  CA       -10.5600    6.9690   19.5830 C.3   128  ILE128      0.1561
     79  C        -12.0540    6.8090   19.8500 C.2   128  ILE128      0.2260
     80  O        -12.6700    5.8810   19.3330 O.2   128  ILE128     -0.2867
     81  CB       -10.2790    6.7290   18.0770 C.3   128  ILE128      0.0252
     82  CG1       -8.7730    6.5510   17.7920 C.3   128  ILE128      0.0019
     83  CG2      -10.9210    7.8040   17.2230 C.3   128  ILE128      0.0019
     84  CD1       -7.8700    7.4910   18.5440 C.3   128  ILE128      0.0001
     85  N         -7.7680   10.5210   23.6460 N.3   131  PHE131     -0.1227
     86  CA        -6.4250   10.9270   23.3280 C.3   131  PHE131      0.1736
     87  C         -6.2440   12.3730   23.7170 C.2   131  PHE131      0.2595
     88  O         -7.1820   13.0260   24.0550 O.2   131  PHE131     -0.2718
     89  CB        -6.1100   10.6720   21.8360 C.3   131  PHE131      0.0547
     90  CG        -7.0770   11.3330   20.8660 C.ar  131  PHE131     -0.0202
     91  CD1       -8.1770   10.6430   20.3840 C.ar  131  PHE131     -0.0042
     92  CD2       -6.8560   12.6320   20.4140 C.ar  131  PHE131     -0.0042
     93  CE1       -9.0740   11.2470   19.4800 C.ar  131  PHE131     -0.0003
     94  CE2       -7.7490   13.2580   19.5070 C.ar  131  PHE131     -0.0003
     95  CZ        -8.8460   12.5580   19.0400 C.ar  131  PHE131     -0.0000
     96  N         -5.0280   12.8830   23.6400 N.am  132  TYR132     -0.1976
     97  CA        -4.6990   14.1710   24.2600 C.3   132  TYR132      0.1639
     98  C         -5.1790   14.2990   25.7190 C.2   132  TYR132      0.2290
     99  O         -4.8560   13.4450   26.5500 O.2   132  TYR132     -0.2864
    100  CB        -5.0460   15.3900   23.3740 C.3   132  TYR132      0.0560
    101  CG        -4.1360   15.5210   22.1490 C.ar  132  TYR132     -0.0198
    102  CD1       -2.7530   15.5500   22.2790 C.ar  132  TYR132     -0.0009
    103  CD2       -4.6780   15.5660   20.8690 C.ar  132  TYR132     -0.0009
    104  CE1       -1.9090   15.6620   21.1380 C.ar  132  TYR132      0.0417
    105  CE2       -3.8870   15.6570   19.7530 C.ar  132  TYR132      0.0417
    106  CZ        -2.5000   15.7240   19.8740 C.ar  132  TYR132      0.1957
    107  OH        -1.7450   15.8100   18.7200 O.3   132  TYR132     -0.2866
    108  N          3.1930   14.9330   20.1670 N.3   174  GLY174     -0.1225
    109  CA         2.6160   13.9510   19.2440 C.3   174  GLY174      0.1811
    110  C          2.5320   12.5560   19.8120 C.2   174  GLY174      0.2280
    111  O          1.6510   11.8250   19.4180 O.2   174  GLY174     -0.2866
    112  N         -0.3640   13.0850   23.3740 N.3   178  PHE178     -0.1241
    113  CA        -1.4040   12.2530   22.7750 C.3   178  PHE178      0.1605
    114  C         -1.8990   11.0980   23.6890 C.2   178  PHE178      0.2264
    115  O         -3.1080   10.8280   23.7660 O.2   178  PHE178     -0.2867
    116  CB        -0.9590   11.7510   21.3920 C.3   178  PHE178      0.0534
    117  CG        -2.0570   11.1390   20.5650 C.ar  178  PHE178     -0.0203
    118  CD1       -2.7800   11.9310   19.6650 C.ar  178  PHE178     -0.0042
    119  CD2       -2.3170    9.7740   20.6380 C.ar  178  PHE178     -0.0042
    120  CE1       -3.8010   11.3850   18.8870 C.ar  178  PHE178     -0.0003
    121  CE2       -3.2990    9.1850   19.8270 C.ar  178  PHE178     -0.0003
    122  CZ        -4.0410    9.9890   18.9440 C.ar  178  PHE178     -0.0000
@<TRIPOS>BOND
     1     1     2    1
     2     2     5    1
     3     2     3    1
     4     5     6    1
     5    13     3   am
     6    13    14    1
     7     3     4    2
     8     6     7   ar
     9     6     8   ar
    10     7     9   ar
    11    14    15    1
    12    15    16    2
    13     8    10   ar
    14    31    29   ar
    15     9    11   ar
    16    10    11   ar
    17    29    30   ar
    18    29    28    1
    19    11    12    1
    20    17    18    1
    21    28    25    1
    22    83    81    1
    23    22    21    1
    24    23    21    1
    25    64    63    2
    26    82    81    1
    27    82    84    1
    28    18    21    1
    29    18    19    1
    30    81    78    1
    31    25    26    1
    32    25    24    1
    33    38    37    1
    34    38    39    1
    35    37    36    1
    36    27    26    2
    37    63    65   am
    38    63    62    1
    39   107   106    1
    40    26    32   am
    41    19    20    2
    42   120   122   ar
    43   120   118   ar
    44   122   121   ar
    45    95    93   ar
    46    95    94   ar
    47    39    40    2
    48    76    75   ar
    49    76    74   ar
    50   109   110    1
    51   109   108    1
    52    75    73   ar
    53    80    79    2
    54   111   110    2
    55    32    33    1
    56    93    91   ar
    57    94    92   ar
    58    78    79    1
    59    78    77    1
    60   118   117   ar
    61    61    62    1
    62    61    58    1
    63   105   106   ar
    64   105   103   ar
    65   121   119   ar
    66    36    33    1
    67   106   104   ar
    68    40    41    1
    69    40    42    1
    70    33    34    1
    71    74    72   ar
    72    91    90   ar
    73    92    90   ar
    74    73    71   ar
    75   117   119   ar
    76   117   116    1
    77    57    58    1
    78    57    53   am
    79    90    89    1
    80   103   101   ar
    81    58    59    1
    82   104   102   ar
    83    55    52    1
    84    55    56    1
    85    34    35    2
    86    52    53    1
    87    52    51    1
    88   116   113    1
    89    46    45    2
    90    72    71   ar
    91    71    70    1
    92    53    54    2
    93    89    86    1
    94    60    59    2
    95   101   102   ar
    96   101   100    1
    97    45    51   am
    98    45    44    1
    99   113   112    1
   100   113   114    1
   101    70    67    1
   102    47    44    1
   103    47    48    1
   104    43    44    1
   105    69    68    2
   106    68    67    1
   107    86    85    1
   108    86    87    1
   109   100    97    1
   110    49    48    1
   111    96    87   am
   112    96    97    1
   113   114   115    2
   114    87    88    2
   115    67    66    1
   116    48    50    1
   117    97    98    1
   118    98    99    2
