@<TRIPOS>MOLECULE
tmp/3o75B00.pdb
 174 167 0 0 0
SMALL
GASTEIGER

@<TRIPOS>ATOM
      1  N         10.4770  -14.5860    7.3570 N.3    10  PRO10      -0.2102
      2  CA        11.6590  -14.1520    6.6000 C.3    10  PRO10       0.1504
      3  C         11.5300  -12.8040    5.8920 C.2    10  PRO10       0.2575
      4  O         12.5510  -12.1490    5.6870 O.2    10  PRO10      -0.2718
      5  CB        11.8520  -15.2760    5.5790 C.3    10  PRO10       0.0282
      6  CG        10.4820  -15.8430    5.3750 C.3    10  PRO10       0.0208
      7  CD         9.7340  -15.6610    6.6710 C.3    10  PRO10       0.0893
      8  N         10.3200  -12.3810    5.5410 N.am   11  ASP11      -0.1974
      9  CA        10.1770  -11.1760    4.7330 C.3    11  ASP11       0.1708
     10  C          8.8540  -10.4650    4.9840 C.2    11  ASP11       0.2293
     11  O          7.7970  -10.9350    4.5600 O.2    11  ASP11      -0.2864
     12  CB        10.3180  -11.5280    3.2490 C.3    11  ASP11       0.1436
     13  CG        10.3510  -10.3010    2.3520 C.2    11  ASP11       0.3671
     14  OD1       10.3690   -9.1680    2.8800 O.co2  11  ASP11      -0.2456
     15  OD2       10.3610  -10.4810    1.1140 O.co2  11  ASP11      -0.2456
     16  N          6.9180   -9.5080    1.8910 N.3    14  ASN14      -0.1240
     17  CA         6.2670  -10.5830    1.1570 C.3    14  ASN14       0.1653
     18  C          4.8430  -10.7240    1.6930 C.2    14  ASN14       0.2266
     19  O          4.6420  -11.1700    2.8200 O.2    14  ASN14      -0.2867
     20  CB         7.0510  -11.8860    1.3110 C.3    14  ASN14       0.1155
     21  CG         6.4570  -13.0290    0.5060 C.2    14  ASN14       0.2627
     22  OD1        5.2430  -13.1170    0.3310 O.2    14  ASN14      -0.2716
     23  ND2        7.3170  -13.9130    0.0120 N.am   14  ASN14      -0.0877
     24  N          2.4070  -12.6990    1.3930 N.3    16  SER16      -0.1202
     25  CA         1.9210  -13.9800    1.8960 C.3    16  SER16       0.2020
     26  C          2.2500  -14.1420    3.3760 C.2    16  SER16       0.2618
     27  O          1.4320  -14.6320    4.1550 O.2    16  SER16      -0.2717
     28  CB         2.4870  -15.1410    1.0810 C.3    16  SER16       0.2103
     29  OG         1.9590  -15.1240   -0.2350 O.3    16  SER16      -0.2182
     30  N          3.4450  -13.7130    3.7650 N.am   17  TYR17      -0.1975
     31  CA         3.8410  -13.7870    5.1640 C.3    17  TYR17       0.1639
     32  C          3.0380  -12.8410    6.0490 C.2    17  TYR17       0.2290
     33  O          2.7050  -13.1840    7.1820 O.2    17  TYR17      -0.2864
     34  CB         5.3460  -13.5600    5.3230 C.3    17  TYR17       0.0560
     35  CG         6.1390  -14.7780    4.9160 C.ar   17  TYR17      -0.0198
     36  CD1        6.9300  -14.7740    3.7750 C.ar   17  TYR17      -0.0009
     37  CD2        6.0570  -15.9520    5.6530 C.ar   17  TYR17      -0.0009
     38  CE1        7.6400  -15.8970    3.3980 C.ar   17  TYR17       0.0417
     39  CE2        6.7610  -17.0760    5.2850 C.ar   17  TYR17       0.0417
     40  CZ         7.5490  -17.0470    4.1560 C.ar   17  TYR17       0.1957
     41  OH         8.2500  -18.1750    3.7950 O.3    17  TYR17      -0.2866
     42  N         15.4480  -13.7960    6.1290 N.3    42  ASP42      -0.1239
     43  CA        15.9520  -15.0130    5.5020 C.3    42  ASP42       0.1674
     44  C         17.4500  -15.1990    5.7110 C.2    42  ASP42       0.2266
     45  O         18.1100  -15.8770    4.9260 O.2    42  ASP42      -0.2867
     46  CB        15.6220  -15.0380    4.0070 C.3    42  ASP42       0.1410
     47  CG        14.6680  -16.1580    3.6400 C.2    42  ASP42       0.3668
     48  OD1       14.5330  -17.1160    4.4330 O.co2  42  ASP42      -0.2456
     49  OD2       14.0500  -16.0790    2.5590 O.co2  42  ASP42      -0.2456
     50  N          5.4410  -22.9240    6.5140 N.3    89  ASP89      -0.1225
     51  CA         5.9670  -22.7300    5.1650 C.3    89  ASP89       0.1805
     52  C          7.2150  -23.5640    4.8970 C.2    89  ASP89       0.2597
     53  O          7.2180  -24.3970    4.0000 O.2    89  ASP89      -0.2718
     54  CB         6.2530  -21.2500    4.9060 C.3    89  ASP89       0.1424
     55  CG         6.6510  -20.9790    3.4660 C.2    89  ASP89       0.3668
     56  OD1        5.8380  -20.3930    2.7180 O.co2  89  ASP89      -0.2456
     57  OD2        7.7780  -21.3510    3.0780 O.co2  89  ASP89      -0.2456
     58  N          8.2830  -23.3210    5.6510 N.am   90  ARG90      -0.1979
     59  CA         9.4730  -24.1670    5.5760 C.3    90  ARG90       0.1597
     60  C          9.4040  -25.2230    6.6800 C.2    90  ARG90       0.2287
     61  O          9.3310  -24.8890    7.8630 O.2    90  ARG90      -0.2864
     62  CB        10.7640  -23.3440    5.7070 C.3    90  ARG90       0.0334
     63  CG        11.0990  -22.4430    4.5090 C.3    90  ARG90       0.0492
     64  CD        10.4670  -21.0660    4.6510 C.3    90  ARG90       0.2205
     65  NE        10.9090  -20.1180    3.6270 N.pl3  90  ARG90      -0.0865
     66  CZ        12.0200  -19.3870    3.7100 C.cat  90  ARG90       0.5346
     67  NH1       12.8220  -19.5030    4.7590 N.pl3  90  ARG90       0.1354
     68  NH2       12.3430  -18.5460    2.7370 N.pl3  90  ARG90       0.1354
     69  N         12.0750  -26.0350    0.5610 N.3   134  VAL134     -0.1245
     70  CA        10.9370  -25.5120   -0.1860 C.3   134  VAL134      0.1561
     71  C         11.2820  -25.3100   -1.6720 C.2   134  VAL134      0.2260
     72  O         10.4830  -25.6310   -2.5520 O.2   134  VAL134     -0.2867
     73  CB        10.3610  -24.2250    0.4750 C.3   134  VAL134      0.0252
     74  CG1       11.3540  -23.0650    0.4010 C.3   134  VAL134      0.0019
     75  CG2        9.0490  -23.8470   -0.1610 C.3   134  VAL134      0.0019
     76  N         10.0140  -27.4280   -5.0930 N.3   138  ARG138     -0.1245
     77  CA         9.4400  -26.7220   -6.2340 C.3   138  ARG138      0.1563
     78  C         10.2660  -26.9520   -7.4930 C.2   138  ARG138      0.2260
     79  O          9.7350  -26.9600   -8.6000 O.2   138  ARG138     -0.2867
     80  CB         9.3010  -25.2270   -5.9270 C.3   138  ARG138      0.0307
     81  CG         8.4190  -24.9620   -4.7150 C.3   138  ARG138      0.0489
     82  CD         8.3580  -23.4970   -4.3010 C.3   138  ARG138      0.2205
     83  NE         7.6320  -23.3600   -3.0380 N.pl3 138  ARG138     -0.0865
     84  CZ         7.3160  -22.2010   -2.4650 C.cat 138  ARG138      0.5346
     85  NH1        7.6610  -21.0560   -3.0350 N.pl3 138  ARG138      0.1354
     86  NH2        6.6550  -22.1890   -1.3130 N.pl3 138  ARG138      0.1354
     87  N         14.7480  -14.6740   -2.2460 N.3   161  PHE161     -0.1241
     88  CA        13.4030  -14.4790   -2.7700 C.3   161  PHE161      0.1605
     89  C         13.0810  -12.9900   -2.7630 C.2   161  PHE161      0.2264
     90  O         12.4520  -12.4870   -1.8310 O.2   161  PHE161     -0.2867
     91  CB        12.3670  -15.2340   -1.9340 C.3   161  PHE161      0.0534
     92  CG        12.4910  -16.7350   -2.0030 C.ar  161  PHE161     -0.0203
     93  CD1       13.1230  -17.4400   -0.9890 C.ar  161  PHE161     -0.0042
     94  CD2       11.9610  -17.4400   -3.0700 C.ar  161  PHE161     -0.0042
     95  CE1       13.2270  -18.8140   -1.0390 C.ar  161  PHE161     -0.0003
     96  CE2       12.0680  -18.8160   -3.1320 C.ar  161  PHE161     -0.0003
     97  CZ        12.6990  -19.5060   -2.1120 C.ar  161  PHE161     -0.0000
     98  N          9.0450  -19.2160   -8.7180 N.3   187  THR187     -0.1203
     99  CA         8.6810  -19.9240   -7.4880 C.3   187  THR187      0.1994
    100  C          8.0970  -19.0340   -6.3880 C.2   187  THR187      0.2619
    101  O          7.8910  -19.4880   -5.2600 O.2   187  THR187     -0.2717
    102  CB         9.8710  -20.7170   -6.9020 C.3   187  THR187      0.1784
    103  OG1       10.9510  -19.8220   -6.5990 O.3   187  THR187     -0.2211
    104  CG2       10.3350  -21.7850   -7.8830 C.3   187  THR187      0.0376
    105  N          7.8330  -17.7740   -6.7110 N.am  188  SER188     -0.1937
    106  CA         7.2440  -16.8520   -5.7460 C.3   188  SER188      0.2055
    107  C          6.8460  -15.5690   -6.4520 C.2   188  SER188      0.2643
    108  O          7.5300  -15.1360   -7.3800 O.2   188  SER188     -0.2714
    109  CB         8.2340  -16.5430   -4.6260 C.3   188  SER188      0.2130
    110  OG         7.6670  -15.6540   -3.6840 O.3   188  SER188     -0.2179
    111  N          5.7460  -14.9580   -6.0220 N.am  189  TYR189     -0.1959
    112  CA         5.2730  -13.7530   -6.6950 C.3   189  TYR189      0.1771
    113  C          6.3050  -12.6310   -6.6130 C.2   189  TYR189      0.2619
    114  O          6.4860  -11.8720   -7.5620 O.2   189  TYR189     -0.2715
    115  CB         3.9220  -13.2730   -6.1550 C.3   189  TYR189      0.0574
    116  CG         3.4020  -12.0890   -6.9360 C.ar  189  TYR189     -0.0198
    117  CD1        2.8370  -12.2620   -8.1950 C.ar  189  TYR189     -0.0009
    118  CD2        3.5130  -10.7950   -6.4400 C.ar  189  TYR189     -0.0009
    119  CE1        2.3790  -11.1860   -8.9320 C.ar  189  TYR189      0.0417
    120  CE2        3.0530   -9.7050   -7.1700 C.ar  189  TYR189      0.0417
    121  CZ         2.4900   -9.9100   -8.4180 C.ar  189  TYR189      0.1957
    122  OH         2.0280   -8.8420   -9.1530 O.3   189  TYR189     -0.2866
    123  N          6.9930  -12.5430   -5.4830 N.am  190  VAL190     -0.1977
    124  CA         8.0190  -11.5260   -5.3040 C.3   190  VAL190      0.1596
    125  C          9.0540  -11.5990   -6.4220 C.2   190  VAL190      0.2287
    126  O          9.5300  -10.5710   -6.9040 O.2   190  VAL190     -0.2864
    127  CB         8.7110  -11.6480   -3.9300 C.3   190  VAL190      0.0276
    128  CG1        9.9200  -10.7470   -3.8750 C.3   190  VAL190      0.0022
    129  CG2        7.7470  -11.2850   -2.8300 C.3   190  VAL190      0.0022
    130  N          4.1830  -19.1180   -8.5040 N.3   214  PHE214     -0.1227
    131  CA         3.6590  -19.3510   -7.1650 C.3   214  PHE214      0.1736
    132  C          3.1330  -18.0240   -6.6300 C.2   214  PHE214      0.2596
    133  O          3.6730  -16.9640   -6.9410 O.2   214  PHE214     -0.2718
    134  CB         4.7430  -19.9040   -6.2350 C.3   214  PHE214      0.0547
    135  CG         4.8590  -21.4020   -6.2620 C.ar  214  PHE214     -0.0202
    136  CD1        5.2730  -22.0610   -7.4110 C.ar  214  PHE214     -0.0042
    137  CD2        4.5600  -22.1540   -5.1350 C.ar  214  PHE214     -0.0042
    138  CE1        5.3790  -23.4490   -7.4360 C.ar  214  PHE214     -0.0003
    139  CE2        4.6660  -23.5340   -5.1510 C.ar  214  PHE214     -0.0003
    140  CZ         5.0730  -24.1830   -6.3040 C.ar  214  PHE214     -0.0000
    141  N          2.0850  -18.0820   -5.8200 N.am  215  GLY215     -0.1957
    142  CA         1.4370  -16.8770   -5.3500 C.3   215  GLY215      0.1869
    143  C          0.5140  -16.2960   -6.4020 C.2   215  GLY215      0.2309
    144  O          0.2340  -16.9230   -7.4220 O.2   215  GLY215     -0.2863
    145  N         -1.4210  -19.8240   -2.0970 N.3   232  GLN232     -0.1245
    146  CA        -1.5470  -20.5070   -0.8150 C.3   232  GLN232      0.1566
    147  C         -2.9580  -20.3610   -0.2760 C.2   232  GLN232      0.2260
    148  O         -3.6840  -19.4440   -0.6460 O.2   232  GLN232     -0.2867
    149  CB        -0.6070  -19.8980    0.2240 C.3   232  GLN232      0.0367
    150  CG         0.8590  -19.8990   -0.1210 C.3   232  GLN232      0.0905
    151  CD         1.6960  -19.3570    1.0210 C.2   232  GLN232      0.2608
    152  OE1        1.3390  -19.5140    2.1880 O.2   232  GLN232     -0.2717
    153  NE2        2.8100  -18.7130    0.6920 N.am  232  GLN232     -0.0878
    154  N         -3.7860  -19.1730    2.7730 N.3   234  HIS234     -0.1241
    155  CA        -3.2030  -18.4840    3.9180 C.3   234  HIS234      0.1621
    156  C         -3.9940  -18.7070    5.1960 C.2   234  HIS234      0.2264
    157  O         -3.4240  -19.0090    6.2450 O.2   234  HIS234     -0.2867
    158  CB        -3.1040  -16.9830    3.6380 C.3   234  HIS234      0.0745
    159  CG        -2.2740  -16.6470    2.4460 C.ar  234  HIS234      0.0817
    160  ND1       -2.8110  -16.4820    1.1840 N.ar  234  HIS234     -0.2268
    161  CD2       -0.9390  -16.4490    2.3090 C.ar  234  HIS234      0.1154
    162  CE1       -1.8440  -16.1940    0.3290 C.ar  234  HIS234      0.1986
    163  NE2       -0.7010  -16.1690    0.9880 N.ar  234  HIS234     -0.2212
    164  N         -2.1760  -25.7070   -2.6160 N.3   263  ARG263     -0.1245
    165  CA        -2.3330  -24.3820   -3.1940 C.3   263  ARG263      0.1563
    166  C         -3.4910  -24.3870   -4.1800 C.2   263  ARG263      0.2260
    167  O         -3.8000  -25.4140   -4.7820 O.2   263  ARG263     -0.2867
    168  CB        -1.0490  -23.9310   -3.8900 C.3   263  ARG263      0.0307
    169  CG         0.1280  -23.7250   -2.9520 C.3   263  ARG263      0.0489
    170  CD         1.0350  -22.6230   -3.4660 C.3   263  ARG263      0.2205
    171  NE         2.1480  -22.3510   -2.5640 N.pl3 263  ARG263     -0.0865
    172  CZ         2.7810  -21.1840   -2.5000 C.cat 263  ARG263      0.5346
    173  NH1        2.4030  -20.1820   -3.2820 N.pl3 263  ARG263      0.1354
    174  NH2        3.7870  -21.0170   -1.6550 N.pl3 263  ARG263      0.1354
@<TRIPOS>BOND
     1   122   121    1
     2   119   121   ar
     3   119   117   ar
     4    98    99    1
     5    79    78    2
     6   130   131    1
     7   121   120   ar
     8   117   116   ar
     9   104   102    1
    10   114   113    2
    11    78    77    1
    12    99   102    1
    13    99   100    1
    14   138   136   ar
    15   138   140   ar
    16   144   143    2
    17   136   135   ar
    18   108   107    2
    19   120   118   ar
    20   131   132    1
    21   131   134    1
    22   133   132    2
    23   116   118   ar
    24   116   115    1
    25   126   125    2
    26   102   103    1
    27   105   100   am
    28   105   106    1
    29   112   113    1
    30   112   115    1
    31   112   111    1
    32   132   141   am
    33   113   123   am
    34   107   111   am
    35   107   106    1
    36   125   124    1
    37   143   142    1
    38   100   101    2
    39   140   139   ar
    40   135   134    1
    41   135   137   ar
    42    77    80    1
    43    77    76    1
    44    80    81    1
    45   141   142    1
    46   106   109    1
    47   123   124    1
    48   124   127    1
    49   139   137   ar
    50   167   166    2
    51    81    82    1
    52   109   110    1
    53    82    83    1
    54   166   165    1
    55   127   128    1
    56   127   129    1
    57   168   165    1
    58   168   169    1
    59   170   169    1
    60   170   171    1
    61   173   172    1
    62   165   164    1
    63    96    94   ar
    64    96    97   ar
    65    94    92   ar
    66    83    84    2
    67    85    84    1
    68    88    89    1
    69    88    87    1
    70    88    91    1
    71    89    90    2
    72   171   172    2
    73    72    71    2
    74   172   174    1
    75    84    86    1
    76    97    95   ar
    77   145   146    1
    78    92    91    1
    79    92    93   ar
    80    71    70    1
    81    95    93   ar
    82   146   147    1
    83   146   149    1
    84   148   147    2
    85    29    28    1
    86    70    73    1
    87    70    69    1
    88    75    73    1
    89   150   149    1
    90   150   151    1
    91    23    21   am
    92   162   163   ar
    93   162   160   ar
    94    22    21    2
    95    74    73    1
    96    21    20    1
    97   153   151   am
    98   163   161   ar
    99   151   152    2
   100    28    25    1
   101    15    13   ar
   102    17    20    1
   103    17    18    1
   104    17    16    1
   105   160   159   ar
   106    24    25    1
   107    18    19    2
   108    25    26    1
   109   161   159   ar
   110    13    14   ar
   111    13    12    1
   112   159   158    1
   113    49    47   ar
   114    56    55   ar
   115    68    66    1
   116   154   155    1
   117    57    55   ar
   118    12     9    1
   119    26    30   am
   120    26    27    2
   121    38    36   ar
   122    38    40   ar
   123    55    54    1
   124    65    66    2
   125    65    64    1
   126   158   155    1
   127    47    46    1
   128    47    48   ar
   129    66    67    1
   130    30    31    1
   131    36    35   ar
   132    41    40    1
   133   155   156    1
   134    53    52    2
   135    46    43    1
   136    40    39   ar
   137    63    64    1
   138    63    62    1
   139    11    10    2
   140     9    10    1
   141     9     8    1
   142    52    51    1
   143    52    58   am
   144    54    51    1
   145    35    34    1
   146    35    37   ar
   147    45    44    2
   148    31    34    1
   149    31    32    1
   150    51    50    1
   151   156   157    2
   152    39    37   ar
   153     6     5    1
   154     6     7    1
   155    43    44    1
   156    43    42    1
   157     8     3   am
   158    59    58    1
   159    59    62    1
   160    59    60    1
   161     5     2    1
   162     4     3    2
   163     3     2    1
   164    32    33    2
   165     2     1    1
   166     7     1    1
   167    60    61    2
