@<TRIPOS>MOLECULE
tmp/3o7aA00.pdb
 151 148 0 0 0
SMALL
GASTEIGER

@<TRIPOS>ATOM
      1  N         -2.6580   17.9990   -2.2940 N.3     1  SER1       -0.1217
      2  CA        -2.7930   16.5140   -2.2320 C.3     1  SER1        0.1889
      3  C         -4.1840   16.0000   -2.6830 C.2     1  SER1        0.2288
      4  O         -4.3730   15.4050   -3.7650 O.2     1  SER1       -0.2866
      5  CB        -2.5880   16.0620   -0.7860 C.3     1  SER1        0.2089
      6  OG        -2.7140   14.6270   -0.7260 O.3     1  SER1       -0.2183
      7  N         -5.6980   17.0370   -6.0870 N.3     4  LEU4       -0.1245
      8  CA        -4.7510   17.0340   -7.2260 C.3     4  LEU4        0.1561
      9  C         -5.3520   16.1180   -8.3020 C.2     4  LEU4        0.2260
     10  O         -5.6130   14.9260   -8.0240 O.2     4  LEU4       -0.2867
     11  CB        -3.3790   16.4420   -6.8030 C.3     4  LEU4        0.0270
     12  CG        -2.3390   16.3580   -7.9510 C.3     4  LEU4        0.0019
     13  CD1       -1.9400   17.7690   -8.4060 C.3     4  LEU4        0.0001
     14  CD2       -1.1260   15.5370   -7.5430 C.3     4  LEU4        0.0001
     15  N         -4.8710   14.0580  -11.7420 N.3     6  THR6       -0.1218
     16  CA        -3.8630   13.4940  -12.6470 C.3     6  THR6        0.1862
     17  C         -4.4390   12.4470  -13.5530 C.2     6  THR6        0.2287
     18  O         -3.9630   12.2710  -14.6810 O.2     6  THR6       -0.2866
     19  CB        -2.6760   12.8970  -11.9050 C.3     6  THR6        0.1770
     20  OG1       -3.0860   11.8280  -11.0020 O.3     6  THR6       -0.2211
     21  CG2       -2.0160   14.0020  -11.0560 C.3     6  THR6        0.0375
     22  N         -7.2030   12.8260   -6.7310 N.3    13  PHE13      -0.1241
     23  CA        -6.7400   11.7580   -5.8680 C.3    13  PHE13       0.1605
     24  C         -7.7630   11.3670   -4.7790 C.2    13  PHE13       0.2264
     25  O         -8.2010   10.2350   -4.7490 O.2    13  PHE13      -0.2867
     26  CB        -5.4060   12.2330   -5.2480 C.3    13  PHE13       0.0534
     27  CG        -4.9380   11.4220   -4.1010 C.ar   13  PHE13      -0.0203
     28  CD1       -4.9620   10.0350   -4.1420 C.ar   13  PHE13      -0.0042
     29  CD2       -4.3520   12.0460   -3.0070 C.ar   13  PHE13      -0.0042
     30  CE1       -4.4580    9.2660   -3.0660 C.ar   13  PHE13      -0.0003
     31  CE2       -3.8440   11.2860   -1.9520 C.ar   13  PHE13      -0.0003
     32  CZ        -3.8820    9.9220   -1.9880 C.ar   13  PHE13      -0.0000
     33  N         -7.6810   10.6160   -1.8420 N.3    15  GLY15      -0.1210
     34  CA        -7.3640    9.4530   -0.9740 C.3    15  GLY15       0.1956
     35  C         -7.5310    8.0690   -1.5410 C.2    15  GLY15       0.2612
     36  O         -7.3960    7.0800   -0.8180 O.2    15  GLY15      -0.2717
     37  N         -7.8270    7.9980   -2.8490 N.am   16  ARG16      -0.1966
     38  CA        -8.1840    6.7420   -3.5020 C.3    16  ARG16       0.1714
     39  C         -6.9110    6.0030   -3.8700 C.2    16  ARG16       0.2458
     40  O         -5.8940    6.6380   -4.1240 O.2    16  ARG16      -0.2730
     41  CB        -9.0030    7.0680   -4.7530 C.3    16  ARG16       0.0347
     42  CG       -10.3490    7.6500   -4.4420 C.3    16  ARG16       0.0492
     43  CD       -10.9930    8.2730   -5.6730 C.3    16  ARG16       0.2205
     44  NE       -11.2440    7.2650   -6.7110 N.pl3  16  ARG16      -0.0865
     45  CZ       -11.6020    7.5520   -7.9620 C.cat  16  ARG16       0.5346
     46  NH1      -11.9030    8.7830   -8.2990 N.pl3  16  ARG16       0.1354
     47  NH2      -11.7710    6.5560   -8.8400 N.pl3  16  ARG16       0.1354
     48  N         -6.9450    4.6850   -3.9060 N.am   17  PRO17      -0.2716
     49  CA        -5.7280    3.9260   -4.4330 C.3    17  PRO17       0.1536
     50  C         -5.3830    4.3500   -5.8810 C.2    17  PRO17       0.2598
     51  O         -6.2540    4.4060   -6.7320 O.2    17  PRO17      -0.2715
     52  CB        -6.1520    2.4480   -4.4070 C.3    17  PRO17       0.0310
     53  CG        -7.4920    2.4180   -3.6810 C.3    17  PRO17       0.0237
     54  CD        -8.0900    3.8050   -3.5910 C.3    17  PRO17       0.0939
     55  N         -4.0970    4.5780   -6.1260 N.am   18  MET18      -0.1964
     56  CA        -3.6200    5.0000   -7.4410 C.3    18  MET18       0.1736
     57  C         -2.3380    4.2910   -7.7690 C.2    18  MET18       0.2616
     58  O         -1.6980    3.7170   -6.8910 O.2    18  MET18      -0.2715
     59  CB        -3.3690    6.4940   -7.4410 C.3    18  MET18       0.0427
     60  CG        -4.6630    7.3150   -7.1500 C.3    18  MET18       0.0599
     61  SD        -4.4690    9.0830   -7.5230 S.3    18  MET18      -0.1393
     62  CE        -4.7580    9.0760   -9.2790 C.3    18  MET18       0.0692
     63  N         -2.0310    4.2640   -9.0500 N.am   19  ILE19      -0.1963
     64  CA        -0.8600    3.5300   -9.5810 C.3    19  ILE19       0.1727
     65  C         -0.2500    4.3810  -10.6600 C.2    19  ILE19       0.2616
     66  O         -0.9650    5.0500  -11.4080 O.2    19  ILE19      -0.2715
     67  CB        -1.3090    2.1400  -10.1010 C.3    19  ILE19       0.0290
     68  CG1       -0.1010    1.2880  -10.5530 C.3    19  ILE19       0.0022
     69  CG2       -2.3510    2.2320  -11.1880 C.3    19  ILE19       0.0023
     70  CD1       -0.5550   -0.1600  -10.8910 C.3    19  ILE19       0.0001
     71  N          1.0910    4.4370  -10.7270 N.am   20  GLU20      -0.1977
     72  CA         1.7610    5.3430  -11.6600 C.3    20  GLU20       0.1602
     73  C          2.0620    4.5590  -12.9160 C.2    20  GLU20       0.2287
     74  O          2.7330    3.5160  -12.8700 O.2    20  GLU20      -0.2864
     75  CB         3.0780    5.8920  -11.0830 C.3    20  GLU20       0.0415
     76  CG         3.7740    6.8500  -12.0040 C.3    20  GLU20       0.1163
     77  CD         5.1810    7.1030  -11.4560 C.2    20  GLU20       0.3649
     78  OE1        5.7400    6.1790  -10.8000 O.co2  20  GLU20      -0.2457
     79  OE2        5.7050    8.1700  -11.6510 O.co2  20  GLU20      -0.2457
     80  N         -0.1850    9.3720  -12.5410 N.3    27  TRP27      -0.1241
     81  CA        -0.9180    8.6340  -11.4990 C.3    27  TRP27       0.1605
     82  C         -2.3810    8.4020  -11.9560 C.2    27  TRP27       0.2264
     83  O         -3.0850    9.3540  -12.3020 O.2    27  TRP27      -0.2867
     84  CB        -0.9280    9.4410  -10.1800 C.3    27  TRP27       0.0550
     85  CG         0.3490    9.3690   -9.4340 C.ar   27  TRP27       0.0003
     86  CD1        1.3460   10.3430   -9.3580 C.ar   27  TRP27       0.0946
     87  CD2        0.7950    8.2780   -8.6540 C.ar   27  TRP27       0.0152
     88  NE1        2.3700    9.8860   -8.5590 N.ar   27  TRP27      -0.2442
     89  CE2        2.0550    8.6270   -8.1120 C.ar   27  TRP27       0.0810
     90  CE3        0.2530    7.0470   -8.3350 C.ar   27  TRP27       0.0012
     91  CZ2        2.7490    7.7890   -7.2370 C.ar   27  TRP27       0.0191
     92  CZ3        0.9510    6.2080   -7.4770 C.ar   27  TRP27       0.0001
     93  CH2        2.2100    6.5670   -6.9680 C.ar   27  TRP27       0.0015
     94  N         -6.7320    3.1460   -9.4300 N.3    30  LEU30      -0.1245
     95  CA        -6.8940    1.6880   -9.6410 C.3    30  LEU30       0.1561
     96  C         -8.2250    1.3790  -10.3070 C.2    30  LEU30       0.2260
     97  O         -8.3010    0.6000  -11.2660 O.2    30  LEU30      -0.2867
     98  CB        -6.8090    0.9680   -8.2960 C.3    30  LEU30       0.0270
     99  CG        -5.4520    0.3420   -8.0680 C.3    30  LEU30       0.0019
    100  CD1       -4.3140    1.2900   -8.0380 C.3    30  LEU30       0.0001
    101  CD2       -5.5110   -0.6260   -6.8480 C.3    30  LEU30       0.0001
    102  N         -7.1180   -4.0530   -5.8640 N.3    37  LYS37      -0.1245
    103  CA        -6.1480   -3.8250   -4.8150 C.3    37  LYS37       0.1561
    104  C         -5.3330   -5.0880   -4.4900 C.2    37  LYS37       0.2260
    105  O         -4.1310   -5.0160   -4.2600 O.2    37  LYS37      -0.2867
    106  CB        -6.8590   -3.3160   -3.5640 C.3    37  LYS37       0.0271
    107  CG        -6.9580   -1.8160   -3.5010 C.3    37  LYS37       0.0035
    108  CD        -7.2560   -1.3410   -2.0410 C.3    37  LYS37       0.0206
    109  CE        -6.1010   -1.7550   -1.0820 C.3    37  LYS37       0.1093
    110  NZ        -5.8780   -0.8420    0.1080 N.3    37  LYS37      -0.1314
    111  N         -2.3610   -6.1790   -8.0070 N.3    40  VAL40      -0.1231
    112  CA        -1.6540   -5.1010   -8.6760 C.3    40  VAL40       0.1678
    113  C         -0.5300   -5.6800   -9.5350 C.2    40  VAL40       0.2434
    114  O          0.2600   -6.5020   -9.0580 O.2    40  VAL40      -0.2733
    115  CB        -1.1000   -4.1430   -7.6270 C.3    40  VAL40       0.0265
    116  CG1       -0.2380   -3.0470   -8.2660 C.3    40  VAL40       0.0020
    117  CG2       -2.2290   -3.5770   -6.8470 C.3    40  VAL40       0.0020
    118  N         -0.4370   -5.2500  -10.7980 N.am   41  PRO41      -0.2718
    119  CA         0.6140   -5.7730  -11.6570 C.3    41  PRO41       0.1535
    120  C          1.9960   -5.2360  -11.1800 C.2    41  PRO41       0.2598
    121  O          2.0580   -4.1910  -10.5290 O.2    41  PRO41      -0.2715
    122  CB         0.2570   -5.2170  -12.9970 C.3    41  PRO41       0.0310
    123  CG        -0.3790   -3.8800  -12.6190 C.3    41  PRO41       0.0237
    124  CD        -1.2120   -4.1770  -11.4570 C.3    41  PRO41       0.0939
    125  N          3.0830   -5.9520  -11.4420 N.am   42  GLU42      -0.1964
    126  CA         4.3770   -5.3720  -11.0800 C.3    42  GLU42       0.1733
    127  C          4.8470   -4.2410  -12.0240 C.2    42  GLU42       0.2616
    128  O          5.5740   -3.3650  -11.5960 O.2    42  GLU42      -0.2715
    129  CB         5.4830   -6.4190  -10.8720 C.3    42  GLU42       0.0429
    130  CG         6.8970   -5.7630  -10.6060 C.3    42  GLU42       0.1163
    131  CD         7.1890   -5.3460   -9.1290 C.2    42  GLU42       0.3649
    132  OE1        6.4590   -5.7900   -8.2020 O.co2  42  GLU42      -0.2457
    133  OE2        8.1920   -4.6010   -8.9070 O.co2  42  GLU42      -0.2457
    134  N          4.3870   -4.2530  -13.2710 N.am   43  VAL43      -0.1963
    135  CA         4.5920   -3.1400  -14.1740 C.3    43  VAL43       0.1727
    136  C          3.2430   -2.7060  -14.6990 C.2    43  VAL43       0.2616
    137  O          2.4140   -3.5400  -15.0730 O.2    43  VAL43      -0.2715
    138  CB         5.4880   -3.5350  -15.4010 C.3    43  VAL43       0.0290
    139  CG1        5.6350   -2.3240  -16.3570 C.3    43  VAL43       0.0023
    140  CG2        6.8850   -3.9970  -14.9220 C.3    43  VAL43       0.0023
    141  N          2.9730   -1.3940  -14.6380 N.am   44  PHE44      -0.1974
    142  CA         1.6790   -0.8750  -15.0640 C.3    44  PHE44       0.1639
    143  C          1.8830    0.0690  -16.2190 C.2    44  PHE44       0.2290
    144  O          2.7440    0.9530  -16.1590 O.2    44  PHE44      -0.2864
    145  CB         1.0090   -0.0890  -13.9300 C.3    44  PHE44       0.0560
    146  CG        -0.2080    0.6520  -14.3750 C.ar   44  PHE44      -0.0200
    147  CD1       -1.3050   -0.0460  -14.9330 C.ar   44  PHE44      -0.0042
    148  CD2       -0.2600    2.0360  -14.2770 C.ar   44  PHE44      -0.0042
    149  CE1       -2.4330    0.6380  -15.4380 C.ar   44  PHE44      -0.0003
    150  CE2       -1.3960    2.7600  -14.7810 C.ar   44  PHE44      -0.0003
    151  CZ        -2.4830    2.0550  -15.3330 C.ar   44  PHE44      -0.0000
@<TRIPOS>BOND
     1   139   138    1
     2   143   144    2
     3   143   142    1
     4   149   151   ar
     5   149   147   ar
     6   138   140    1
     7   138   135    1
     8   151   150   ar
     9   137   136    2
    10   142   141    1
    11   142   145    1
    12   147   146   ar
    13   150   148   ar
    14   136   141   am
    15   136   135    1
    16    18    17    2
    17   146   148   ar
    18   146   145    1
    19   135   134    1
    20    17    16    1
    21   134   127   am
    22   122   123    1
    23   122   119    1
    24    73    74    2
    25    73    72    1
    26    16    19    1
    27    16    15    1
    28   123   124    1
    29    80    81    1
    30    83    82    2
    31   127   128    2
    32   127   126    1
    33    76    77    1
    34    76    75    1
    35    82    81    1
    36    19    21    1
    37    19    20    1
    38    72    75    1
    39    72    71    1
    40   119   120    1
    41   119   118    1
    42    79    77   ar
    43    81    84    1
    44   124   118    1
    45    77    78   ar
    46   125   120   am
    47   125   126    1
    48    66    65    2
    49    97    96    2
    50    69    67    1
    51   120   121    2
    52   126   129    1
    53    70    68    1
    54   129   130    1
    55   118   113   am
    56    71    65   am
    57    65    64    1
    58   130   131    1
    59    68    67    1
    60    96    95    1
    61    84    85    1
    62    67    64    1
    63    95    94    1
    64    95    98    1
    65    64    63    1
    66   113   114    2
    67   113   112    1
    68    85    86   ar
    69    85    87   ar
    70    86    88   ar
    71    62    61    1
    72   131   133   ar
    73   131   132   ar
    74    63    57   am
    75    47    45    1
    76   112   111    1
    77   112   115    1
    78    87    90   ar
    79    87    89   ar
    80    88    89   ar
    81    13    12    1
    82    90    92   ar
    83     9    10    2
    84     9     8    1
    85    46    45    1
    86    98    99    1
    87   116   115    1
    88    89    91   ar
    89    99   100    1
    90    99   101    1
    91    45    44    2
    92    12    14    1
    93    12    11    1
    94    57    56    1
    95    57    58    2
    96   115   117    1
    97    61    60    1
    98    92    93   ar
    99    56    59    1
   100    56    55    1
   101    59    60    1
   102    91    93   ar
   103     8    11    1
   104     8     7    1
   105    51    50    2
   106    22    23    1
   107    44    43    1
   108    55    50   am
   109    50    49    1
   110    23    26    1
   111    23    24    1
   112   102   103    1
   113    43    42    1
   114    26    27    1
   115   103   104    1
   116   103   106    1
   117    24    25    2
   118    41    42    1
   119    41    38    1
   120   104   105    2
   121    49    52    1
   122    49    48    1
   123    52    53    1
   124    28    27   ar
   125    28    30   ar
   126    40    39    2
   127    27    29   ar
   128    48    39   am
   129    48    54    1
   130    39    38    1
   131     4     3    2
   132    53    54    1
   133   106   107    1
   134    38    37    1
   135   107   108    1
   136    30    32   ar
   137    29    31   ar
   138    37    35   am
   139     3     2    1
   140     1     2    1
   141     2     5    1
   142   108   109    1
   143    32    31   ar
   144    33    34    1
   145    35    34    1
   146    35    36    2
   147   109   110    1
   148     5     6    1
