@<TRIPOS>MOLECULE
tmp/3o7bA01.pdb
 166 166 0 0 0
SMALL
GASTEIGER

@<TRIPOS>ATOM
      1  N        -10.8310   49.7510   12.5270 N.3   147  PHE147     -0.1227
      2  CA       -11.3690   49.6580   13.8750 C.3   147  PHE147      0.1736
      3  C        -10.2480   49.3360   14.8470 C.2   147  PHE147      0.2595
      4  O         -9.5660   48.3240   14.7200 O.2   147  PHE147     -0.2718
      5  CB       -12.5540   48.6730   13.8880 C.3   147  PHE147      0.0547
      6  CG       -13.7730   49.2600   13.2440 C.ar  147  PHE147     -0.0202
      7  CD1      -14.7090   49.9810   14.0030 C.ar  147  PHE147     -0.0042
      8  CD2      -13.9520   49.2050   11.8670 C.ar  147  PHE147     -0.0042
      9  CE1      -15.7970   50.6080   13.4010 C.ar  147  PHE147     -0.0003
     10  CE2      -15.0410   49.8220   11.2570 C.ar  147  PHE147     -0.0003
     11  CZ       -15.9670   50.5330   12.0290 C.ar  147  PHE147     -0.0000
     12  N        -10.0020   50.2670   15.7760 N.am  148  ARG148     -0.1966
     13  CA        -9.0250   50.0610   16.8500 C.3   148  ARG148      0.1729
     14  C         -9.4960   50.8270   18.0720 C.2   148  ARG148      0.2616
     15  O        -10.1130   51.8860   17.9500 O.2   148  ARG148     -0.2715
     16  CB        -7.6040   50.5670   16.5330 C.3   148  ARG148      0.0348
     17  CG        -7.3130   51.0970   15.1700 C.3   148  ARG148      0.0492
     18  CD        -5.9940   51.9000   15.1970 C.3   148  ARG148      0.2205
     19  NE        -4.8490   51.1190   15.6560 N.pl3 148  ARG148     -0.0865
     20  CZ        -3.5740   51.4400   15.4270 C.cat 148  ARG148      0.5346
     21  NH1       -3.2610   52.5360   14.7430 N.pl3 148  ARG148      0.1354
     22  NH2       -2.6080   50.6570   15.8740 N.pl3 148  ARG148      0.1354
     23  N         -9.1540   50.2890   19.2380 N.am  149  GLU149     -0.1977
     24  CA        -9.5040   50.8830   20.5190 C.3   149  GLU149      0.1602
     25  C         -9.0700   52.3450   20.6410 C.2   149  GLU149      0.2287
     26  O         -9.8250   53.1600   21.1610 O.2   149  GLU149     -0.2864
     27  CB        -8.9110   50.0530   21.6520 C.3   149  GLU149      0.0415
     28  CG        -9.2840   50.5570   23.0430 C.3   149  GLU149      0.1163
     29  CD        -8.6640   49.7360   24.1460 C.2   149  GLU149      0.3649
     30  OE1       -8.0640   48.6780   23.8440 O.co2 149  GLU149     -0.2457
     31  OE2       -8.7770   50.1540   25.3240 O.co2 149  GLU149     -0.2457
     32  N        -10.9180   45.0880   10.1900 N.3   168  ILE168     -0.1231
     33  CA       -10.9480   44.5680   11.5490 C.3   168  ILE168      0.1692
     34  C         -9.8450   43.5310   11.7070 C.2   168  ILE168      0.2592
     35  O         -9.7180   42.6060   10.8790 O.2   168  ILE168     -0.2718
     36  CB       -12.3390   43.9140   11.8400 C.3   168  ILE168      0.0266
     37  CG1      -13.4680   44.9500   11.6830 C.3   168  ILE168      0.0019
     38  CG2      -12.3620   43.2330   13.2210 C.3   168  ILE168      0.0020
     39  CD1      -14.9120   44.3730   11.5740 C.3   168  ILE168      0.0001
     40  N         -9.0380   43.6510   12.7560 N.am  169  GLY169     -0.1957
     41  CA        -8.0020   42.6610   13.0000 C.3   169  GLY169      0.1869
     42  C         -8.6020   41.2990   13.3210 C.2   169  GLY169      0.2309
     43  O         -9.6690   41.2280   13.9950 O.2   169  GLY169     -0.2863
     44  N         -6.5780   38.6230   14.7330 N.3   171  PHE171     -0.1228
     45  CA        -5.4850   37.9650   15.4510 C.3   171  PHE171      0.1721
     46  C         -5.7500   38.1940   16.9470 C.2   171  PHE171      0.2437
     47  O         -6.4660   39.1140   17.3110 O.2   171  PHE171     -0.2733
     48  CB        -4.1200   38.5560   15.0270 C.3   171  PHE171      0.0547
     49  CG        -4.0490   40.0520   15.1310 C.ar  171  PHE171     -0.0202
     50  CD1       -3.6000   40.6660   16.3010 C.ar  171  PHE171     -0.0042
     51  CD2       -4.4820   40.8630   14.0840 C.ar  171  PHE171     -0.0042
     52  CE1       -3.5540   42.0640   16.3970 C.ar  171  PHE171     -0.0003
     53  CE2       -4.4420   42.2550   14.1790 C.ar  171  PHE171     -0.0003
     54  CZ        -3.9860   42.8600   15.3390 C.ar  171  PHE171     -0.0000
     55  N         -5.2150   37.3220   17.8140 N.am  172  PRO172     -0.2718
     56  CA        -5.6130   37.4020   19.2300 C.3   172  PRO172      0.1535
     57  C         -4.9110   38.4230   20.1380 C.2   172  PRO172      0.2599
     58  O         -5.4970   38.8640   21.1320 O.2   172  PRO172     -0.2715
     59  CB        -5.3180   35.9920   19.7460 C.3   172  PRO172      0.0310
     60  CG        -4.2270   35.5120   18.9000 C.3   172  PRO172      0.0237
     61  CD        -4.3740   36.1490   17.5420 C.3   172  PRO172      0.0939
     62  N         -3.6630   38.7660   19.8160 N.am  173  HIS173     -0.1960
     63  CA        -2.8230   39.5770   20.7180 C.3   173  HIS173      0.1787
     64  C         -1.9410   40.5120   19.9310 C.2   173  HIS173      0.2621
     65  O         -1.6500   40.2610   18.7640 O.2   173  HIS173     -0.2715
     66  CB        -1.8920   38.7110   21.5720 C.3   173  HIS173      0.0785
     67  CG        -2.5930   37.6770   22.3860 C.ar  173  HIS173      0.0821
     68  ND1       -3.3630   37.9940   23.4800 N.ar  173  HIS173     -0.2267
     69  CD2       -2.6270   36.3290   22.2680 C.ar  173  HIS173      0.1154
     70  CE1       -3.8500   36.8810   24.0000 C.ar  173  HIS173      0.1986
     71  NE2       -3.4210   35.8590   23.2840 N.ar  173  HIS173     -0.2212
     72  N         -1.4730   41.5640   20.6020 N.am  174  GLY174     -0.1940
     73  CA        -0.5430   42.5060   19.9800 C.3   174  GLY174      0.2014
     74  C         -1.2420   43.6030   19.2050 C.2   174  GLY174      0.2639
     75  O         -2.4570   43.7580   19.2530 O.2   174  GLY174     -0.2714
     76  N         -0.4400   44.3880   18.4930 N.am  175  ASP175     -0.1957
     77  CA        -0.9330   45.5220   17.7160 C.3   175  ASP175      0.1840
     78  C         -0.6520   45.2530   16.2510 C.2   175  ASP175      0.2622
     79  O          0.1540   44.3940   15.9380 O.2   175  ASP175     -0.2715
     80  CB        -0.1960   46.7950   18.1320 C.3   175  ASP175      0.1450
     81  CG        -0.4960   47.1920   19.5580 C.2   175  ASP175      0.3671
     82  OD1        0.3570   46.9280   20.4340 O.co2 175  ASP175     -0.2456
     83  OD2       -1.5910   47.7440   19.8010 O.co2 175  ASP175     -0.2456
     84  N         -1.3030   45.9950   15.3620 N.am  176  PHE176     -0.1974
     85  CA        -1.0330   45.8580   13.9310 C.3   176  PHE176      0.1639
     86  C          0.4400   46.0800   13.6190 C.2   176  PHE176      0.2290
     87  O          1.0830   46.9440   14.2230 O.2   176  PHE176     -0.2864
     88  CB        -1.8480   46.8610   13.1270 C.3   176  PHE176      0.0560
     89  CG        -3.3330   46.6300   13.2000 C.ar  176  PHE176     -0.0200
     90  CD1       -3.9130   45.5750   12.5100 C.ar  176  PHE176     -0.0042
     91  CD2       -4.1460   47.4790   13.9330 C.ar  176  PHE176     -0.0042
     92  CE1       -5.2920   45.3670   12.5760 C.ar  176  PHE176     -0.0003
     93  CE2       -5.5320   47.2720   14.0010 C.ar  176  PHE176     -0.0003
     94  CZ        -6.0940   46.2130   13.3090 C.ar  176  PHE176     -0.0000
     95  N        -11.4000   54.1520   14.0140 N.3   190  VAL190     -0.1231
     96  CA       -12.7030   54.2040   14.6800 C.3   190  VAL190      0.1692
     97  C        -12.6990   53.2990   15.9070 C.2   190  VAL190      0.2593
     98  O        -12.3490   52.1060   15.8280 O.2   190  VAL190     -0.2718
     99  CB       -13.8520   53.7760   13.7270 C.3   190  VAL190      0.0266
    100  CG1      -15.2150   53.9120   14.4160 C.3   190  VAL190      0.0020
    101  CG2      -13.8130   54.5840   12.4160 C.3   190  VAL190      0.0020
    102  N        -13.0550   53.8850   17.0500 N.am  191  SER191     -0.1938
    103  CA       -13.1600   53.1360   18.2920 C.3   191  SER191      0.2055
    104  C        -14.6290   52.8820   18.6330 C.2   191  SER191      0.2643
    105  O        -15.4960   53.7210   18.3830 O.2   191  SER191     -0.2714
    106  CB       -12.4820   53.8800   19.4450 C.3   191  SER191      0.2130
    107  OG       -12.5830   53.1190   20.6410 O.3   191  SER191     -0.2179
    108  N        -14.9020   51.6980   19.1720 N.am  192  LEU192     -0.1963
    109  CA       -16.2400   51.3730   19.6620 C.3   192  LEU192      0.1728
    110  C        -16.3850   51.6630   21.1570 C.2   192  LEU192      0.2616
    111  O        -17.5000   51.7440   21.6690 O.2   192  LEU192     -0.2715
    112  CB       -16.5780   49.9070   19.3910 C.3   192  LEU192      0.0311
    113  CG       -16.6160   49.4880   17.9200 C.3   192  LEU192      0.0022
    114  CD1      -16.9100   47.9870   17.8320 C.3   192  LEU192      0.0001
    115  CD2      -17.6360   50.2960   17.1310 C.3   192  LEU192      0.0001
    116  N        -15.2640   51.8160   21.8460 N.am  193  GLY193     -0.1955
    117  CA       -15.2910   52.0460   23.2920 C.3   193  GLY193      0.1869
    118  C        -13.9320   51.9450   23.9520 C.2   193  GLY193      0.2309
    119  O        -12.9270   51.6520   23.2950 O.2   193  GLY193     -0.2863
    120  N        -12.4700   49.8530   25.8580 N.3   195  GLU195     -0.1231
    121  CA       -12.0260   48.5000   26.2200 C.3   195  GLU195      0.1699
    122  C        -11.5820   47.7800   24.9530 C.2   195  GLU195      0.2593
    123  O        -12.0010   48.1600   23.8580 O.2   195  GLU195     -0.2718
    124  CB       -13.1770   47.6920   26.8440 C.3   195  GLU195      0.0402
    125  CG       -14.1120   48.4510   27.7870 C.3   195  GLU195      0.1161
    126  CD       -15.5170   47.8520   27.8130 C.2   195  GLU195      0.3649
    127  OE1      -16.4640   48.5080   27.3040 O.co2 195  GLU195     -0.2457
    128  OE2      -15.6600   46.7170   28.3250 O.co2 195  GLU195     -0.2457
    129  N        -10.7500   46.7470   25.1120 N.am  196  SER196     -0.1938
    130  CA       -10.3690   45.8550   24.0090 C.3   196  SER196      0.2055
    131  C        -11.4510   44.7910   23.8140 C.2   196  SER196      0.2643
    132  O        -11.6950   43.9770   24.7110 O.2   196  SER196     -0.2714
    133  CB        -9.0300   45.1700   24.3130 C.3   196  SER196      0.2130
    134  OG        -8.5380   44.4440   23.1900 O.3   196  SER196     -0.2179
    135  N        -12.0860   44.8000   22.6410 N.am  197  TYR197     -0.1959
    136  CA       -13.1320   43.8140   22.3150 C.3   197  TYR197      0.1771
    137  C        -12.5790   42.7140   21.4350 C.2   197  TYR197      0.2620
    138  O        -11.5070   42.8590   20.8410 O.2   197  TYR197     -0.2715
    139  CB       -14.3130   44.4950   21.6260 C.3   197  TYR197      0.0574
    140  CG       -14.8930   45.6400   22.4140 C.ar  197  TYR197     -0.0198
    141  CD1      -15.4100   45.4430   23.6960 C.ar  197  TYR197     -0.0009
    142  CD2      -14.9280   46.9220   21.8810 C.ar  197  TYR197     -0.0009
    143  CE1      -15.9330   46.5020   24.4290 C.ar  197  TYR197      0.0417
    144  CE2      -15.4480   47.9840   22.6020 C.ar  197  TYR197      0.0417
    145  CZ       -15.9530   47.7640   23.8710 C.ar  197  TYR197      0.1957
    146  OH       -16.4580   48.8340   24.5780 O.3   197  TYR197     -0.2866
    147  N        -13.2870   41.5970   21.3450 N.am  198  THR198     -0.1937
    148  CA       -12.8650   40.5080   20.4770 C.3   198  THR198      0.2028
    149  C        -13.1810   40.8460   19.0160 C.2   198  THR198      0.2642
    150  O        -14.0470   41.6560   18.7220 O.2   198  THR198     -0.2714
    151  CB       -13.5630   39.1920   20.8070 C.3   198  THR198      0.1808
    152  OG1      -14.9670   39.3460   20.5600 O.3   198  THR198     -0.2208
    153  CG2      -13.3060   38.7790   22.2720 C.3   198  THR198      0.0379
    154  N        -12.4510   40.2050   18.1040 N.am  199  SER199     -0.1949
    155  CA       -12.7440   40.3530   16.6860 C.3   199  SER199      0.1924
    156  C        -14.2030   40.0330   16.3570 C.2   199  SER199      0.2314
    157  O        -14.8390   40.7250   15.5880 O.2   199  SER199     -0.2863
    158  CB       -11.8450   39.4340   15.8690 C.3   199  SER199      0.2116
    159  OG       -10.4710   39.7610   16.0700 O.3   199  SER199     -0.2180
    160  N        -16.5240   42.8860   17.5400 N.3   202  VAL202     -0.1245
    161  CA       -16.3700   44.0520   16.6700 C.3   202  VAL202      0.1561
    162  C        -17.0430   43.8060   15.3220 C.2   202  VAL202      0.2260
    163  O        -17.7800   44.6460   14.8200 O.2   202  VAL202     -0.2867
    164  CB       -14.8790   44.3960   16.4890 C.3   202  VAL202      0.0252
    165  CG1      -14.7150   45.5040   15.4620 C.3   202  VAL202      0.0019
    166  CG2      -14.2890   44.8470   17.8300 C.3   202  VAL202      0.0019
@<TRIPOS>BOND
     1    32    33    1
     2    35    34    2
     3    10     8   ar
     4    10    11   ar
     5    33    34    1
     6    33    36    1
     7    39    37    1
     8    37    36    1
     9    34    40   am
    10    36    38    1
    11     8     6   ar
    12    11     9   ar
    13   101    99    1
    14    90    92   ar
    15    90    89   ar
    16     1     2    1
    17    92    94   ar
    18    40    41    1
    19    41    42    1
    20    88    89    1
    21    88    85    1
    22    89    91   ar
    23     6     5    1
    24     6     7   ar
    25    94    93   ar
    26    42    43    2
    27     9     7   ar
    28    86    85    1
    29    86    87    2
    30    99   100    1
    31    99    96    1
    32     2     5    1
    33     2     3    1
    34    85    84    1
    35    91    93   ar
    36    95    96    1
    37    51    53   ar
    38    51    49   ar
    39    53    54   ar
    40    96    97    1
    41     4     3    2
    42    44    45    1
    43    21    20    1
    44   163   162    2
    45     3    12   am
    46    48    49    1
    47    48    45    1
    48    49    50   ar
    49    17    18    1
    50    17    16    1
    51    18    19    1
    52   162   161    1
    53    54    52   ar
    54    84    78   am
    55    20    19    2
    56    20    22    1
    57    45    46    1
    58   165   164    1
    59   157   156    2
    60    12    13    1
    61    98    97    2
    62   158   159    1
    63   158   155    1
    64    97   102   am
    65    79    78    2
    66    78    77    1
    67    50    52   ar
    68   156   155    1
    69   164   161    1
    70   164   166    1
    71    16    13    1
    72   161   160    1
    73   155   154    1
    74    13    14    1
    75    46    47    2
    76    46    55   am
    77   102   103    1
    78   115   113    1
    79    61    55    1
    80    61    60    1
    81    77    80    1
    82    77    76    1
    83    55    56    1
    84   114   113    1
    85   113   112    1
    86    15    14    2
    87    14    23   am
    88   154   149   am
    89    80    81    1
    90   103   104    1
    91   103   106    1
    92   105   104    2
    93    76    74   am
    94   104   108   am
    95   150   149    2
    96    65    64    2
    97    60    59    1
    98   149   148    1
    99   108   109    1
   100    74    75    2
   101    74    73    1
   102    56    59    1
   103    56    57    1
   104    23    24    1
   105   112   109    1
   106   106   107    1
   107    81    83   ar
   108    81    82   ar
   109   109   110    1
   110    62    57   am
   111    62    63    1
   112    64    72   am
   113    64    63    1
   114    73    72    1
   115    57    58    2
   116   148   151    1
   117   148   147    1
   118    24    25    1
   119    24    27    1
   120   152   151    1
   121    25    26    2
   122    63    66    1
   123   151   153    1
   124   138   137    2
   125   110   111    2
   126   110   116   am
   127   147   137   am
   128   137   136    1
   129    66    67    1
   130   139   136    1
   131   139   140    1
   132    27    28    1
   133   116   117    1
   134   142   140   ar
   135   142   144   ar
   136    69    67   ar
   137    69    71   ar
   138   136   135    1
   139    67    68   ar
   140   140   141   ar
   141   144   145   ar
   142   135   131   am
   143    28    29    1
   144   134   133    1
   145    71    70   ar
   146   117   118    1
   147   119   118    2
   148    68    70   ar
   149   141   143   ar
   150   131   130    1
   151   131   132    2
   152    30    29   ar
   153   123   122    2
   154   145   143   ar
   155   145   146    1
   156   130   133    1
   157   130   129    1
   158    29    31   ar
   159   122   129   am
   160   122   121    1
   161   120   121    1
   162   121   124    1
   163   124   125    1
   164   127   126   ar
   165   125   126    1
   166   126   128   ar
