@<TRIPOS>MOLECULE
tmp/3o7jA00.pdb
 127 123 0 0 0
SMALL
GASTEIGER

@<TRIPOS>ATOM
      1  N         38.4460   -3.5890  -24.2630 N.3    67  HIS67      -0.1227
      2  CA        37.3910   -3.8300  -25.2520 C.3    67  HIS67       0.1737
      3  C         36.0660   -4.2410  -24.6060 C.2    67  HIS67       0.2438
      4  O         35.9920   -5.2870  -23.9530 O.2    67  HIS67      -0.2733
      5  CB        37.8300   -4.8670  -26.2950 C.3    67  HIS67       0.0758
      6  CG        38.8940   -4.3760  -27.2280 C.ar   67  HIS67       0.0818
      7  ND1       38.6770   -3.3640  -28.1400 N.ar   67  HIS67      -0.2268
      8  CD2       40.1810   -4.7640  -27.3990 C.ar   67  HIS67       0.1154
      9  CE1       39.7850   -3.1460  -28.8270 C.ar   67  HIS67       0.1986
     10  NE2       40.7120   -3.9830  -28.3960 N.ar   67  HIS67      -0.2212
     11  N         35.0120   -3.4210  -24.7870 N.am   68  PRO68      -0.2729
     12  CA        33.6890   -3.8150  -24.3000 C.3    68  PRO68       0.1401
     13  C         33.1120   -4.9680  -25.1250 C.2    68  PRO68       0.2269
     14  O         33.5800   -5.2310  -26.2380 O.2    68  PRO68      -0.2865
     15  CB        32.8510   -2.5500  -24.4960 C.3    68  PRO68       0.0296
     16  CG        33.5150   -1.8250  -25.6190 C.3    68  PRO68       0.0237
     17  CD        34.9830   -2.1180  -25.4800 C.3    68  PRO68       0.0939
     18  N         30.5000   -6.8090  -27.5680 N.3    70  ILE70      -0.1245
     19  CA        29.6360   -6.4020  -28.6740 C.3    70  ILE70       0.1561
     20  C         28.2100   -6.2900  -28.1390 C.2    70  ILE70       0.2260
     21  O         27.7260   -7.1960  -27.4620 O.2    70  ILE70      -0.2867
     22  CB        29.6910   -7.4030  -29.8680 C.3    70  ILE70       0.0252
     23  CG1       31.1060   -7.4900  -30.4580 C.3    70  ILE70       0.0019
     24  CG2       28.6630   -7.0320  -30.9490 C.3    70  ILE70       0.0019
     25  CD1       31.6320   -6.1970  -31.1000 C.3    70  ILE70       0.0001
     26  N         35.1040    2.6330  -29.8340 N.3    84  SER84      -0.1217
     27  CA        34.2950    1.4180  -29.7010 C.3    84  SER84       0.1889
     28  C         32.8510    1.6160  -30.1590 C.2    84  SER84       0.2288
     29  O         32.2910    0.7640  -30.8550 O.2    84  SER84      -0.2866
     30  CB        34.3150    0.9060  -28.2620 C.3    84  SER84       0.2089
     31  OG        35.5980    0.4200  -27.9170 O.3    84  SER84      -0.2183
     32  N         32.9260    1.9070  -33.8540 N.3    87  GLU87      -0.1231
     33  CA        33.1990    0.6060  -34.4630 C.3    87  GLU87       0.1699
     34  C         31.9600   -0.2910  -34.4540 C.2    87  GLU87       0.2592
     35  O         31.7780   -1.1150  -35.3470 O.2    87  GLU87      -0.2718
     36  CB        34.3890   -0.0740  -33.7740 C.3    87  GLU87       0.0402
     37  CG        35.7400    0.5600  -34.1350 C.3    87  GLU87       0.1161
     38  CD        36.8310    0.3240  -33.0930 C.2    87  GLU87       0.3649
     39  OE1       36.5420   -0.2320  -32.0150 O.co2  87  GLU87      -0.2457
     40  OE2       37.9890    0.7140  -33.3560 O.co2  87  GLU87      -0.2457
     41  N         31.1040   -0.1030  -33.4540 N.am   88  GLN88      -0.1979
     42  CA        29.8710   -0.8760  -33.3250 C.3    88  GLN88       0.1601
     43  C         28.6570   -0.1710  -33.9380 C.2    88  GLN88       0.2287
     44  O         27.5160   -0.5610  -33.6770 O.2    88  GLN88      -0.2864
     45  CB        29.5930   -1.1980  -31.8500 C.3    88  GLN88       0.0394
     46  CG        30.6000   -2.1350  -31.1980 C.3    88  GLN88       0.0908
     47  CD        30.1200   -2.6620  -29.8540 C.2    88  GLN88       0.2608
     48  OE1       29.0040   -3.1800  -29.7360 O.2    88  GLN88      -0.2717
     49  NE2       30.9670   -2.5480  -28.8380 N.am   88  GLN88      -0.0878
     50  N         36.2090  -12.6110  -23.3410 N.3   116  VAL116     -0.1231
     51  CA        35.2130  -11.8680  -24.1080 C.3   116  VAL116      0.1692
     52  C         35.3930  -12.1330  -25.6060 C.2   116  VAL116      0.2592
     53  O         36.5210  -12.2740  -26.0880 O.2   116  VAL116     -0.2718
     54  CB        35.2990  -10.3480  -23.7990 C.3   116  VAL116      0.0266
     55  CG1       34.4300   -9.5220  -24.7500 C.3   116  VAL116      0.0020
     56  CG2       34.9080  -10.0750  -22.3460 C.3   116  VAL116      0.0020
     57  N         34.2720  -12.2240  -26.3210 N.am  117  PHE117     -0.1962
     58  CA        34.2720  -12.4050  -27.7730 C.3   117  PHE117      0.1771
     59  C         34.8180  -11.1640  -28.4740 C.2   117  PHE117      0.2619
     60  O         34.2520  -10.0730  -28.3650 O.2   117  PHE117     -0.2715
     61  CB        32.8570  -12.7410  -28.2680 C.3   117  PHE117      0.0574
     62  CG        32.7500  -12.8880  -29.7600 C.ar  117  PHE117     -0.0200
     63  CD1       33.3840  -13.9380  -30.4200 C.ar  117  PHE117     -0.0042
     64  CD2       32.0060  -11.9800  -30.5070 C.ar  117  PHE117     -0.0042
     65  CE1       33.2770  -14.0800  -31.8030 C.ar  117  PHE117     -0.0003
     66  CE2       31.8990  -12.1130  -31.8940 C.ar  117  PHE117     -0.0003
     67  CZ        32.5350  -13.1670  -32.5380 C.ar  117  PHE117     -0.0000
     68  N         35.9370  -11.3340  -29.1700 N.am  118  LEU118     -0.1963
     69  CA        36.5810  -10.2200  -29.8650 C.3   118  LEU118      0.1728
     70  C         36.4270  -10.3340  -31.3760 C.2   118  LEU118      0.2616
     71  O         36.7700  -11.3530  -31.9770 O.2   118  LEU118     -0.2715
     72  CB        38.0630  -10.1030  -29.4870 C.3   118  LEU118      0.0311
     73  CG        38.8090   -8.8610  -30.0020 C.3   118  LEU118      0.0022
     74  CD1       38.2900   -7.5640  -29.3580 C.3   118  LEU118      0.0001
     75  CD2       40.3110   -8.9960  -29.8050 C.3   118  LEU118      0.0001
     76  N         35.9090   -9.2740  -31.9760 N.am  119  ILE119     -0.1963
     77  CA        35.7410   -9.2060  -33.4230 C.3   119  ILE119      0.1727
     78  C         35.9360   -7.7690  -33.8910 C.2   119  ILE119      0.2616
     79  O         35.5540   -6.8260  -33.1890 O.2   119  ILE119     -0.2715
     80  CB        34.3530   -9.7680  -33.8610 C.3   119  ILE119      0.0290
     81  CG1       34.2900   -9.9570  -35.3830 C.3   119  ILE119      0.0022
     82  CG2       33.2010   -8.8960  -33.3310 C.3   119  ILE119      0.0023
     83  CD1       33.1060  -10.7930  -35.8540 C.3   119  ILE119      0.0001
     84  N         36.5580   -7.6020  -35.0590 N.am  120  ARG120     -0.1963
     85  CA        36.6530   -6.2890  -35.6830 C.3   120  ARG120      0.1729
     86  C         35.2370   -5.9040  -36.0850 C.2   120  ARG120      0.2616
     87  O         34.6750   -6.4590  -37.0350 O.2   120  ARG120     -0.2715
     88  CB        37.6080   -6.3140  -36.8800 C.3   120  ARG120      0.0348
     89  CG        37.8220   -4.9650  -37.5750 C.3   120  ARG120      0.0492
     90  CD        36.9330   -4.8050  -38.8110 C.3   120  ARG120      0.2205
     91  NE        37.0780   -5.9360  -39.7300 N.pl3 120  ARG120     -0.0865
     92  CZ        36.1220   -6.3810  -40.5440 C.cat 120  ARG120      0.5346
     93  NH1       34.9320   -5.7940  -40.5740 N.pl3 120  ARG120      0.1354
     94  NH2       36.3570   -7.4240  -41.3320 N.pl3 120  ARG120      0.1354
     95  N         34.6590   -4.9710  -35.3330 N.am  121  ALA121     -0.1963
     96  CA        33.2450   -4.6400  -35.4620 C.3   121  ALA121      0.1728
     97  C         32.9540   -3.6560  -36.5900 C.2   121  ALA121      0.2616
     98  O         31.8350   -3.6240  -37.1090 O.2   121  ALA121     -0.2715
     99  CB        32.6960   -4.1200  -34.1360 C.3   121  ALA121      0.0334
    100  N         33.9620   -2.8630  -36.9610 N.am  122  LYS122     -0.1977
    101  CA        33.8160   -1.8120  -37.9730 C.3   122  LYS122      0.1596
    102  C         33.2750   -2.3480  -39.2950 C.2   122  LYS122      0.2287
    103  O         33.8810   -3.2150  -39.9290 O.2   122  LYS122     -0.2864
    104  CB        35.1500   -1.0780  -38.1970 C.3   122  LYS122      0.0298
    105  CG        35.0650    0.1700  -39.0860 C.3   122  LYS122      0.0038
    106  CD        34.2680    1.2870  -38.4210 C.3   122  LYS122      0.0206
    107  CE        34.3230    2.5820  -39.2340 C.3   122  LYS122      0.1093
    108  NZ        35.6290    3.2920  -39.0770 N.3   122  LYS122     -0.1314
    109  N         41.6270   -4.5110  -35.7120 N.3   155  ILE155     -0.1245
    110  CA        41.1220   -3.3960  -34.9040 C.3   155  ILE155      0.1561
    111  C         42.2290   -2.3650  -34.6640 C.2   155  ILE155      0.2260
    112  O         42.0310   -1.1640  -34.8800 O.2   155  ILE155     -0.2867
    113  CB        40.5430   -3.8750  -33.5430 C.3   155  ILE155      0.0252
    114  CG1       39.3140   -4.7680  -33.7590 C.3   155  ILE155      0.0019
    115  CG2       40.1660   -2.6830  -32.6510 C.3   155  ILE155      0.0019
    116  CD1       38.8710   -5.5300  -32.5160 C.3   155  ILE155      0.0001
    117  N         42.5600    1.5250  -36.2070 N.3   159  ARG159     -0.1245
    118  CA        42.6680    2.6540  -35.2800 C.3   159  ARG159      0.1563
    119  C         43.9150    3.4920  -35.5690 C.2   159  ARG159      0.2260
    120  O         43.8450    4.7230  -35.5860 O.2   159  ARG159     -0.2867
    121  CB        42.6470    2.1790  -33.8240 C.3   159  ARG159      0.0307
    122  CG        41.2820    1.6670  -33.3830 C.3   159  ARG159      0.0489
    123  CD        41.2320    1.4190  -31.8890 C.3   159  ARG159      0.2205
    124  NE        39.9290    0.9040  -31.4760 N.pl3 159  ARG159     -0.0865
    125  CZ        39.5790    0.6580  -30.2170 C.cat 159  ARG159      0.5346
    126  NH1       40.4300    0.8890  -29.2210 N.pl3 159  ARG159      0.1354
    127  NH2       38.3670    0.1930  -29.9520 N.pl3 159  ARG159      0.1354
@<TRIPOS>BOND
     1    94    92    1
     2    93    92    1
     3    92    91    2
     4   103   102    2
     5    91    90    1
     6   102   101    1
     7   107   108    1
     8   107   106    1
     9   105   106    1
    10   105   104    1
    11    90    89    1
    12   104   101    1
    13   101   100    1
    14    89    88    1
    15    98    97    2
    16    87    86    2
    17   100    97   am
    18    88    85    1
    19    97    96    1
    20   117   118    1
    21    86    85    1
    22    86    95   am
    23    83    81    1
    24   109   110    1
    25    85    84    1
    26   120   119    2
    27   119   118    1
    28    96    95    1
    29    96    99    1
    30    81    80    1
    31    35    34    2
    32   118   121    1
    33    84    78   am
    34   110   111    1
    35   110   113    1
    36   112   111    2
    37    33    34    1
    38    33    32    1
    39    33    36    1
    40    34    41   am
    41    37    36    1
    42    37    38    1
    43    43    44    2
    44    43    42    1
    45    78    77    1
    46    78    79    2
    47    80    77    1
    48    80    82    1
    49   121   122    1
    50   114   113    1
    51   114   116    1
    52   113   115    1
    53    41    42    1
    54    77    76    1
    55   122   123    1
    56    40    38   ar
    57    42    45    1
    58    38    39   ar
    59    67    66   ar
    60    67    65   ar
    61    71    70    2
    62    76    70   am
    63    66    64   ar
    64   123   124    1
    65    45    46    1
    66    65    63   ar
    67   124   125    2
    68    70    69    1
    69    46    47    1
    70    25    23    1
    71    24    22    1
    72    29    28    2
    73    64    62   ar
    74    23    22    1
    75    63    62   ar
    76   125   127    1
    77   125   126    1
    78    28    27    1
    79    73    75    1
    80    73    72    1
    81    73    74    1
    82    22    19    1
    83    69    72    1
    84    69    68    1
    85    47    48    2
    86    47    49   am
    87    26    27    1
    88    62    61    1
    89    27    30    1
    90    68    59   am
    91     9    10   ar
    92     9     7   ar
    93    19    20    1
    94    19    18    1
    95    59    60    2
    96    59    58    1
    97    10     8   ar
    98    61    58    1
    99    30    31    1
   100     7     6   ar
   101    20    21    2
   102    58    57    1
   103     8     6   ar
   104     6     5    1
   105    57    52   am
   106     5     2    1
   107    14    13    2
   108    53    52    2
   109    16    17    1
   110    16    15    1
   111    52    51    1
   112    17    11    1
   113     2     3    1
   114     2     1    1
   115    13    12    1
   116    11     3   am
   117    11    12    1
   118    55    54    1
   119     3     4    2
   120    15    12    1
   121    51    54    1
   122    51    50    1
   123    54    56    1
