@<TRIPOS>MOLECULE
tmp/3o7qA00.pdb
 193 180 0 0 0
SMALL
GASTEIGER

@<TRIPOS>ATOM
      1  N         73.3290   58.0060  -34.2620 N.3    10  LEU10      -0.1245
      2  CA        74.5720   57.2730  -34.4250 C.3    10  LEU10       0.1561
      3  C         75.4150   57.9130  -35.5070 C.2    10  LEU10       0.2260
      4  O         76.6290   58.0170  -35.3730 O.2    10  LEU10      -0.2867
      5  CB        74.2860   55.8170  -34.7800 C.3    10  LEU10       0.0270
      6  CG        73.8940   54.9340  -33.5960 C.3    10  LEU10       0.0019
      7  CD1       73.5190   53.5400  -34.0600 C.3    10  LEU10       0.0001
      8  CD2       75.0410   54.8790  -32.6030 C.3    10  LEU10       0.0001
      9  N         76.7740   61.0220  -34.3170 N.3    13  LEU13      -0.1231
     10  CA        77.7460   60.5880  -33.3130 C.3    13  LEU13       0.1693
     11  C         78.9820   59.9330  -33.9260 C.2    13  LEU13       0.2592
     12  O         80.0920   60.0620  -33.4060 O.2    13  LEU13      -0.2718
     13  CB        77.0860   59.6690  -32.2930 C.3    13  LEU13       0.0284
     14  CG        76.5330   60.4720  -31.1210 C.3    13  LEU13       0.0019
     15  CD1       75.6190   61.5830  -31.6350 C.3    13  LEU13       0.0001
     16  CD2       75.8170   59.5720  -30.1290 C.3    13  LEU13       0.0001
     17  N         78.7790   59.2630  -35.0560 N.am   14  PHE14      -0.1976
     18  CA        79.8720   58.7860  -35.8880 C.3    14  PHE14       0.1639
     19  C         80.6760   59.9660  -36.3980 C.2    14  PHE14       0.2290
     20  O         81.9080   60.0060  -36.3020 O.2    14  PHE14      -0.2864
     21  CB        79.3000   58.0610  -37.0880 C.3    14  PHE14       0.0560
     22  CG        79.5800   56.6010  -37.0970 C.ar   14  PHE14      -0.0200
     23  CD1       80.5360   56.0730  -37.9580 C.ar   14  PHE14      -0.0042
     24  CD2       78.8890   55.7470  -36.2480 C.ar   14  PHE14      -0.0042
     25  CE1       80.7960   54.7170  -37.9760 C.ar   14  PHE14      -0.0003
     26  CE2       79.1410   54.3910  -36.2590 C.ar   14  PHE14      -0.0003
     27  CZ        80.0990   53.8730  -37.1250 C.ar   14  PHE14      -0.0000
     28  N         82.5070   61.8630  -33.2270 N.3    17  TRP17      -0.1227
     29  CA        83.6500   61.0670  -32.8190 C.3    17  TRP17       0.1737
     30  C         84.7450   61.0890  -33.8820 C.2    17  TRP17       0.2595
     31  O         85.9380   61.1100  -33.5710 O.2    17  TRP17      -0.2718
     32  CB        83.2190   59.6210  -32.6150 C.3    17  TRP17       0.0564
     33  CG        84.2930   58.6830  -33.0330 C.ar   17  TRP17       0.0003
     34  CD1       84.5530   58.2330  -34.3030 C.ar   17  TRP17       0.0946
     35  CD2       85.2840   58.1000  -32.1910 C.ar   17  TRP17       0.0152
     36  NE1       85.6430   57.3950  -34.2930 N.ar   17  TRP17      -0.2442
     37  CE2       86.1080   57.2940  -33.0090 C.ar   17  TRP17       0.0810
     38  CE3       85.5480   58.1690  -30.8220 C.ar   17  TRP17       0.0012
     39  CZ2       87.1760   56.5660  -32.5020 C.ar   17  TRP17       0.0191
     40  CZ3       86.6060   57.4480  -30.3200 C.ar   17  TRP17       0.0001
     41  CH2       87.4110   56.6550  -31.1580 C.ar   17  TRP17       0.0015
     42  N         84.3260   61.0320  -35.1430 N.am   18  ALA18      -0.1980
     43  CA        85.2550   60.9740  -36.2610 C.3    18  ALA18       0.1597
     44  C         86.1340   62.2090  -36.2550 C.2    18  ALA18       0.2287
     45  O         87.2640   62.1790  -36.7410 O.2    18  ALA18      -0.2864
     46  CB        84.4980   60.8650  -37.5700 C.3    18  ALA18       0.0319
     47  N         88.5100   62.0370  -33.0250 N.3    21  ASN21      -0.1225
     48  CA        89.5300   61.0260  -33.2650 C.3    21  ASN21       0.1785
     49  C         90.6360   61.4470  -34.2370 C.2    21  ASN21       0.2597
     50  O         91.8150   61.3690  -33.9100 O.2    21  ASN21      -0.2718
     51  CB        88.9050   59.7170  -33.7320 C.3    21  ASN21       0.1169
     52  CG        89.9490   58.6970  -34.1200 C.2    21  ASN21       0.2627
     53  OD1       90.9920   58.5820  -33.4670 O.2    21  ASN21      -0.2716
     54  ND2       89.6950   57.9690  -35.2060 N.am   21  ASN21      -0.0877
     55  N         90.2800   61.8770  -35.4390 N.am   22  ASN22      -0.1974
     56  CA        91.3350   62.2580  -36.3660 C.3    22  ASN22       0.1688
     57  C         92.0200   63.5380  -35.8790 C.2    22  ASN22       0.2292
     58  O         93.1500   63.8430  -36.2700 O.2    22  ASN22      -0.2864
     59  CB        90.8380   62.3370  -37.8140 C.3    22  ASN22       0.1181
     60  CG        89.9580   63.5310  -38.0650 C.2    22  ASN22       0.2629
     61  OD1       90.1300   64.2380  -39.0580 O.2    22  ASN22      -0.2716
     62  ND2       89.0120   63.7710  -37.1670 N.am   22  ASN22      -0.0877
     63  N         94.6780   62.1460  -34.0770 N.3    25  ASP25      -0.1239
     64  CA        95.6490   61.6950  -35.0840 C.3    25  ASP25       0.1674
     65  C         96.6100   62.7890  -35.5610 C.2    25  ASP25       0.2266
     66  O         97.7830   62.5280  -35.8260 O.2    25  ASP25      -0.2867
     67  CB        94.9230   61.1050  -36.2920 C.3    25  ASP25       0.1410
     68  CG        94.2710   59.7760  -35.9870 C.2    25  ASP25       0.3668
     69  OD1       93.8360   59.0980  -36.9460 O.co2  25  ASP25      -0.2456
     70  OD2       94.2030   59.4090  -34.7920 O.co2  25  ASP25      -0.2456
     71  N         93.8960   45.6530  -32.4220 N.3    53  TYR53      -0.1241
     72  CA        93.2380   45.1350  -33.6250 C.3    53  TYR53       0.1605
     73  C         93.4180   43.6490  -33.8480 C.2    53  TYR53       0.2264
     74  O         93.2570   43.1590  -34.9660 O.2    53  TYR53      -0.2867
     75  CB        93.7060   45.8820  -34.8760 C.3    53  TYR53       0.0534
     76  CG        93.0870   47.2450  -35.0240 C.ar   53  TYR53      -0.0201
     77  CD1       91.7210   47.3840  -35.2380 C.ar   53  TYR53      -0.0009
     78  CD2       93.8640   48.3960  -34.9450 C.ar   53  TYR53      -0.0009
     79  CE1       91.1420   48.6380  -35.3690 C.ar   53  TYR53       0.0417
     80  CE2       93.2990   49.6540  -35.0790 C.ar   53  TYR53       0.0417
     81  CZ        91.9380   49.7710  -35.2920 C.ar   53  TYR53       0.1957
     82  OH        91.3720   51.0200  -35.4290 O.3    53  TYR53      -0.2866
     83  N         80.1650   49.1790  -27.0860 N.3    73  ILE73      -0.1245
     84  CA        80.3500   50.5480  -27.5600 C.3    73  ILE73       0.1561
     85  C         80.7410   51.4710  -26.4150 C.2    73  ILE73       0.2260
     86  O         81.6870   52.2590  -26.5290 O.2    73  ILE73      -0.2867
     87  CB        79.0700   51.0790  -28.2240 C.3    73  ILE73       0.0252
     88  CG1       78.9090   50.4460  -29.6060 C.3    73  ILE73       0.0019
     89  CG2       79.0930   52.6130  -28.2970 C.3    73  ILE73       0.0019
     90  CD1       77.5590   50.6470  -30.2000 C.3    73  ILE73       0.0001
     91  N         84.2370   53.2410  -26.0520 N.3    77  LEU77      -0.1245
     92  CA        84.2570   54.6920  -25.8680 C.3    77  LEU77       0.1561
     93  C         84.9160   55.0630  -24.5440 C.2    77  LEU77       0.2260
     94  O         85.5450   56.1140  -24.4160 O.2    77  LEU77      -0.2867
     95  CB        82.8300   55.2460  -25.8930 C.3    77  LEU77       0.0270
     96  CG        82.2430   55.7830  -27.2010 C.3    77  LEU77       0.0019
     97  CD1       80.7150   55.8750  -27.1200 C.3    77  LEU77       0.0001
     98  CD2       82.8560   57.1350  -27.5340 C.3    77  LEU77       0.0001
     99  N         89.7960   51.4700  -29.7100 N.3   110  LEU110     -0.1245
    100  CA        89.6780   51.3870  -31.1670 C.3   110  LEU110      0.1561
    101  C         89.2160   50.0240  -31.6710 C.2   110  LEU110      0.2260
    102  O         88.2340   49.9300  -32.4020 O.2   110  LEU110     -0.2867
    103  CB        91.0120   51.7470  -31.8170 C.3   110  LEU110      0.0270
    104  CG        91.3770   53.2180  -31.6260 C.3   110  LEU110      0.0019
    105  CD1       92.6640   53.5480  -32.3450 C.3   110  LEU110      0.0001
    106  CD2       90.2360   54.1320  -32.0970 C.3   110  LEU110      0.0001
    107  N         85.6650   49.5820  -30.2880 N.3   113  LEU113     -0.1231
    108  CA        84.6730   50.3250  -31.0550 C.3   113  LEU113      0.1693
    109  C         84.4530   49.7500  -32.4580 C.2   113  LEU113      0.2591
    110  O         83.3240   49.6630  -32.9320 O.2   113  LEU113     -0.2718
    111  CB        85.0900   51.7870  -31.1510 C.3   113  LEU113      0.0284
    112  CG        84.8110   52.5980  -29.8930 C.3   113  LEU113      0.0019
    113  CD1       85.6300   53.8800  -29.8940 C.3   113  LEU113      0.0001
    114  CD2       83.3120   52.8800  -29.7930 C.3   113  LEU113      0.0001
    115  N         85.5340   49.3720  -33.1280 N.am  114  GLU114     -0.1979
    116  CA        85.4220   48.7620  -34.4470 C.3   114  GLU114      0.1602
    117  C         84.5360   47.5380  -34.3860 C.2   114  GLU114      0.2287
    118  O         83.5370   47.4520  -35.0870 O.2   114  GLU114     -0.2864
    119  CB        86.8000   48.3740  -34.9910 C.3   114  GLU114      0.0415
    120  CG        87.4230   49.4280  -35.8980 C.3   114  GLU114      0.1163
    121  CD        86.9510   49.3170  -37.3440 C.2   114  GLU114      0.3649
    122  OE1       87.4980   48.4580  -38.0580 O.co2 114  GLU114     -0.2457
    123  OE2       86.0480   50.0790  -37.7720 O.co2 114  GLU114     -0.2457
    124  N         80.6980   48.8280  -33.1340 N.3   117  ALA117     -0.1231
    125  CA        79.8600   49.7720  -33.8720 C.3   117  ALA117      0.1694
    126  C         79.4090   49.2790  -35.2440 C.2   117  ALA117      0.2592
    127  O         78.2970   49.5700  -35.6860 O.2   117  ALA117     -0.2718
    128  CB        80.5870   51.1010  -34.0160 C.3   117  ALA117      0.0304
    129  N         80.2830   48.5520  -35.9270 N.am  118  ASN118     -0.1974
    130  CA        79.9750   48.0830  -37.2690 C.3   118  ASN118      0.1688
    131  C         78.7690   47.1270  -37.3210 C.2   118  ASN118      0.2292
    132  O         77.7580   47.4480  -37.9480 O.2   118  ASN118     -0.2864
    133  CB        81.2200   47.4650  -37.9180 C.3   118  ASN118      0.1181
    134  CG        82.3720   48.4680  -38.0720 C.2   118  ASN118      0.2629
    135  OD1       82.1500   49.6710  -38.1860 O.2   118  ASN118     -0.2716
    136  ND2       83.6050   47.9650  -38.0830 N.am  118  ASN118     -0.0877
    137  N         79.3520   55.4090  -42.1540 N.3   138  GLN138     -0.1245
    138  CA        80.7620   55.4920  -42.5060 C.3   138  GLN138      0.1566
    139  C         81.0580   56.7450  -43.3090 C.2   138  GLN138      0.2260
    140  O         82.1670   57.2700  -43.2650 O.2   138  GLN138     -0.2867
    141  CB        81.1790   54.2550  -43.2880 C.3   138  GLN138      0.0367
    142  CG        81.4170   53.0700  -42.4010 C.3   138  GLN138      0.0905
    143  CD        82.5400   53.3340  -41.4370 C.2   138  GLN138      0.2608
    144  OE1       83.2940   54.2940  -41.6000 O.2   138  GLN138     -0.2717
    145  NE2       82.6660   52.4880  -40.4230 N.am  138  GLN138     -0.0878
    146  N         81.4760   59.2960  -40.7600 N.3   141  ASN141     -0.1240
    147  CA        82.8540   59.0720  -40.3360 C.3   141  ASN141      0.1653
    148  C         83.8640   59.7950  -41.2470 C.2   141  ASN141      0.2266
    149  O         84.6390   60.6460  -40.7870 O.2   141  ASN141     -0.2867
    150  CB        83.1570   57.5700  -40.3080 C.3   141  ASN141      0.1155
    151  CG        84.4630   57.2450  -39.5960 C.2   141  ASN141      0.2627
    152  OD1       84.7380   56.0860  -39.2940 O.2   141  ASN141     -0.2716
    153  ND2       85.2650   58.2690  -39.3120 N.am  141  ASN141     -0.0877
    154  N         86.2020   63.1230  -40.5170 N.3   145  ALA145     -0.1245
    155  CA        87.6430   63.1700  -40.7580 C.3   145  ALA145      0.1562
    156  C         87.9790   64.3510  -41.6580 C.2   145  ALA145      0.2260
    157  O         88.9950   65.0240  -41.4820 O.2   145  ALA145     -0.2867
    158  CB        88.1230   61.8690  -41.3870 C.3   145  ALA145      0.0290
    159  N         79.8310   61.9380  -26.1810 N.3   201  VAL201     -0.1245
    160  CA        79.3530   60.8990  -27.0810 C.3   201  VAL201      0.1561
    161  C         78.9310   59.6670  -26.2910 C.2   201  VAL201      0.2260
    162  O         77.8390   59.1270  -26.4880 O.2   201  VAL201     -0.2867
    163  CB        80.4360   60.5090  -28.0950 C.3   201  VAL201      0.0252
    164  CG1       80.0500   59.2320  -28.8170 C.3   201  VAL201      0.0019
    165  CG2       80.6690   61.6460  -29.0800 C.3   201  VAL201      0.0019
    166  N         74.9490   58.1430  -25.7100 N.3   205  ILE205     -0.1245
    167  CA        74.6220   56.7400  -25.9140 C.3   205  ILE205      0.1561
    168  C         73.8830   56.1320  -24.7190 C.2   205  ILE205      0.2260
    169  O         72.9100   55.3730  -24.8870 O.2   205  ILE205     -0.2867
    170  CB        75.8830   55.9190  -26.2270 C.3   205  ILE205      0.0252
    171  CG1       76.4250   56.3120  -27.5980 C.3   205  ILE205      0.0019
    172  CG2       75.5770   54.4300  -26.2020 C.3   205  ILE205      0.0019
    173  CD1       75.3960   56.1840  -28.7040 C.3   205  ILE205      0.0001
    174  N         85.1900   48.5800  -47.4920 N.3   344  TYR344     -0.1241
    175  CA        85.2650   48.0870  -46.1140 C.3   344  TYR344      0.1605
    176  C         83.8870   47.8820  -45.4640 C.2   344  TYR344      0.2264
    177  O         83.5870   46.8010  -44.9490 O.2   344  TYR344     -0.2867
    178  CB        86.1100   49.0300  -45.2650 C.3   344  TYR344      0.0534
    179  CG        86.3630   48.5230  -43.8680 C.ar  344  TYR344     -0.0201
    180  CD1       87.4070   47.6440  -43.6170 C.ar  344  TYR344     -0.0009
    181  CD2       85.5650   48.9230  -42.7970 C.ar  344  TYR344     -0.0009
    182  CE1       87.6550   47.1700  -42.3410 C.ar  344  TYR344      0.0417
    183  CE2       85.8040   48.4540  -41.5110 C.ar  344  TYR344      0.0417
    184  CZ        86.8550   47.5740  -41.2940 C.ar  344  TYR344      0.1957
    185  OH        87.1270   47.0850  -40.0390 O.3   344  TYR344     -0.2866
    186  N         92.5290   43.3630  -39.9220 N.3   370  ILE370     -0.1245
    187  CA        93.1990   44.6520  -40.0360 C.3   370  ILE370      0.1561
    188  C         94.6980   44.4370  -39.8630 C.2   370  ILE370      0.2260
    189  O         95.5150   45.2920  -40.2140 O.2   370  ILE370     -0.2867
    190  CB        92.6580   45.6510  -38.9840 C.3   370  ILE370      0.0252
    191  CG1       91.1630   45.9030  -39.2190 C.3   370  ILE370      0.0019
    192  CG2       93.4540   46.9660  -38.9850 C.3   370  ILE370      0.0019
    193  CD1       90.5890   47.0230  -38.3860 C.3   370  ILE370      0.0001
@<TRIPOS>BOND
     1   174   175    1
     2   175   176    1
     3   175   178    1
     4   176   177    2
     5   178   179    1
     6   179   180   ar
     7   179   181   ar
     8   180   182   ar
     9   139   140    2
    10   139   138    1
    11   141   138    1
    12   141   142    1
    13   181   183   ar
    14   138   137    1
    15   142   143    1
    16   182   184   ar
    17   156   157    2
    18   156   155    1
    19   144   143    2
    20   183   184   ar
    21   143   145   am
    22   158   155    1
    23   184   185    1
    24   148   149    2
    25   148   147    1
    26   146   147    1
    27   155   154    1
    28   147   150    1
    29   150   151    1
    30   189   188    2
    31   187   186    1
    32   187   188    1
    33   187   190    1
    34   151   153   am
    35   151   152    2
    36   191   190    1
    37   191   193    1
    38    61    60    2
    39   192   190    1
    40   135   134    2
    41   136   134   am
    42   134   133    1
    43    60    59    1
    44    60    62   am
    45   122   121   ar
    46    25    23   ar
    47    25    27   ar
    48    23    22   ar
    49   132   131    2
    50   133   130    1
    51    59    56    1
    52   123   121   ar
    53    46    43    1
    54   121   120    1
    55   131   130    1
    56   130   129    1
    57    27    26   ar
    58    22    21    1
    59    22    24   ar
    60    21    18    1
    61    69    68   ar
    62    45    44    2
    63    19    20    2
    64    19    18    1
    65    56    57    1
    66    56    55    1
    67    67    68    1
    68    67    64    1
    69    58    57    2
    70    43    44    1
    71    43    42    1
    72    26    24   ar
    73    68    70   ar
    74   129   126   am
    75   120   119    1
    76    18    17    1
    77    66    65    2
    78   127   126    2
    79    65    64    1
    80     3     4    2
    81     3     2    1
    82    55    49   am
    83    82    81    1
    84    79    81   ar
    85    79    77   ar
    86    81    80   ar
    87   126   125    1
    88    77    76   ar
    89    54    52   am
    90    42    30   am
    91   118   117    2
    92    64    63    1
    93    80    78   ar
    94    17    11   am
    95    76    78   ar
    96    76    75    1
    97   119   116    1
    98    74    73    2
    99    75    72    1
   100     5     2    1
   101     5     6    1
   102   116   117    1
   103   116   115    1
   104     2     1    1
   105     9    10    1
   106    34    36   ar
   107    34    33   ar
   108    36    37   ar
   109    49    50    2
   110    49    48    1
   111    52    51    1
   112    52    53    2
   113     7     6    1
   114   128   125    1
   115    11    12    2
   116    11    10    1
   117    30    31    2
   118    30    29    1
   119   125   124    1
   120    73    72    1
   121    51    48    1
   122    72    71    1
   123     6     8    1
   124    10    13    1
   125    48    47    1
   126    28    29    1
   127   115   109   am
   128    33    32    1
   129    33    35   ar
   130    37    39   ar
   131    37    35   ar
   132   110   109    2
   133    29    32    1
   134    39    41   ar
   135   109   108    1
   136   102   101    2
   137   105   104    1
   138    13    14    1
   139    35    38   ar
   140   106   104    1
   141   103   104    1
   142   103   100    1
   143   101   100    1
   144    15    14    1
   145   100    99    1
   146    41    40   ar
   147   111   108    1
   148   111   112    1
   149    14    16    1
   150   108   107    1
   151    38    40   ar
   152    90    88    1
   153   113   112    1
   154   112   114    1
   155    88    87    1
   156   165   163    1
   157   164   163    1
   158   173   171    1
   159    89    87    1
   160    87    84    1
   161   163   160    1
   162   171   170    1
   163    84    83    1
   164    84    85    1
   165    98    96    1
   166    96    97    1
   167    96    95    1
   168   160   161    1
   169   160   159    1
   170    86    85    2
   171   162   161    2
   172   170   172    1
   173   170   167    1
   174    91    92    1
   175   167   166    1
   176   167   168    1
   177    95    92    1
   178    92    93    1
   179   169   168    2
   180    93    94    2
