@<TRIPOS>MOLECULE
tmp/3o7uA01.pdb
 128 121 0 0 0
SMALL
GASTEIGER

@<TRIPOS>ATOM
      1  N        -62.2000   13.0570  -14.7760 N.3    60  HIS60      -0.1241
      2  CA       -63.2720   12.6600  -13.8660 C.3    60  HIS60       0.1621
      3  C        -63.3340   11.1390  -13.8120 C.2    60  HIS60       0.2264
      4  O        -64.0070   10.5110  -14.6200 O.2    60  HIS60      -0.2867
      5  CB       -64.6150   13.2300  -14.3270 C.3    60  HIS60       0.0745
      6  CG       -64.7070   14.7190  -14.1910 C.ar   60  HIS60       0.0817
      7  ND1      -65.3930   15.3330  -13.1630 N.ar   60  HIS60      -0.2268
      8  CD2      -64.1860   15.7160  -14.9440 C.ar   60  HIS60       0.1154
      9  CE1      -65.2920   16.6430  -13.2880 C.ar   60  HIS60       0.1986
     10  NE2      -64.5650   16.9000  -14.3600 N.ar   60  HIS60      -0.2212
     11  N        -72.8480   20.9850  -21.7380 N.3    78  LEU78      -0.1245
     12  CA       -72.4490   20.8300  -20.3500 C.3    78  LEU78       0.1561
     13  C        -73.6730   20.5140  -19.4850 C.2    78  LEU78       0.2260
     14  O        -73.6500   19.6030  -18.6250 O.2    78  LEU78      -0.2867
     15  CB       -71.8090   22.1260  -19.8460 C.3    78  LEU78       0.0270
     16  CG       -71.5280   22.1820  -18.3400 C.3    78  LEU78       0.0019
     17  CD1      -70.5420   21.1010  -17.9410 C.3    78  LEU78       0.0001
     18  CD2      -70.9930   23.5520  -17.9180 C.3    78  LEU78       0.0001
     19  N        -74.7120   17.2190  -17.1520 N.3    82  ILE82      -0.1245
     20  CA       -74.9360   17.1820  -15.7080 C.3    82  ILE82       0.1561
     21  C        -76.2400   16.4500  -15.3390 C.2    82  ILE82       0.2260
     22  O        -76.2770   15.6750  -14.3690 O.2    82  ILE82      -0.2867
     23  CB       -74.8570   18.6080  -15.0950 C.3    82  ILE82       0.0252
     24  CG1      -73.4310   19.1580  -15.2530 C.3    82  ILE82       0.0019
     25  CG2      -75.2510   18.5810  -13.6300 C.3    82  ILE82       0.0019
     26  CD1      -73.2870   20.6420  -14.8920 C.3    82  ILE82       0.0001
     27  N        -65.1750   17.7410   -5.6400 N.3   151  PHE151     -0.1241
     28  CA       -65.8270   18.5800   -6.6650 C.3   151  PHE151      0.1605
     29  C        -67.3320   18.5970   -6.4290 C.2   151  PHE151      0.2264
     30  O        -68.0140   17.6000   -6.6460 O.2   151  PHE151     -0.2867
     31  CB       -65.4800   18.0070   -8.0530 C.3   151  PHE151      0.0534
     32  CG       -66.2890   18.5870   -9.1990 C.ar  151  PHE151     -0.0203
     33  CD1      -66.3450   19.9590   -9.4110 C.ar  151  PHE151     -0.0042
     34  CD2      -66.9480   17.7460  -10.0900 C.ar  151  PHE151     -0.0042
     35  CE1      -67.0680   20.4890  -10.4820 C.ar  151  PHE151     -0.0003
     36  CE2      -67.6710   18.2690  -11.1610 C.ar  151  PHE151     -0.0003
     37  CZ       -67.7240   19.6480  -11.3500 C.ar  151  PHE151     -0.0000
     38  N        -70.3000   19.0590   -7.7790 N.3   153  GLN153     -0.1245
     39  CA       -70.8680   19.1580   -9.1260 C.3   153  GLN153      0.1566
     40  C        -72.1480   19.9770   -9.1730 C.2   153  GLN153      0.2260
     41  O        -72.4050   20.6840  -10.1560 O.2   153  GLN153     -0.2867
     42  CB       -71.1320   17.7550   -9.6920 C.3   153  GLN153      0.0367
     43  CG       -71.8850   17.7040  -11.0460 C.3   153  GLN153      0.0905
     44  CD       -71.0450   18.1830  -12.2320 C.2   153  GLN153      0.2608
     45  OE1      -70.4020   17.3830  -12.9350 O.2   153  GLN153     -0.2717
     46  NE2      -71.0670   19.4910  -12.4720 N.am  153  GLN153     -0.0878
     47  N        -67.8050   25.2850   -8.3870 N.3   180  ILE180     -0.1245
     48  CA       -68.3990   25.4060   -9.7190 C.3   180  ILE180      0.1561
     49  C        -69.3060   26.6470   -9.7600 C.2   180  ILE180      0.2260
     50  O        -70.5310   26.5570   -9.8760 O.2   180  ILE180     -0.2867
     51  CB       -69.1350   24.1030  -10.1380 C.3   180  ILE180      0.0252
     52  CG1      -69.5620   24.1600  -11.6080 C.3   180  ILE180      0.0019
     53  CG2      -70.3250   23.8040   -9.2160 C.3   180  ILE180      0.0019
     54  CD1      -70.2230   22.8620  -12.1020 C.3   180  ILE180      0.0001
     55  N        -63.7320   24.4760  -11.1740 N.3   211  HIS211     -0.1241
     56  CA       -64.3610   24.4870  -12.5100 C.3   211  HIS211      0.1621
     57  C        -64.9110   25.8880  -12.7130 C.2   211  HIS211      0.2264
     58  O        -65.9760   26.2190  -12.2010 O.2   211  HIS211     -0.2867
     59  CB       -65.5080   23.4670  -12.6010 C.3   211  HIS211      0.0745
     60  CG       -65.0460   22.0740  -12.8950 C.ar  211  HIS211      0.0817
     61  ND1      -64.3030   21.3360  -11.9970 N.ar  211  HIS211     -0.2268
     62  CD2      -65.1980   21.2970  -13.9910 C.ar  211  HIS211      0.1154
     63  CE1      -64.0350   20.1530  -12.5210 C.ar  211  HIS211      0.1986
     64  NE2      -64.5580   20.1050  -13.7380 N.ar  211  HIS211     -0.2212
     65  N        -67.1000   27.6910  -16.9750 N.3   214  GLU214     -0.1245
     66  CA       -67.1820   26.7660  -18.0960 C.3   214  GLU214      0.1567
     67  C        -68.5150   26.9930  -18.8100 C.2   214  GLU214      0.2260
     68  O        -69.4420   26.1900  -18.7080 O.2   214  GLU214     -0.2867
     69  CB       -67.0650   25.3030  -17.6430 C.3   214  GLU214      0.0388
     70  CG       -66.9420   24.3480  -18.8340 C.3   214  GLU214      0.1160
     71  CD       -67.0620   22.8690  -18.4510 C.2   214  GLU214      0.3649
     72  OE1      -66.9490   22.0330  -19.3720 O.co2 214  GLU214     -0.2457
     73  OE2      -67.2670   22.5450  -17.2490 O.co2 214  GLU214     -0.2457
     74  N        -60.8390   25.2090  -17.1200 N.3   243  HIS243     -0.1241
     75  CA       -61.7330   25.6050  -18.2210 C.3   243  HIS243      0.1621
     76  C        -61.6370   27.0830  -18.6000 C.2   243  HIS243      0.2264
     77  O        -61.0830   27.4150  -19.6490 O.2   243  HIS243     -0.2867
     78  CB       -63.1990   25.2260  -17.9210 C.3   243  HIS243      0.0745
     79  CG       -63.4720   23.7560  -18.0260 C.ar  243  HIS243      0.0817
     80  ND1      -63.3790   23.0630  -19.2150 N.ar  243  HIS243     -0.2268
     81  CD2      -63.8420   22.8480  -17.0890 C.ar  243  HIS243      0.1154
     82  CE1      -63.6660   21.7910  -19.0040 C.ar  243  HIS243      0.1986
     83  NE2      -63.9620   21.6350  -17.7280 N.ar  243  HIS243     -0.2212
     84  N        -62.7940   18.2190  -24.8870 N.3   275  VAL275     -0.1245
     85  CA       -64.1240   18.4330  -24.3550 C.3   275  VAL275      0.1561
     86  C        -64.6240   19.8480  -24.6800 C.2   275  VAL275      0.2260
     87  O        -65.7860   20.0260  -25.0410 O.2   275  VAL275     -0.2867
     88  CB       -64.1800   18.1370  -22.8470 C.3   275  VAL275      0.0252
     89  CG1      -65.5320   18.5030  -22.2820 C.3   275  VAL275      0.0019
     90  CG2      -63.8940   16.6420  -22.6080 C.3   275  VAL275      0.0019
     91  N        -68.2780   20.7570  -26.2580 N.3   279  LEU279     -0.1245
     92  CA       -69.3570   21.3190  -25.4330 C.3   279  LEU279      0.1561
     93  C        -69.5720   22.8050  -25.6480 C.2   279  LEU279      0.2260
     94  O        -70.6380   23.3360  -25.3060 O.2   279  LEU279     -0.2867
     95  CB       -69.0610   21.1460  -23.9440 C.3   279  LEU279      0.0270
     96  CG       -68.9080   19.7120  -23.4340 C.3   279  LEU279      0.0019
     97  CD1      -68.7340   19.7530  -21.9230 C.3   279  LEU279      0.0001
     98  CD2      -70.1150   18.8510  -23.8350 C.3   279  LEU279      0.0001
     99  N        -59.9710   15.6780  -19.3810 N.3   310  ASP310     -0.1225
    100  CA       -61.2690   15.9680  -18.7560 C.3   310  ASP310      0.1805
    101  C        -62.1810   14.7440  -18.6160 C.2   310  ASP310      0.2597
    102  O        -62.5320   14.3450  -17.5030 O.2   310  ASP310     -0.2718
    103  CB       -61.9910   17.1060  -19.4980 C.3   310  ASP310      0.1424
    104  CG       -63.0480   17.7990  -18.6440 C.2   310  ASP310      0.3668
    105  OD1      -63.6910   18.7480  -19.1560 O.co2 310  ASP310     -0.2456
    106  OD2      -63.2350   17.4130  -17.4690 O.co2 310  ASP310     -0.2456
    107  N        -62.5680   14.1570  -19.7390 N.am  311  ASP311     -0.1974
    108  CA       -63.5700   13.1000  -19.7220 C.3   311  ASP311      0.1709
    109  C        -63.1780   11.9740  -20.6570 C.2   311  ASP311      0.2293
    110  O        -62.6600   12.2150  -21.7470 O.2   311  ASP311     -0.2864
    111  CB       -64.9390   13.6590  -20.1340 C.3   311  ASP311      0.1436
    112  CG       -65.4460   14.7150  -19.1660 C.2   311  ASP311      0.3671
    113  OD1      -65.2170   15.9220  -19.3990 O.co2 311  ASP311     -0.2456
    114  OD2      -66.0540   14.3340  -18.1470 O.co2 311  ASP311     -0.2456
    115  N        -70.1390   13.7090  -20.8550 N.3   316  TRP316     -0.1241
    116  CA       -69.6380   14.9250  -21.5070 C.3   316  TRP316      0.1605
    117  C        -68.7360   14.6670  -22.7020 C.2   316  TRP316      0.2264
    118  O        -68.3620   15.6090  -23.4020 O.2   316  TRP316     -0.2867
    119  CB       -68.8940   15.7990  -20.5020 C.3   316  TRP316      0.0550
    120  CG       -69.7720   16.2710  -19.3850 C.ar  316  TRP316      0.0003
    121  CD1      -70.5590   17.3910  -19.3750 C.ar  316  TRP316      0.0946
    122  CD2      -69.9590   15.6340  -18.1150 C.ar  316  TRP316      0.0152
    123  NE1      -71.2290   17.4850  -18.1700 N.ar  316  TRP316     -0.2442
    124  CE2      -70.8800   16.4180  -17.3850 C.ar  316  TRP316      0.0810
    125  CE3      -69.4420   14.4740  -17.5270 C.ar  316  TRP316      0.0012
    126  CZ2      -71.2810   16.0890  -16.0890 C.ar  316  TRP316      0.0191
    127  CZ3      -69.8490   14.1430  -16.2460 C.ar  316  TRP316      0.0001
    128  CH2      -70.7570   14.9490  -15.5420 C.ar  316  TRP316      0.0015
@<TRIPOS>BOND
     1    91    92    1
     2    93    92    1
     3    93    94    2
     4    92    95    1
     5    87    86    2
     6    84    85    1
     7    86    85    1
     8    85    88    1
     9    95    96    1
    10    98    96    1
    11    96    97    1
    12   118   117    2
    13    88    90    1
    14    88    89    1
    15   117   116    1
    16   110   109    2
    17    11    12    1
    18   116   115    1
    19   116   119    1
    20   109   108    1
    21   119   120    1
    22    12    15    1
    23    12    13    1
    24   111   108    1
    25   111   112    1
    26    15    16    1
    27   107   108    1
    28   107   101   am
    29    77    76    2
    30   103   100    1
    31   103   104    1
    32    13    14    2
    33   113   112   ar
    34   120   121   ar
    35   120   122   ar
    36    99   100    1
    37   121   123   ar
    38    72    71   ar
    39    80    82   ar
    40    80    79   ar
    41   112   114   ar
    42   105   104   ar
    43    82    83   ar
    44    70    71    1
    45    70    69    1
    46    67    68    2
    47    67    66    1
    48   100   101    1
    49   104   106   ar
    50   101   102    2
    51    76    75    1
    52    71    73   ar
    53    16    17    1
    54    16    18    1
    55    75    78    1
    56    75    74    1
    57   123   124   ar
    58   122   125   ar
    59   122   124   ar
    60    66    69    1
    61    66    65    1
    62    79    78    1
    63    79    81   ar
    64    83    81   ar
    65   125   127   ar
    66   124   126   ar
    67    19    20    1
    68   127   128   ar
    69   126   128   ar
    70    20    21    1
    71    20    23    1
    72    21    22    2
    73    24    23    1
    74    24    26    1
    75    23    25    1
    76     8    10   ar
    77     8     6   ar
    78     1     2    1
    79     4     3    2
    80    10     9   ar
    81     5     6    1
    82     5     2    1
    83     6     7   ar
    84    62    64   ar
    85    62    60   ar
    86     2     3    1
    87    64    63   ar
    88     9     7   ar
    89    45    44    2
    90    60    59    1
    91    60    61   ar
    92    57    56    1
    93    57    58    2
    94    59    56    1
    95    63    61   ar
    96    56    55    1
    97    46    44   am
    98    44    43    1
    99    54    52    1
   100    52    51    1
   101    37    36   ar
   102    37    35   ar
   103    36    34   ar
   104    43    42    1
   105    35    33   ar
   106    41    40    2
   107    51    48    1
   108    51    53    1
   109    34    32   ar
   110    50    49    2
   111    49    48    1
   112    48    47    1
   113    42    39    1
   114    33    32   ar
   115    32    31    1
   116    40    39    1
   117    39    38    1
   118    31    28    1
   119    28    29    1
   120    28    27    1
   121    30    29    2
