@<TRIPOS>MOLECULE
tmp/3o7wA00.pdb
 178 169 0 0 0
SMALL
GASTEIGER

@<TRIPOS>ATOM
      1  N         34.5740   -7.1760    8.2200 N.3     3  GLU3       -0.1245
      2  CA        33.1730   -7.2780    8.6940 C.3     3  GLU3        0.1567
      3  C         32.2970   -7.8050    7.5440 C.2     3  GLU3        0.2260
      4  O         32.6100   -7.5500    6.3850 O.2     3  GLU3       -0.2867
      5  CB        32.6900   -5.8790    9.1030 C.3     3  GLU3        0.0388
      6  CG        31.6960   -5.8460   10.2490 C.3     3  GLU3        0.1160
      7  CD        31.2380   -4.4350   10.6390 C.2     3  GLU3        0.3649
      8  OE1       31.1890   -4.1260   11.8530 O.co2   3  GLU3       -0.2457
      9  OE2       30.8650   -3.6540    9.7540 O.co2   3  GLU3       -0.2457
     10  N         28.7030   -7.1890    6.0370 N.3     5  ALA5       -0.1231
     11  CA        27.6640   -6.1630    6.1760 C.3     5  ALA5        0.1694
     12  C         26.3070   -6.8000    6.3900 C.2     5  ALA5        0.2592
     13  O         25.4770   -6.3170    7.1710 O.2     5  ALA5       -0.2718
     14  CB        27.6350   -5.2700    4.9460 C.3     5  ALA5        0.0304
     15  N         26.1180   -7.9340    5.7470 N.am    6  SER6       -0.1952
     16  CA        24.8470   -8.6160    5.8060 C.3     6  SER6        0.1924
     17  C         24.6280   -9.3300    7.1660 C.2     6  SER6        0.2314
     18  O         23.5060   -9.3310    7.6830 O.2     6  SER6       -0.2863
     19  CB        24.6420   -9.4940    4.5660 C.3     6  SER6        0.2116
     20  OG        25.3240  -10.7170    4.7220 O.3     6  SER6       -0.2180
     21  N         23.7690   -6.3860    9.4230 N.3     9  LYS9       -0.1245
     22  CA        22.4150   -5.9310    9.1300 C.3     9  LYS9        0.1561
     23  C         21.4020   -6.8440    9.7920 C.2     9  LYS9        0.2260
     24  O         20.4040   -6.3810   10.3590 O.2     9  LYS9       -0.2867
     25  CB        22.1900   -5.8420    7.6050 C.3     9  LYS9        0.0271
     26  CG        22.7360   -4.5340    7.0190 C.3     9  LYS9        0.0035
     27  CD        22.5710   -4.4220    5.4870 C.3     9  LYS9        0.0206
     28  CE        23.5980   -3.4270    4.9200 C.3     9  LYS9        0.1093
     29  NZ        23.5880   -3.2890    3.4090 N.3     9  LYS9       -0.1314
     30  N         23.4020    4.1440    7.4290 N.3    45  ARG45      -0.1245
     31  CA        23.8140    3.6940    6.0700 C.3    45  ARG45       0.1563
     32  C         22.6100    3.2080    5.2690 C.2    45  ARG45       0.2260
     33  O         22.3790    3.6650    4.1430 O.2    45  ARG45      -0.2867
     34  CB        24.8360    2.5720    6.2330 C.3    45  ARG45       0.0307
     35  CG        25.0920    1.6570    5.0420 C.3    45  ARG45       0.0489
     36  CD        26.0700    0.5910    5.5030 C.3    45  ARG45       0.2205
     37  NE        26.3670   -0.4560    4.5190 N.pl3  45  ARG45      -0.0865
     38  CZ        27.4090   -1.2760    4.5990 C.cat  45  ARG45       0.5346
     39  NH1       28.3100   -1.1270    5.5700 N.pl3  45  ARG45       0.1354
     40  NH2       27.5980   -2.1760    3.6600 N.pl3  45  ARG45       0.1354
     41  N         22.2380   -3.1160   -8.5350 N.3    68  ASN68      -0.1240
     42  CA        23.0060   -2.9790   -7.3480 C.3    68  ASN68       0.1653
     43  C         24.2870   -3.7690   -7.5380 C.2    68  ASN68       0.2266
     44  O         24.2360   -4.9780   -7.6680 O.2    68  ASN68      -0.2867
     45  CB        22.2170   -3.4650   -6.1360 C.3    68  ASN68       0.1155
     46  CG        22.9580   -3.2200   -4.8270 C.2    68  ASN68       0.2627
     47  OD1       24.1260   -3.6000   -4.6720 O.2    68  ASN68      -0.2716
     48  ND2       22.2880   -2.5780   -3.8870 N.am   68  ASN68      -0.0877
     49  N         27.6540   -5.4660   -6.5480 N.3    70  GLY70      -0.1210
     50  CA        28.2110   -6.0220   -5.3170 C.3    70  GLY70       0.1956
     51  C         27.1590   -6.1140   -4.2140 C.2    70  GLY70       0.2612
     52  O         27.4450   -5.7950   -3.0170 O.2    70  GLY70      -0.2717
     53  N         25.9620   -6.5720   -4.6080 N.am   71  ALA71      -0.1965
     54  CA        24.7560   -6.6050   -3.7620 C.3    71  ALA71       0.1728
     55  C         24.8220   -7.5040   -2.5400 C.2    71  ALA71       0.2617
     56  O         24.0750   -7.2890   -1.5730 O.2    71  ALA71      -0.2715
     57  CB        23.5330   -7.0190   -4.6140 C.3    71  ALA71       0.0334
     58  N         25.6360   -8.5630   -2.6050 N.am   72  GLY72      -0.1940
     59  CA        25.7490   -9.5200   -1.4860 C.3    72  GLY72       0.2014
     60  C         24.3930  -10.1630   -1.1570 C.2    72  GLY72       0.2639
     61  O         23.6250  -10.4810   -2.0760 O.2    72  GLY72      -0.2714
     62  N         24.1010  -10.3540    0.1250 N.am   73  MET73      -0.1963
     63  CA        22.7630  -10.8390    0.5500 C.3    73  MET73       0.1736
     64  C         21.7460   -9.7110    0.7740 C.2    73  MET73       0.2616
     65  O         20.9420   -9.7580    1.7130 O.2    73  MET73      -0.2715
     66  CB        22.8350  -11.7240    1.8090 C.3    73  MET73       0.0427
     67  CG        23.8050  -12.8560    1.6900 C.3    73  MET73       0.0599
     68  SD        23.3650  -14.0220    0.3550 S.3    73  MET73      -0.1393
     69  CE        24.9820  -14.4420   -0.2600 C.3    73  MET73       0.0692
     70  N         21.7780   -8.6970   -0.0870 N.am   74  ASP74      -0.1971
     71  CA        20.8690   -7.5700    0.0820 C.3    74  ASP74       0.1709
     72  C         19.4270   -8.0340   -0.0540 C.2    74  ASP74       0.2293
     73  O         19.1140   -8.8820   -0.8940 O.2    74  ASP74      -0.2864
     74  CB        21.1750   -6.4700   -0.9530 C.3    74  ASP74       0.1436
     75  CG        20.8490   -5.0850   -0.4390 C.2    74  ASP74       0.3671
     76  OD1       20.0960   -4.9630    0.5390 O.co2  74  ASP74      -0.2456
     77  OD2       21.4000   -4.1000   -0.9690 O.co2  74  ASP74      -0.2456
     78  N         27.1410   -9.7890   -8.2340 N.3    94  ASP94      -0.1225
     79  CA        28.2290  -10.1090   -7.3250 C.3    94  ASP94       0.1805
     80  C         29.1160  -11.1840   -7.8890 C.2    94  ASP94       0.2597
     81  O         28.8310  -11.7570   -8.9440 O.2    94  ASP94      -0.2718
     82  CB        27.6940  -10.5390   -5.9600 C.3    94  ASP94       0.1424
     83  CG        28.6310  -10.1330   -4.8100 C.2    94  ASP94       0.3668
     84  OD1       29.8150  -10.5460   -4.7910 O.co2  94  ASP94      -0.2456
     85  OD2       28.1620   -9.4340   -3.9170 O.co2  94  ASP94      -0.2456
     86  N         30.2160  -11.4690   -7.2130 N.am   95  PHE95      -0.1976
     87  CA        30.9910  -12.6290   -7.5970 C.3    95  PHE95       0.1639
     88  C         30.1330  -13.8780   -7.7360 C.2    95  PHE95       0.2290
     89  O         29.2410  -14.1040   -6.9070 O.2    95  PHE95      -0.2864
     90  CB        32.0400  -12.8700   -6.5200 C.3    95  PHE95       0.0560
     91  CG        33.2760  -12.0380   -6.6940 C.ar   95  PHE95      -0.0200
     92  CD1       33.6410  -11.1190   -5.7280 C.ar   95  PHE95      -0.0042
     93  CD2       34.0560  -12.1680   -7.8260 C.ar   95  PHE95      -0.0042
     94  CE1       34.8040  -10.3740   -5.8420 C.ar   95  PHE95      -0.0003
     95  CE2       35.1980  -11.3890   -7.9770 C.ar   95  PHE95      -0.0003
     96  CZ        35.5740  -10.4990   -6.9570 C.ar   95  PHE95      -0.0000
     97  N         29.3820  -15.8640   -4.5480 N.3    98  ILE98      -0.1245
     98  CA        28.4570  -15.1290   -3.6730 C.3    98  ILE98       0.1561
     99  C         27.0340  -15.2920   -4.2030 C.2    98  ILE98       0.2260
    100  O         26.1030  -15.5520   -3.4370 O.2    98  ILE98      -0.2867
    101  CB        28.8130  -13.6470   -3.5540 C.3    98  ILE98       0.0252
    102  CG1       30.2290  -13.4450   -2.9530 C.3    98  ILE98       0.0019
    103  CG2       27.7670  -12.9120   -2.6600 C.3    98  ILE98       0.0019
    104  CD1       30.3570  -13.9810   -1.5210 C.3    98  ILE98       0.0001
    105  N         29.1490  -12.1100  -11.7690 N.3   142  ALA142     -0.1231
    106  CA        30.1310  -11.5280  -12.6990 C.3   142  ALA142      0.1694
    107  C         31.2230  -10.8330  -11.8890 C.2   142  ALA142      0.2592
    108  O         31.0670  -10.5770  -10.6900 O.2   142  ALA142     -0.2718
    109  CB        29.4590  -10.5140  -13.6480 C.3   142  ALA142      0.0304
    110  N         32.3120  -10.5020  -12.5610 N.am  143  ASP143     -0.1960
    111  CA        33.3830   -9.7340  -11.9500 C.3   143  ASP143      0.1840
    112  C         33.2500   -8.3140  -12.4240 C.2   143  ASP143      0.2622
    113  O         33.3280   -8.0430  -13.6210 O.2   143  ASP143     -0.2715
    114  CB        34.7160  -10.2850  -12.4150 C.3   143  ASP143      0.1450
    115  CG        35.8620   -9.8080  -11.5700 C.2   143  ASP143      0.3671
    116  OD1       35.8840   -8.6330  -11.1620 O.co2 143  ASP143     -0.2456
    117  OD2       36.7610  -10.6240  -11.3320 O.co2 143  ASP143     -0.2456
    118  N         33.0530   -7.4070  -11.4720 N.am  144  LEU144     -0.1963
    119  CA        32.9310   -5.9750  -11.7590 C.3   144  LEU144      0.1728
    120  C         34.1920   -5.3830  -12.4050 C.2   144  LEU144      0.2616
    121  O         34.1680   -4.2610  -12.8820 O.2   144  LEU144     -0.2715
    122  CB        32.6340   -5.2200  -10.4630 C.3   144  LEU144      0.0311
    123  CG        31.2390   -5.5280   -9.8750 C.3   144  LEU144      0.0022
    124  CD1       31.1930   -4.8380   -8.5340 C.3   144  LEU144      0.0001
    125  CD2       30.1390   -5.0080  -10.8100 C.3   144  LEU144      0.0001
    126  N         35.2940   -6.1210  -12.3860 N.am  145  ARG145     -0.1977
    127  CA        36.5280   -5.6450  -13.0450 C.3   145  ARG145      0.1597
    128  C         36.5830   -6.0490  -14.5130 C.2   145  ARG145      0.2287
    129  O         37.5400   -5.7220  -15.2440 O.2   145  ARG145     -0.2864
    130  CB        37.7480   -6.1800  -12.2880 C.3   145  ARG145      0.0334
    131  CG        37.7960   -5.6470  -10.8150 C.3   145  ARG145      0.0492
    132  CD        38.6950   -6.5190   -9.8890 C.3   145  ARG145      0.2205
    133  NE        38.3760   -7.9470   -9.9490 N.pl3 145  ARG145     -0.0865
    134  CZ        39.1930   -8.8970   -9.4990 C.cat 145  ARG145      0.5346
    135  NH1       40.3860   -8.5710   -8.9890 N.pl3 145  ARG145      0.1354
    136  NH2       38.8360  -10.1700   -9.5670 N.pl3 145  ARG145      0.1354
    137  N         27.5610   -0.0780   -2.7470 N.3   170  GLU170     -0.1231
    138  CA        27.4650    0.1800   -1.3010 C.3   170  GLU170      0.1699
    139  C         28.5220   -0.6990   -0.6620 C.2   170  GLU170      0.2592
    140  O         28.3040   -1.9000   -0.5020 O.2   170  GLU170     -0.2718
    141  CB        26.0910   -0.2560   -0.7580 C.3   170  GLU170      0.0402
    142  CG        25.8370    0.0490    0.7610 C.3   170  GLU170      0.1161
    143  CD        24.5760   -0.5960    1.3240 C.2   170  GLU170      0.3649
    144  OE1       23.6670   -0.9060    0.5400 O.co2 170  GLU170     -0.2457
    145  OE2       24.4720   -0.7970    2.5600 O.co2 170  GLU170     -0.2457
    146  N         29.6720   -0.0840   -0.3670 N.am  171  CYS171     -0.1956
    147  CA        30.8660   -0.7520    0.1790 C.3   171  CYS171      0.1843
    148  C         31.4590   -1.7710   -0.7710 C.2   171  CYS171      0.2625
    149  O         31.8420   -2.8520   -0.3560 O.2   171  CYS171     -0.2714
    150  CB        30.5450   -1.4380    1.5050 C.3   171  CYS171      0.0997
    151  SG        30.7410   -0.3860    2.8570 S.3   171  CYS171     -0.0797
    152  N         31.5390   -1.4380   -2.0480 N.am  172  VAL172     -0.1977
    153  CA        32.0690   -2.3810   -3.0090 C.3   172  VAL172      0.1596
    154  C         33.3710   -1.8620   -3.6430 C.2   172  VAL172      0.2287
    155  O         34.2620   -2.6300   -4.0070 O.2   172  VAL172     -0.2864
    156  CB        31.0480   -2.5250   -4.1580 C.3   172  VAL172      0.0276
    157  CG1       31.6690   -3.2720   -5.3370 C.3   172  VAL172      0.0022
    158  CG2       29.7860   -3.1410   -3.6410 C.3   172  VAL172      0.0022
    159  N         37.1460   -2.7760   -2.8480 N.3   175  TYR175     -0.1227
    160  CA        37.6660   -4.0920   -3.1760 C.3   175  TYR175      0.1736
    161  C         38.3420   -4.1150   -4.5520 C.2   175  TYR175      0.2595
    162  O         38.8400   -5.1380   -4.9620 O.2   175  TYR175     -0.2718
    163  CB        36.5180   -5.1190   -3.1540 C.3   175  TYR175      0.0548
    164  CG        35.9530   -5.2860   -1.7560 C.ar  175  TYR175     -0.0200
    165  CD1       36.7120   -5.8860   -0.7620 C.ar  175  TYR175     -0.0009
    166  CD2       34.7170   -4.7450   -1.4080 C.ar  175  TYR175     -0.0009
    167  CE1       36.2500   -5.9930    0.5290 C.ar  175  TYR175      0.0417
    168  CE2       34.2330   -4.8590   -0.1210 C.ar  175  TYR175      0.0417
    169  CZ        35.0070   -5.4890    0.8450 C.ar  175  TYR175      0.1957
    170  OH        34.5470   -5.6200    2.1460 O.3   175  TYR175     -0.2866
    171  N         38.3190   -2.9940   -5.2650 N.am  176  MET176     -0.1979
    172  CA        39.0400   -2.9000   -6.5220 C.3   176  MET176      0.1605
    173  C         40.0040   -1.7260   -6.5210 C.2   176  MET176      0.2287
    174  O         39.9480   -0.8810   -5.6220 O.2   176  MET176     -0.2864
    175  CB        38.0690   -2.8610   -7.6900 C.3   176  MET176      0.0413
    176  CG        37.0150   -1.7880   -7.6430 C.3   176  MET176      0.0598
    177  SD        35.7590   -2.1010   -8.9450 S.3   176  MET176     -0.1393
    178  CE        34.4330   -2.8670   -8.0010 C.3   176  MET176      0.0692
@<TRIPOS>BOND
     1   129   128    2
     2   128   127    1
     3   109   106    1
     4   113   112    2
     5   127   126    1
     6   127   130    1
     7   121   120    2
     8   106   107    1
     9   106   105    1
    10   110   111    1
    11   110   107   am
    12   112   111    1
    13   112   118   am
    14   114   111    1
    15   114   115    1
    16   120   126   am
    17   120   119    1
    18   130   131    1
    19   107   108    2
    20   119   118    1
    21   119   122    1
    22   115   117   ar
    23   115   116   ar
    24   131   132    1
    25   125   123    1
    26   122   123    1
    27   133   132    1
    28   133   134    2
    29   123   124    1
    30   136   134    1
    31   134   135    1
    32   177   178    1
    33   177   176    1
    34    81    80    2
    35    41    42    1
    36    78    79    1
    37    95    93   ar
    38    95    96   ar
    39    80    79    1
    40    80    86   am
    41    93    91   ar
    42    88    87    1
    43    88    89    2
    44   175   176    1
    45   175   172    1
    46    44    43    2
    47    87    86    1
    48    87    90    1
    49    43    42    1
    50    42    45    1
    51    79    82    1
    52    96    94   ar
    53    91    90    1
    54    91    92   ar
    55    49    50    1
    56   172   173    1
    57   172   171    1
    58   173   174    2
    59    45    46    1
    60    82    83    1
    61    94    92   ar
    62   157   156    1
    63    50    51    1
    64   171   161   am
    65   162   161    2
    66    46    47    2
    67    46    48   am
    68    83    84   ar
    69    83    85   ar
    70    57    54    1
    71    53    51   am
    72    53    54    1
    73   161   160    1
    74    97    98    1
    75    51    52    2
    76    99    98    1
    77    99   100    2
    78   156   158    1
    79   156   153    1
    80   155   154    2
    81    54    55    1
    82    98   101    1
    83   154   153    1
    84   101   102    1
    85   101   103    1
    86   160   163    1
    87   160   159    1
    88   163   164    1
    89   153   152    1
    90   102   104    1
    91   137   138    1
    92    58    55   am
    93    58    59    1
    94    55    56    2
    95    61    60    2
    96   152   148   am
    97   164   166   ar
    98   164   165   ar
    99    59    60    1
   100   166   168   ar
   101   138   141    1
   102   138   139    1
   103    60    62   am
   104    77    75   ar
   105    74    75    1
   106    74    71    1
   107    73    72    2
   108   148   149    2
   109   148   147    1
   110   165   167   ar
   111   141   142    1
   112   139   140    2
   113   139   146   am
   114    75    76   ar
   115   146   147    1
   116    69    68    1
   117   168   169   ar
   118    70    71    1
   119    70    64   am
   120    72    71    1
   121    62    63    1
   122   147   150    1
   123    68    67    1
   124   167   169   ar
   125   144   143   ar
   126    63    64    1
   127    63    66    1
   128   142   143    1
   129    64    65    2
   130   169   170    1
   131   143   145   ar
   132   150   151    1
   133    67    66    1
   134    29    28    1
   135    40    38    1
   136    33    32    2
   137    37    38    2
   138    37    36    1
   139    19    20    1
   140    19    16    1
   141    38    39    1
   142    28    27    1
   143    14    11    1
   144    35    36    1
   145    35    34    1
   146    32    31    1
   147    27    26    1
   148    15    16    1
   149    15    12   am
   150    16    17    1
   151    10    11    1
   152    31    34    1
   153    31    30    1
   154    11    12    1
   155     4     3    2
   156    12    13    2
   157    26    25    1
   158    17    18    2
   159     3     2    1
   160    25    22    1
   161     1     2    1
   162     2     5    1
   163     5     6    1
   164    22    21    1
   165    22    23    1
   166     9     7   ar
   167    23    24    2
   168     6     7    1
   169     7     8   ar
