@<TRIPOS>MOLECULE
tmp/3o80A01.pdb
 118 112 0 0 0
SMALL
GASTEIGER

@<TRIPOS>ATOM
      1  N         25.4210   54.1480   -0.8300 N.3    18  PHE18      -0.1227
      2  CA        24.7140   52.8720   -0.5940 C.3    18  PHE18       0.1736
      3  C         23.8940   52.2840   -1.7360 C.2    18  PHE18       0.2596
      4  O         23.4640   51.1260   -1.6390 O.2    18  PHE18      -0.2718
      5  CB        23.8000   53.0110    0.6140 C.3    18  PHE18       0.0547
      6  CG        24.5340   53.0160    1.9090 C.ar   18  PHE18      -0.0202
      7  CD1       24.9310   51.8080    2.5020 C.ar   18  PHE18      -0.0042
      8  CD2       24.7860   54.1980    2.5670 C.ar   18  PHE18      -0.0042
      9  CE1       25.5790   51.8090    3.7390 C.ar   18  PHE18      -0.0003
     10  CE2       25.4750   54.2120    3.7660 C.ar   18  PHE18      -0.0003
     11  CZ        25.8770   53.0200    4.3410 C.ar   18  PHE18      -0.0000
     12  N         23.6970   53.0310   -2.8250 N.am   19  THR19      -0.1939
     13  CA        22.8750   52.5010   -3.8970 C.3    19  THR19       0.2028
     14  C         23.7350   51.6150   -4.7840 C.2    19  THR19       0.2642
     15  O         24.9240   51.8650   -4.9730 O.2    19  THR19      -0.2714
     16  CB        22.2500   53.5940   -4.7620 C.3    19  THR19       0.1808
     17  OG1       23.3110   54.3140   -5.3400 O.3    19  THR19      -0.2208
     18  CG2       21.3810   54.5800   -3.8730 C.3    19  THR19       0.0379
     19  N         23.1130   50.5740   -5.3130 N.am   20  VAL20      -0.1963
     20  CA        23.7930   49.5990   -6.1060 C.3    20  VAL20       0.1727
     21  C         23.0280   49.5620   -7.4100 C.2    20  VAL20       0.2617
     22  O         21.8690   49.1200   -7.4820 O.2    20  VAL20      -0.2715
     23  CB        23.6320   48.1920   -5.5070 C.3    20  VAL20       0.0290
     24  CG1       24.4110   47.1620   -6.3630 C.3    20  VAL20       0.0023
     25  CG2       24.0780   48.1710   -4.0380 C.3    20  VAL20       0.0023
     26  N         23.6830   50.0270   -8.4360 N.am   21  SER21      -0.1936
     27  CA        23.1270   50.0010   -9.7640 C.3    21  SER21       0.2055
     28  C         23.0470   48.6050  -10.4330 C.2    21  SER21       0.2644
     29  O         23.7820   47.6100  -10.1150 O.2    21  SER21      -0.2714
     30  CB        23.9960   50.9750  -10.6070 C.3    21  SER21       0.2130
     31  OG        25.1810   50.2930  -10.9470 O.3    21  SER21      -0.2179
     32  N         22.1990   48.5330  -11.4190 N.am   22  SER22      -0.1935
     33  CA        22.0700   47.3620  -12.3110 C.3    22  SER22       0.2055
     34  C         23.4310   46.8380  -12.7990 C.2    22  SER22       0.2642
     35  O         23.7100   45.6050  -12.7030 O.2    22  SER22      -0.2714
     36  CB        21.2500   47.7680  -13.5620 C.3    22  SER22       0.2130
     37  OG        20.0520   48.4060  -13.1730 O.3    22  SER22      -0.2179
     38  N         24.2170   47.7660  -13.3720 N.am   23  GLU23      -0.1976
     39  CA        25.5120   47.4980  -13.9960 C.3    23  GLU23       0.1602
     40  C         26.5110   46.9980  -12.9600 C.2    23  GLU23       0.2287
     41  O         27.1830   46.0040  -13.2030 O.2    23  GLU23      -0.2864
     42  CB        26.0340   48.6650  -14.8720 C.3    23  GLU23       0.0415
     43  CG        25.5560   50.0190  -14.5140 C.3    23  GLU23       0.1163
     44  CD        24.1860   50.4180  -15.0980 C.2    23  GLU23       0.3649
     45  OE1       24.0410   50.4510  -16.3360 O.co2  23  GLU23      -0.2457
     46  OE2       23.2760   50.7420  -14.2910 O.co2  23  GLU23      -0.2457
     47  N         15.1310   57.0730    5.6160 N.3   366  LYS366     -0.1245
     48  CA        15.8020   56.9380    4.3320 C.3   366  LYS366      0.1561
     49  C         17.0400   56.0490    4.4470 C.2   366  LYS366      0.2260
     50  O         17.3160   55.2480    3.5890 O.2   366  LYS366     -0.2867
     51  CB        16.2490   58.3080    3.8530 C.3   366  LYS366      0.0271
     52  CG        16.9160   58.2420    2.5000 C.3   366  LYS366      0.0035
     53  CD        15.9390   57.6910    1.5190 C.3   366  LYS366      0.0206
     54  CE        16.6590   56.9660    0.4350 C.3   366  LYS366      0.1093
     55  NZ        15.8220   56.9960   -0.7670 N.3   366  LYS366     -0.1314
     56  N         15.9890   52.3120    4.8140 N.3   369  GLU369     -0.1231
     57  CA        15.5980   51.8450    3.4820 C.3   369  GLU369      0.1699
     58  C         16.7960   51.5520    2.5980 C.2   369  GLU369      0.2592
     59  O         16.8250   50.5490    1.9210 O.2   369  GLU369     -0.2718
     60  CB        14.7080   52.8830    2.8030 C.3   369  GLU369      0.0402
     61  CG        13.3040   52.8730    3.3010 C.3   369  GLU369      0.1161
     62  CD        12.5100   54.0980    2.8690 C.2   369  GLU369      0.3649
     63  OE1       11.3400   54.2010    3.2610 O.co2 369  GLU369     -0.2457
     64  OE2       13.0750   54.9820    2.1830 O.co2 369  GLU369     -0.2457
     65  N         17.7530   52.4690    2.5700 N.am  370  LEU370     -0.1980
     66  CA        19.0080   52.2800    1.8240 C.3   370  LEU370      0.1596
     67  C         19.7500   51.0170    2.2290 C.2   370  LEU370      0.2287
     68  O         20.2030   50.2780    1.3670 O.2   370  LEU370     -0.2864
     69  CB        19.9600   53.4930    1.9990 C.3   370  LEU370      0.0297
     70  CG        19.5720   54.7530    1.1960 C.3   370  LEU370      0.0022
     71  CD1       20.3840   55.9810    1.6660 C.3   370  LEU370      0.0001
     72  CD2       19.6490   54.5650   -0.3280 C.3   370  LEU370      0.0001
     73  N         17.6340   47.7960    1.3200 N.3   373  THR373     -0.1203
     74  CA        17.5550   47.6390   -0.1540 C.3   373  THR373      0.1994
     75  C         18.8790   47.1630   -0.6860 C.2   373  THR373      0.2617
     76  O         18.9170   46.2340   -1.5120 O.2   373  THR373     -0.2717
     77  CB        17.0640   48.9480   -0.8570 C.3   373  THR373      0.1784
     78  OG1       15.7610   49.2960   -0.3300 O.3   373  THR373     -0.2211
     79  CG2       16.9620   48.8040   -2.4150 C.3   373  THR373      0.0376
     80  N         19.9660   47.7480   -0.1520 N.am  374  ARG374     -0.1979
     81  CA        21.3050   47.3090   -0.5240 C.3   374  ARG374      0.1597
     82  C         21.5120   45.8410   -0.1790 C.2   374  ARG374      0.2287
     83  O         21.9690   45.0640   -1.0030 O.2   374  ARG374     -0.2864
     84  CB        22.4150   48.1120    0.1520 C.3   374  ARG374      0.0334
     85  CG        23.7650   47.5960   -0.2880 C.3   374  ARG374      0.0492
     86  CD        24.9180   48.4210    0.2210 C.3   374  ARG374      0.2205
     87  NE        25.1840   48.0350    1.5970 N.pl3 374  ARG374     -0.0865
     88  CZ        26.3100   48.2770    2.2530 C.cat 374  ARG374      0.5346
     89  NH1       27.3240   48.9270    1.6920 N.pl3 374  ARG374      0.1354
     90  NH2       26.4240   47.8130    3.4710 N.pl3 374  ARG374      0.1354
     91  N         19.5720   43.7690   -2.8420 N.3   377  ARG377     -0.1245
     92  CA        20.2750   43.7970   -4.1040 C.3   377  ARG377      0.1563
     93  C         21.5480   42.9220   -4.1360 C.2   377  ARG377      0.2260
     94  O         21.7360   42.1480   -5.0920 O.2   377  ARG377     -0.2867
     95  CB        20.5010   45.2240   -4.5890 C.3   377  ARG377      0.0307
     96  CG        19.1400   45.9620   -4.7520 C.3   377  ARG377      0.0489
     97  CD        19.3040   47.4520   -4.9610 C.3   377  ARG377      0.2205
     98  NE        19.7100   47.7880   -6.3280 N.pl3 377  ARG377     -0.0865
     99  CZ        18.9150   47.7820   -7.3890 C.cat 377  ARG377      0.5346
    100  NH1       17.6150   47.3870   -7.2830 N.pl3 377  ARG377      0.1354
    101  NH2       19.4230   48.1460   -8.5830 N.pl3 377  ARG377      0.1354
    102  N         12.5240   43.6550   -7.4080 N.3   416  GLN416     -0.1245
    103  CA        13.0050   44.8530   -8.1650 C.3   416  GLN416      0.1566
    104  C         14.4850   44.7080   -8.5000 C.2   416  GLN416      0.2260
    105  O         14.8780   45.0530   -9.6070 O.2   416  GLN416     -0.2867
    106  CB        12.8140   46.1700   -7.3470 C.3   416  GLN416      0.0367
    107  CG        13.0410   47.4830   -8.1760 C.3   416  GLN416      0.0905
    108  CD        12.1310   47.5400   -9.4120 C.2   416  GLN416      0.2608
    109  OE1       10.9000   47.3300   -9.3090 O.2   416  GLN416     -0.2717
    110  NE2       12.7270   47.7930  -10.5850 N.am  416  GLN416     -0.0878
    111  N         15.8650   44.6830  -12.3090 N.3   420  ASP420     -0.1239
    112  CA        16.8870   45.6280  -12.7870 C.3   420  ASP420      0.1674
    113  C         18.0970   44.8970  -13.4100 C.2   420  ASP420      0.2266
    114  O         18.5820   45.3140  -14.4540 O.2   420  ASP420     -0.2867
    115  CB        17.3540   46.4700  -11.6450 C.3   420  ASP420      0.1410
    116  CG        16.3130   47.4750  -11.1830 C.2   420  ASP420      0.3668
    117  OD1       15.3610   47.7150  -11.9190 O.co2 420  ASP420     -0.2456
    118  OD2       16.4590   48.0420  -10.0740 O.co2 420  ASP420     -0.2456
@<TRIPOS>BOND
     1    45    44   ar
     2    44    43    1
     3    44    46   ar
     4    42    43    1
     5    42    39    1
     6   114   113    2
     7    39    38    1
     8    39    40    1
     9    36    37    1
    10    36    33    1
    11   113   112    1
    12    38    34   am
    13    41    40    2
    14    34    35    2
    15    34    33    1
    16   112   111    1
    17   112   115    1
    18    33    32    1
    19   117   116   ar
    20   115   116    1
    21    32    28   am
    22   116   118   ar
    23    31    30    1
    24    30    27    1
    25   110   108   am
    26    28    29    2
    27    28    27    1
    28    27    26    1
    29   105   104    2
    30   108   109    2
    31   108   107    1
    32   101    99    1
    33   104   103    1
    34    26    21   am
    35   107   106    1
    36   103   102    1
    37   103   106    1
    38    22    21    2
    39    21    20    1
    40    99   100    1
    41    99    98    2
    42    24    23    1
    43    98    97    1
    44    20    23    1
    45    20    19    1
    46    23    25    1
    47    17    16    1
    48    19    14   am
    49    94    93    2
    50    15    14    2
    51    97    96    1
    52    14    13    1
    53    16    13    1
    54    16    18    1
    55    96    95    1
    56    95    92    1
    57    93    92    1
    58    92    91    1
    59    13    12    1
    60    12     3   am
    61    79    77    1
    62     3     4    2
    63     3     2    1
    64    76    75    2
    65    83    82    2
    66    77    78    1
    67    77    74    1
    68     1     2    1
    69    55    54    1
    70    75    74    1
    71    75    80   am
    72     2     5    1
    73    81    82    1
    74    81    80    1
    75    81    84    1
    76    72    70    1
    77    85    84    1
    78    85    86    1
    79    74    73    1
    80    86    87    1
    81    54    53    1
    82     5     6    1
    83    70    71    1
    84    70    69    1
    85    68    67    2
    86    53    52    1
    87    87    88    2
    88    89    88    1
    89    66    69    1
    90    66    67    1
    91    66    65    1
    92     6     7   ar
    93     6     8   ar
    94    59    58    2
    95    64    62   ar
    96    88    90    1
    97    52    51    1
    98     7     9   ar
    99     8    10   ar
   100    65    58   am
   101    58    57    1
   102    60    61    1
   103    60    57    1
   104    62    63   ar
   105    62    61    1
   106    57    56    1
   107    50    49    2
   108     9    11   ar
   109    10    11   ar
   110    51    48    1
   111    48    49    1
   112    48    47    1
