@<TRIPOS>MOLECULE
tmp/3o80A00.pdb
 95 91 0 0 0
SMALL
GASTEIGER

@<TRIPOS>ATOM
      1  N         20.3130   46.3080   16.9440 N.3   326  ASP326     -0.1225
      2  CA        20.0920   45.0800   16.1860 C.3   326  ASP326      0.1805
      3  C         19.1700   45.2670   14.9600 C.2   326  ASP326      0.2598
      4  O         18.7690   46.4310   14.6070 O.2   326  ASP326     -0.2718
      5  CB        19.5150   44.0050   17.1260 C.3   326  ASP326      0.1424
      6  CG        18.0580   44.3270   17.5540 C.2   326  ASP326      0.3668
      7  OD1       17.7860   45.4140   18.1070 O.co2 326  ASP326     -0.2456
      8  OD2       17.1800   43.4900   17.3310 O.co2 326  ASP326     -0.2456
      9  N         18.8350   44.1410   14.2960 N.am  327  THR327     -0.1939
     10  CA        18.0600   44.1610   13.0580 C.3   327  THR327      0.2028
     11  C         16.6370   44.7320   13.2600 C.2   327  THR327      0.2642
     12  O         16.0460   45.3210   12.3520 O.2   327  THR327     -0.2714
     13  CB        17.9480   42.7600   12.4610 C.3   327  THR327      0.1808
     14  OG1       19.1600   42.0220   12.7270 O.3   327  THR327     -0.2208
     15  CG2       17.7000   42.8600   10.9210 C.3   327  THR327      0.0379
     16  N         16.1310   44.6590   14.4820 N.am  328  SER328     -0.1949
     17  CA        14.8430   45.2740   14.7960 C.3   328  SER328      0.1924
     18  C         14.8100   46.7880   14.5650 C.2   328  SER328      0.2314
     19  O         13.7210   47.3580   14.3780 O.2   328  SER328     -0.2863
     20  CB        14.4160   44.9310   16.2270 C.3   328  SER328      0.2116
     21  OG        15.1390   45.7660   17.1170 O.3   328  SER328     -0.2180
     22  N         14.2570   47.5130   10.6880 N.3   331  SER331     -0.1202
     23  CA        12.9530   46.8550   10.5050 C.3   331  SER331      0.2020
     24  C         11.7730   47.6730   11.0380 C.2   331  SER331      0.2618
     25  O         10.7740   47.9480   10.3280 O.2   331  SER331     -0.2717
     26  CB        13.0680   45.5370   11.2790 C.3   331  SER331      0.2103
     27  OG        12.0220   44.7340   10.9330 O.3   331  SER331     -0.2182
     28  N         11.8760   48.1040   12.3020 N.am  332  LYS332     -0.1979
     29  CA        10.8210   48.9250   12.8800 C.3   332  LYS332      0.1596
     30  C         10.7160   50.2560   12.1700 C.2   332  LYS332      0.2287
     31  O          9.6160   50.8020   11.9840 O.2   332  LYS332     -0.2864
     32  CB        10.9960   49.1210   14.4140 C.3   332  LYS332      0.0298
     33  CG        10.9640   47.7350   15.1570 C.3   332  LYS332      0.0038
     34  CD        11.0780   47.8670   16.6890 C.3   332  LYS332      0.0206
     35  CE        10.8420   46.5160   17.3390 C.3   332  LYS332      0.1093
     36  NZ        10.5950   46.5530   18.8030 N.3   332  LYS332     -0.1314
     37  N          9.0290   49.9790    8.8550 N.3   335  ASP335     -0.1239
     38  CA         7.6340   49.6990    9.0960 C.3   335  ASP335      0.1674
     39  C          6.8360   50.8610    9.6790 C.2   335  ASP335      0.2266
     40  O          5.6150   50.7870    9.7110 O.2   335  ASP335     -0.2867
     41  CB         7.5420   48.5680   10.0810 C.3   335  ASP335      0.1410
     42  CG         6.4980   47.5740    9.7150 C.2   335  ASP335      0.3668
     43  OD1        6.5160   47.1150    8.5400 O.co2 335  ASP335     -0.2456
     44  OD2        5.6960   47.2420   10.6300 O.co2 335  ASP335     -0.2456
     45  N          7.0650   55.8240   15.5510 N.3   343  ASP343     -0.1239
     46  CA         7.6440   54.5540   16.0130 C.3   343  ASP343      0.1674
     47  C          9.1720   54.7560   16.0800 C.2   343  ASP343      0.2266
     48  O          9.8650   54.2640   16.9910 O.2   343  ASP343     -0.2867
     49  CB         7.3600   53.4160   15.0710 C.3   343  ASP343      0.1410
     50  CG         5.9290   52.9030   15.1470 C.2   343  ASP343      0.3668
     51  OD1        5.1650   53.2880   16.0380 O.co2 343  ASP343     -0.2456
     52  OD2        5.5890   52.0800   14.2800 O.co2 343  ASP343     -0.2456
     53  N         14.8950   34.6160    8.7000 N.3   402  SER402     -0.1202
     54  CA        14.2140   35.7150    9.3760 C.3   402  SER402      0.2020
     55  C         14.1640   37.0650    8.6250 C.2   402  SER402      0.2618
     56  O         13.1510   37.7730    8.6570 O.2   402  SER402     -0.2717
     57  CB        14.9130   35.9350   10.7070 C.3   402  SER402      0.2103
     58  OG        16.2420   36.3400   10.4880 O.3   402  SER402     -0.2182
     59  N         15.2370   37.3950    7.9150 N.am  403  VAL403     -0.1979
     60  CA        15.2320   38.5370    6.9640 C.3   403  VAL403      0.1595
     61  C         14.2630   38.3650    5.8240 C.2   403  VAL403      0.2287
     62  O         13.4080   39.2330    5.6640 O.2   403  VAL403     -0.2864
     63  CB        16.6370   38.9250    6.4080 C.3   403  VAL403      0.0276
     64  CG1       16.5560   40.0650    5.3330 C.3   403  VAL403      0.0022
     65  CG2       17.5710   39.2850    7.5200 C.3   403  VAL403      0.0022
     66  N         10.6860   38.3480    7.5490 N.3   406  ARG406     -0.1231
     67  CA        10.1640   39.3430    8.4920 C.3   406  ARG406      0.1694
     68  C         10.5400   40.7780    8.1620 C.2   406  ARG406      0.2592
     69  O          9.8010   41.6800    8.5350 O.2   406  ARG406     -0.2718
     70  CB        10.5150   38.9720    9.9530 C.3   406  ARG406      0.0321
     71  CG         9.7320   37.6780   10.4220 C.3   406  ARG406      0.0489
     72  CD        10.1110   37.2150   11.8310 C.3   406  ARG406      0.2205
     73  NE        11.4000   37.7820   12.2490 N.pl3 406  ARG406     -0.0865
     74  CZ        12.4200   37.1130   12.8080 C.cat 406  ARG406      0.5346
     75  NH1       12.3630   35.7970   13.0710 N.pl3 406  ARG406      0.1354
     76  NH2       13.5230   37.7870   13.1220 N.pl3 406  ARG406      0.1354
     77  N         11.6350   40.9790    7.4230 N.am  407  TYR407     -0.1963
     78  CA        12.0910   42.3430    7.0720 C.3   407  TYR407      0.1756
     79  C         11.1430   43.0510    6.0550 C.2   407  TYR407      0.2461
     80  O         10.8000   42.4910    4.9770 O.2   407  TYR407     -0.2730
     81  CB        13.5820   42.3570    6.6610 C.3   407  TYR407      0.0574
     82  CG        14.1960   43.7560    6.7040 C.ar  407  TYR407     -0.0198
     83  CD1       14.9230   44.2160    7.8080 C.ar  407  TYR407     -0.0009
     84  CD2       14.0360   44.6040    5.6320 C.ar  407  TYR407     -0.0009
     85  CE1       15.4650   45.5030    7.8060 C.ar  407  TYR407      0.0417
     86  CE2       14.5080   45.8780    5.6400 C.ar  407  TYR407      0.0417
     87  CZ        15.2440   46.3150    6.7030 C.ar  407  TYR407      0.1957
     88  OH        15.6910   47.5950    6.6470 O.3   407  TYR407     -0.2866
     89  N         10.6890   44.2800    6.4040 N.am  408  PRO408     -0.2727
     90  CA         9.6200   44.9550    5.6390 C.3   408  PRO408      0.1402
     91  C          9.9590   45.1410    4.1340 C.2   408  PRO408      0.2269
     92  O         11.0010   45.7050    3.7930 O.2   408  PRO408     -0.2865
     93  CB         9.5110   46.3230    6.3390 C.3   408  PRO408      0.0296
     94  CG        10.0240   46.0910    7.6880 C.3   408  PRO408      0.0237
     95  CD        11.1990   45.1670    7.4650 C.3   408  PRO408      0.0939
@<TRIPOS>BOND
     1    92    91    2
     2    91    90    1
     3    80    79    2
     4    64    63    1
     5    84    86   ar
     6    84    82   ar
     7    90    93    1
     8    90    89    1
     9    86    87   ar
    10    62    61    2
    11    61    60    1
    12    79    89   am
    13    79    78    1
    14    93    94    1
    15    89    95    1
    16    63    60    1
    17    63    65    1
    18    88    87    1
    19    81    82    1
    20    81    78    1
    21    87    85   ar
    22    82    83   ar
    23    60    59    1
    24    78    77    1
    25    77    68   am
    26    95    94    1
    27    66    67    1
    28    85    83   ar
    29    59    55   am
    30    68    67    1
    31    68    69    2
    32    67    70    1
    33    43    42   ar
    34    55    56    2
    35    55    54    1
    36    53    54    1
    37    37    38    1
    38    38    39    1
    39    38    41    1
    40    54    57    1
    41    39    40    2
    42    42    41    1
    43    42    44   ar
    44    70    71    1
    45    25    24    2
    46    71    72    1
    47    58    57    1
    48    23    22    1
    49    23    24    1
    50    23    26    1
    51    15    13    1
    52    27    26    1
    53    24    28   am
    54    72    73    1
    55    31    30    2
    56    30    29    1
    57    73    74    2
    58    28    29    1
    59    12    11    2
    60    13    14    1
    61    13    10    1
    62    74    75    1
    63    74    76    1
    64    29    32    1
    65    10    11    1
    66    10     9    1
    67    11    16   am
    68    52    50   ar
    69     9     3   am
    70    19    18    2
    71    32    33    1
    72    16    17    1
    73    18    17    1
    74     4     3    2
    75    17    20    1
    76     3     2    1
    77    49    50    1
    78    49    46    1
    79    50    51   ar
    80    33    34    1
    81    45    46    1
    82    46    47    1
    83    47    48    2
    84     2     1    1
    85     2     5    1
    86    20    21    1
    87    34    35    1
    88     5     6    1
    89     8     6   ar
    90    35    36    1
    91     6     7   ar
