@<TRIPOS>MOLECULE
tmp/3o82A00.pdb
 189 181 0 0 0
SMALL
GASTEIGER

@<TRIPOS>ATOM
      1  N        -16.1590   -9.9360   19.5450 N.3   194  LEU194     -0.1245
      2  CA       -15.0730   -9.5530   18.6000 C.3   194  LEU194      0.1561
      3  C        -15.5430   -8.5860   17.5530 C.2   194  LEU194      0.2260
      4  O        -16.5890   -8.8270   16.9550 O.2   194  LEU194     -0.2867
      5  CB       -14.6040  -10.7530   17.7920 C.3   194  LEU194      0.0270
      6  CG       -14.1490  -12.0360   18.4280 C.3   194  LEU194      0.0019
      7  CD1      -14.1980  -13.1090   17.3970 C.3   194  LEU194      0.0001
      8  CD2      -12.7520  -11.8790   18.9640 C.3   194  LEU194      0.0001
      9  N        -15.8500   -6.9800   13.8180 N.3   196  GLY196     -0.1210
     10  CA       -15.6670   -7.3100   12.3970 C.3   196  GLY196      0.1956
     11  C        -15.0740   -6.0970   11.6710 C.2   196  GLY196      0.2612
     12  O        -14.6700   -6.1900   10.4950 O.2   196  GLY196     -0.2717
     13  N        -15.0090   -4.9650   12.3880 N.am  197  GLY197     -0.1956
     14  CA       -14.4960   -3.6780   11.8530 C.3   197  GLY197      0.1869
     15  C        -12.9670   -3.5530   11.7470 C.2   197  GLY197      0.2309
     16  O        -12.4490   -2.5020   11.3390 O.2   197  GLY197     -0.2863
     17  N        -21.4760  -14.8630   16.4780 N.3   239  HIS239     -0.1226
     18  CA       -21.5860  -13.5320   15.9290 C.3   239  HIS239      0.1752
     19  C        -22.6880  -12.7530   16.6280 C.2   239  HIS239      0.2596
     20  O        -23.7890  -13.3000   16.8390 O.2   239  HIS239     -0.2718
     21  CB       -21.8930  -13.6060   14.4490 C.3   239  HIS239      0.0759
     22  CG       -21.6820  -12.3140   13.7470 C.ar  239  HIS239      0.0818
     23  ND1      -22.5630  -11.2610   13.8640 N.ar  239  HIS239     -0.2268
     24  CD2      -20.6720  -11.8850   12.9530 C.ar  239  HIS239      0.1154
     25  CE1      -22.1150  -10.2400   13.1520 C.ar  239  HIS239      0.1986
     26  NE2      -20.9670  -10.5910   12.5970 N.ar  239  HIS239     -0.2212
     27  N        -22.4070  -11.4810   16.9550 N.am  240  ASN240     -0.1960
     28  CA       -23.3040  -10.6860   17.7960 C.3   240  ASN240      0.1819
     29  C        -24.7360  -10.7020   17.2450 C.2   240  ASN240      0.2621
     30  O        -25.6800  -11.0190   17.9630 O.2   240  ASN240     -0.2715
     31  CB       -22.7570   -9.2670   17.9360 C.3   240  ASN240      0.1195
     32  CG       -23.3920   -8.4770   19.0860 C.2   240  ASN240      0.2630
     33  OD1      -23.3980   -8.8990   20.2460 O.2   240  ASN240     -0.2716
     34  ND2      -23.8750   -7.3010   18.7680 N.am  240  ASN240     -0.0877
     35  N        -24.8870  -10.4030   15.9550 N.am  241  PHE241     -0.1974
     36  CA       -26.1470  -10.5040   15.2520 C.3   241  PHE241      0.1639
     37  C        -26.8500  -11.8330   15.5710 C.2   241  PHE241      0.2290
     38  O        -28.0230  -11.8300   15.9320 O.2   241  PHE241     -0.2864
     39  CB       -25.8590  -10.3260   13.7600 C.3   241  PHE241      0.0560
     40  CG       -27.0690  -10.2910   12.8690 C.ar  241  PHE241     -0.0200
     41  CD1      -28.3600  -10.0630   13.3740 C.ar  241  PHE241     -0.0042
     42  CD2      -26.9030  -10.4440   11.4880 C.ar  241  PHE241     -0.0042
     43  CE1      -29.4880  -10.0290   12.5090 C.ar  241  PHE241     -0.0003
     44  CE2      -27.9990  -10.4280   10.5910 C.ar  241  PHE241     -0.0003
     45  CZ       -29.3030  -10.2130   11.1020 C.ar  241  PHE241     -0.0000
     46  N        -29.2110  -10.4530   18.4920 N.3   245  SER245     -0.1217
     47  CA       -29.9090   -9.3890   17.7950 C.3   245  SER245      0.1889
     48  C        -31.0660   -9.8450   16.9410 C.2   245  SER245      0.2288
     49  O        -31.0970   -9.6230   15.7310 O.2   245  SER245     -0.2866
     50  CB       -28.9150   -8.5440   16.9980 C.3   245  SER245      0.2089
     51  OG       -27.9550   -7.9470   17.8720 O.3   245  SER245     -0.2183
     52  N        -32.2230   -8.9100    8.0200 N.3   310  VAL310     -0.1231
     53  CA       -30.9990   -8.8070    7.2420 C.3   310  VAL310      0.1692
     54  C        -30.1450   -7.7280    7.8200 C.2   310  VAL310      0.2593
     55  O        -30.5800   -6.5890    7.9460 O.2   310  VAL310     -0.2718
     56  CB       -31.2680   -8.4620    5.7810 C.3   310  VAL310      0.0266
     57  CG1      -29.9660   -8.3390    5.0090 C.3   310  VAL310      0.0020
     58  CG2      -32.1650   -9.4760    5.1660 C.3   310  VAL310      0.0020
     59  N        -28.9200   -8.0840    8.1630 N.am  311  GLY311     -0.1942
     60  CA       -27.9580   -7.1200    8.6680 C.3   311  GLY311      0.2014
     61  C        -26.5500   -7.5220    8.2970 C.2   311  GLY311      0.2639
     62  O        -26.3240   -8.6150    7.7840 O.2   311  GLY311     -0.2714
     63  N        -25.6000   -6.6380    8.5390 N.am  312  GLY312     -0.1939
     64  CA       -24.2110   -7.0250    8.5060 C.3   312  GLY312      0.2014
     65  C        -23.3940   -6.3540    7.4320 C.2   312  GLY312      0.2639
     66  O        -22.1980   -6.3690    7.4900 O.2   312  GLY312     -0.2714
     67  N        -24.0300   -5.7270    6.4640 N.am  313  ALA313     -0.1963
     68  CA       -23.3140   -5.1950    5.3310 C.3   313  ALA313      0.1728
     69  C        -24.3740   -4.4750    4.5630 C.2   313  ALA313      0.2617
     70  O        -25.5600   -4.6480    4.8530 O.2   313  ALA313     -0.2715
     71  CB       -22.6710   -6.3290    4.4840 C.3   313  ALA313      0.0334
     72  N        -23.9540   -3.6390    3.6160 N.am  314  SER314     -0.1936
     73  CA       -24.8620   -2.7850    2.8680 C.3   314  SER314      0.2055
     74  C        -25.9010   -3.6160    2.1530 C.2   314  SER314      0.2643
     75  O        -25.5680   -4.6220    1.5360 O.2   314  SER314     -0.2714
     76  CB       -24.0790   -1.9240    1.8850 C.3   314  SER314      0.2130
     77  OG       -24.9500   -1.1430    1.0690 O.3   314  SER314     -0.2179
     78  N        -27.1550   -3.2090    2.2650 N.am  315  PHE315     -0.1973
     79  CA       -28.2740   -3.9500    1.6990 C.3   315  PHE315      0.1639
     80  C        -29.1090   -3.0740    0.7550 C.2   315  PHE315      0.2290
     81  O        -30.0040   -2.3600    1.1870 O.2   315  PHE315     -0.2864
     82  CB       -29.1470   -4.5490    2.8280 C.3   315  PHE315      0.0560
     83  CG       -30.0850   -5.6310    2.3770 C.ar  315  PHE315     -0.0200
     84  CD1      -29.6620   -6.6590    1.5290 C.ar  315  PHE315     -0.0042
     85  CD2      -31.3820   -5.6620    2.8250 C.ar  315  PHE315     -0.0042
     86  CE1      -30.5460   -7.6710    1.1070 C.ar  315  PHE315     -0.0003
     87  CE2      -32.2740   -6.6860    2.3960 C.ar  315  PHE315     -0.0003
     88  CZ       -31.8510   -7.6770    1.5400 C.ar  315  PHE315     -0.0000
     89  N        -34.8300   -4.9380    8.9030 N.3   333  GLN333     -0.1231
     90  CA       -33.4330   -4.5800    8.7010 C.3   333  GLN333      0.1698
     91  C        -32.6880   -4.2900    9.9930 C.2   333  GLN333      0.2592
     92  O        -33.2110   -3.6180   10.8870 O.2   333  GLN333     -0.2718
     93  CB       -33.3380   -3.3960    7.7780 C.3   333  GLN333      0.0381
     94  CG       -33.7860   -3.7120    6.3870 C.3   333  GLN333      0.0905
     95  CD       -33.0410   -2.8920    5.3940 C.2   333  GLN333      0.2608
     96  OE1      -31.8090   -2.8860    5.3420 O.2   333  GLN333     -0.2717
     97  NE2      -33.7740   -2.1580    4.6220 N.am  333  GLN333     -0.0878
     98  N        -31.4590   -4.7950   10.0910 N.am  334  VAL334     -0.1966
     99  CA       -30.7130   -4.6950   11.3250 C.3   334  VAL334      0.1727
    100  C        -29.3330   -4.1220   11.0430 C.2   334  VAL334      0.2616
    101  O        -28.6210   -4.6260   10.2180 O.2   334  VAL334     -0.2715
    102  CB       -30.6690   -6.0700   12.0660 C.3   334  VAL334      0.0290
    103  CG1      -30.1480   -5.9430   13.4460 C.3   334  VAL334      0.0023
    104  CG2      -32.0440   -6.5880   12.1770 C.3   334  VAL334      0.0023
    105  N        -28.9870   -3.0440   11.7340 N.am  335  PHE335     -0.1960
    106  CA       -27.6450   -2.4380   11.6720 C.3   335  PHE335      0.1771
    107  C        -27.0670   -2.3510   13.0950 C.2   335  PHE335      0.2620
    108  O        -27.4330   -1.4620   13.8830 O.2   335  PHE335     -0.2715
    109  CB       -27.7020   -1.0510   10.9950 C.3   335  PHE335      0.0574
    110  CG       -26.5780   -0.1320   11.3500 C.ar  335  PHE335     -0.0200
    111  CD1      -25.2580   -0.5400   11.3090 C.ar  335  PHE335     -0.0042
    112  CD2      -26.8350    1.1850   11.7190 C.ar  335  PHE335     -0.0042
    113  CE1      -24.2170    0.3710   11.6430 C.ar  335  PHE335     -0.0003
    114  CE2      -25.8110    2.0670   12.0540 C.ar  335  PHE335     -0.0003
    115  CZ       -24.5110    1.6680   11.9900 C.ar  335  PHE335     -0.0000
    116  N        -26.1810   -3.2850   13.4140 N.am  336  GLY336     -0.1940
    117  CA       -25.6630   -3.4130   14.7420 C.3   336  GLY336      0.2014
    118  C        -24.1790   -3.5160   14.6340 C.2   336  GLY336      0.2639
    119  O        -23.6360   -3.5710   13.5450 O.2   336  GLY336     -0.2714
    120  N        -23.5150   -3.5230   15.7750 N.am  337  MET337     -0.1963
    121  CA       -22.0840   -3.7010   15.8250 C.3   337  MET337      0.1736
    122  C        -21.7560   -4.4880   17.1110 C.2   337  MET337      0.2616
    123  O        -22.3690   -4.2960   18.1380 O.2   337  MET337     -0.2715
    124  CB       -21.3840   -2.3490   15.7850 C.3   337  MET337      0.0427
    125  CG       -21.9690   -1.3510   16.7520 C.3   337  MET337      0.0599
    126  SD       -21.2650    0.2910   16.5930 S.3   337  MET337     -0.1393
    127  CE       -22.2760    0.8820   15.2190 C.3   337  MET337      0.0692
    128  N        -20.8220   -5.4210   17.0260 N.am  338  ALA338     -0.1963
    129  CA       -20.3500   -6.1420   18.1990 C.3   338  ALA338      0.1728
    130  C        -20.0770   -5.1860   19.3900 C.2   338  ALA338      0.2616
    131  O        -20.1900   -5.5740   20.5730 O.2   338  ALA338     -0.2715
    132  CB       -19.0920   -6.9780   17.8360 C.3   338  ALA338      0.0334
    133  N        -19.7500   -3.9410   19.0750 N.am  339  GLU339     -0.1977
    134  CA       -19.3440   -3.0060   20.0950 C.3   339  GLU339      0.1602
    135  C        -20.4940   -2.5580   20.9470 C.2   339  GLU339      0.2287
    136  O        -20.3040   -2.0020   22.0000 O.2   339  GLU339     -0.2864
    137  CB       -18.7100   -1.7690   19.4600 C.3   339  GLU339      0.0415
    138  CG       -17.2440   -1.9320   19.1220 C.3   339  GLU339      0.1163
    139  CD       -17.0210   -2.5410   17.7620 C.2   339  GLU339      0.3649
    140  OE1      -17.9850   -3.0620   17.1740 O.co2 339  GLU339     -0.2457
    141  OE2      -15.8710   -2.4950   17.2690 O.co2 339  GLU339     -0.2457
    142  N        -27.3710   -1.3980   18.4060 N.3   342  VAL342     -0.1245
    143  CA       -28.0840   -2.1350   17.4080 C.3   342  VAL342      0.1561
    144  C        -29.3090   -1.3430   17.0710 C.2   342  VAL342      0.2260
    145  O        -29.9730   -0.8370   17.9920 O.2   342  VAL342     -0.2867
    146  CB       -28.5270   -3.5520   17.8630 C.3   342  VAL342      0.0252
    147  CG1      -29.2200   -4.2190   16.7170 C.3   342  VAL342      0.0019
    148  CG2      -27.3360   -4.4000   18.3220 C.3   342  VAL342      0.0019
    149  N        -32.1110    1.4730    7.8330 N.3   358  GLN358     -0.1245
    150  CA       -31.6730    0.4220    8.7120 C.3   358  GLN358      0.1566
    151  C        -32.1830    0.6620   10.1300 C.2   358  GLN358      0.2260
    152  O        -31.4850    0.3840   11.0840 O.2   358  GLN358     -0.2867
    153  CB       -30.1570    0.2830    8.6810 C.3   358  GLN358      0.0367
    154  CG       -29.6040   -0.4180    7.4700 C.3   358  GLN358      0.0905
    155  CD       -29.8880    0.3440    6.2000 C.2   358  GLN358      0.2608
    156  OE1      -29.5590    1.5230    6.0770 O.2   358  GLN358     -0.2717
    157  NE2      -30.5170   -0.3240    5.2500 N.am  358  GLN358     -0.0878
    158  N        -17.6960    4.3340   15.3560 N.3   416  SER416     -0.1217
    159  CA       -17.6230    3.0870   14.5800 C.3   416  SER416      0.1889
    160  C        -16.9320    3.2400   13.2390 C.2   416  SER416      0.2288
    161  O        -16.3870    2.2780   12.7100 O.2   416  SER416     -0.2866
    162  CB       -19.0140    2.5130   14.3370 C.3   416  SER416      0.2089
    163  OG       -19.7480    3.3320   13.4490 O.3   416  SER416     -0.2183
    164  N        -18.8210    4.4210   10.7130 N.3   418  ASP418     -0.1239
    165  CA       -19.9100    4.2950    9.7650 C.3   418  ASP418      0.1674
    166  C        -20.3710    5.6490    9.3730 C.2   418  ASP418      0.2266
    167  O        -20.3720    6.5760   10.1890 O.2   418  ASP418     -0.2867
    168  CB       -21.0480    3.5120   10.3700 C.3   418  ASP418      0.1410
    169  CG       -20.7000    2.0810   10.5240 C.2   418  ASP418      0.3668
    170  OD1      -20.8410    1.5370   11.6190 O.co2 418  ASP418     -0.2456
    171  OD2      -20.2240    1.5060    9.5500 O.co2 418  ASP418     -0.2456
    172  N        -27.5080    3.6390    6.6500 N.3   430  VAL430     -0.1245
    173  CA       -26.0470    3.3880    6.5370 C.3   430  VAL430      0.1561
    174  C        -25.6480    3.6150    5.1070 C.2   430  VAL430      0.2260
    175  O        -26.1540    2.9150    4.1990 O.2   430  VAL430     -0.2867
    176  CB       -25.6070    1.9390    6.8860 C.3   430  VAL430      0.0252
    177  CG1      -24.1410    1.8410    6.9170 C.3   430  VAL430      0.0019
    178  CG2      -26.0910    1.5570    8.2280 C.3   430  VAL430      0.0019
    179  N        -18.4260    4.0230    5.0040 N.3   433  ARG433     -0.1245
    180  CA       -17.4880    3.8210    6.0740 C.3   433  ARG433      0.1563
    181  C        -16.2690    4.7330    5.8660 C.2   433  ARG433      0.2260
    182  O        -16.0320    5.2340    4.7870 O.2   433  ARG433     -0.2867
    183  CB       -17.0990    2.3310    6.1990 C.3   433  ARG433      0.0307
    184  CG       -18.1200    1.5050    6.9280 C.3   433  ARG433      0.0489
    185  CD       -17.6380    0.0710    6.9250 C.3   433  ARG433      0.2205
    186  NE       -16.4530   -0.0400    7.7560 N.pl3 433  ARG433     -0.0865
    187  CZ       -16.5580   -0.3120    9.0390 C.cat 433  ARG433      0.5346
    188  NH1      -17.7320   -0.5610    9.5890 N.pl3 433  ARG433      0.1354
    189  NH2      -15.4610   -0.3650    9.7910 N.pl3 433  ARG433      0.1354
@<TRIPOS>BOND
     1    80    81    2
     2    80    79    1
     3    77    76    1
     4    86    84   ar
     5    86    88   ar
     6    84    83   ar
     7    75    74    2
     8    88    87   ar
     9    79    78    1
    10    79    82    1
    11    76    73    1
    12    74    78   am
    13    74    73    1
    14    83    85   ar
    15    83    82    1
    16    87    85   ar
    17    73    72    1
    18    72    69   am
    19   175   174    2
    20    71    68    1
    21    69    70    2
    22    69    68    1
    23    97    95   am
    24   182   181    2
    25   179   180    1
    26    57    56    1
    27   174   173    1
    28    58    56    1
    29   157   155   am
    30    68    67    1
    31    96    95    2
    32    95    94    1
    33    56    53    1
    34   181   180    1
    35   180   183    1
    36   156   155    2
    37   183   184    1
    38   155   154    1
    39    94    93    1
    40    67    65   am
    41   173   172    1
    42   173   176    1
    43   176   177    1
    44   176   178    1
    45   185   184    1
    46   185   186    1
    47    53    54    1
    48    53    52    1
    49    65    66    2
    50    65    64    1
    51   154   153    1
    52   186   187    2
    53    93    90    1
    54    62    61    2
    55    54    55    2
    56    54    59   am
    57   149   150    1
    58    59    60    1
    59    61    63   am
    60    61    60    1
    61    64    63    1
    62   153   150    1
    63    90    89    1
    64    90    91    1
    65   150   151    1
    66   187   188    1
    67   187   189    1
    68   166   165    1
    69   166   167    2
    70   171   169   ar
    71   165   168    1
    72   165   164    1
    73    91    98   am
    74    91    92    2
    75    98    99    1
    76   151   152    2
    77   101   100    2
    78   168   169    1
    79    12    11    2
    80   169   170   ar
    81    44    45   ar
    82    44    42   ar
    83   109   110    1
    84   109   106    1
    85   100    99    1
    86   100   105   am
    87    45    43   ar
    88   111   110   ar
    89   111   113   ar
    90    99   102    1
    91    16    15    2
    92   110   112   ar
    93    42    40   ar
    94   113   115   ar
    95    11    13   am
    96    11    10    1
    97   106   105    1
    98   106   107    1
    99   112   114   ar
   100    15    14    1
   101    14    13    1
   102   115   114   ar
   103   102   104    1
   104   102   103    1
   105    10     9    1
   106    43    41   ar
   107    26    24   ar
   108    26    25   ar
   109   161   160    2
   110    40    41   ar
   111    40    39    1
   112    24    22   ar
   113   107   116   am
   114   107   108    2
   115    25    23   ar
   116   160   159    1
   117   116   117    1
   118   163   162    1
   119   119   118    2
   120    22    23   ar
   121    22    21    1
   122    39    36    1
   123   162   159    1
   124    21    18    1
   125   159   158    1
   126   118   117    1
   127   118   120   am
   128   127   126    1
   129    36    37    1
   130    36    35    1
   131    37    38    2
   132    49    48    2
   133   120   121    1
   134   124   121    1
   135   124   125    1
   136   121   122    1
   137    18    17    1
   138    18    19    1
   139    35    29   am
   140   126   125    1
   141    19    20    2
   142    19    27   am
   143   147   146    1
   144    48    47    1
   145     4     3    2
   146    27    28    1
   147    50    47    1
   148    50    51    1
   149   128   122   am
   150   128   129    1
   151   144   143    1
   152   144   145    2
   153   122   123    2
   154   140   139   ar
   155    29    28    1
   156    29    30    2
   157   141   139   ar
   158     7     6    1
   159   143   146    1
   160   143   142    1
   161     3     2    1
   162   139   138    1
   163     5     6    1
   164     5     2    1
   165    47    46    1
   166    28    31    1
   167   132   129    1
   168   146   148    1
   169    31    32    1
   170   129   130    1
   171     6     8    1
   172     2     1    1
   173    34    32   am
   174   133   130   am
   175   133   134    1
   176    32    33    2
   177   138   137    1
   178   130   131    2
   179   137   134    1
   180   134   135    1
   181   135   136    2
