@<TRIPOS>MOLECULE
tmp/3o83A00.pdb
 196 189 0 0 0
SMALL
GASTEIGER

@<TRIPOS>ATOM
      1  N        -16.6890   -9.9010   19.5370 N.3   194  LEU194     -0.1245
      2  CA       -15.6120   -9.5660   18.6070 C.3   194  LEU194      0.1561
      3  C        -16.0610   -8.5030   17.6120 C.2   194  LEU194      0.2260
      4  O        -17.1940   -8.5590   17.1090 O.2   194  LEU194     -0.2867
      5  CB       -15.1690  -10.8160   17.8240 C.3   194  LEU194      0.0270
      6  CG       -14.5590  -11.9950   18.6000 C.3   194  LEU194      0.0019
      7  CD1      -14.2980  -13.1570   17.6630 C.3   194  LEU194      0.0001
      8  CD2      -13.2580  -11.5770   19.3000 C.3   194  LEU194      0.0001
      9  N        -16.2880   -6.5550   14.0350 N.3   196  GLY196     -0.1225
     10  CA       -16.5830   -7.0970   12.7190 C.3   196  GLY196      0.1811
     11  C        -15.4120   -6.8650   11.7990 C.2   196  GLY196      0.2280
     12  O        -15.3530   -5.8370   11.1070 O.2   196  GLY196     -0.2866
     13  N        -22.0720  -14.8470   16.3800 N.3   237  HIS237     -0.1226
     14  CA       -22.1480  -13.4720   15.8990 C.3   237  HIS237      0.1752
     15  C        -23.2520  -12.6820   16.6180 C.2   237  HIS237      0.2596
     16  O        -24.3640  -13.1890   16.8130 O.2   237  HIS237     -0.2718
     17  CB       -22.3420  -13.4060   14.3810 C.3   237  HIS237      0.0759
     18  CG       -22.1150  -12.0370   13.8290 C.ar  237  HIS237      0.0818
     19  ND1      -23.0650  -11.0380   13.9130 N.ar  237  HIS237     -0.2268
     20  CD2      -21.0270  -11.4790   13.2480 C.ar  237  HIS237      0.1154
     21  CE1      -22.5830   -9.9310   13.3740 C.ar  237  HIS237      0.1986
     22  NE2      -21.3440  -10.1670   12.9730 N.ar  237  HIS237     -0.2212
     23  N        -22.9250  -11.4460   16.9920 N.am  238  ASN238     -0.1960
     24  CA       -23.8140  -10.5740   17.7840 C.3   238  ASN238      0.1819
     25  C        -25.2440  -10.5480   17.2350 C.2   238  ASN238      0.2621
     26  O        -26.2300  -10.6200   17.9850 O.2   238  ASN238     -0.2715
     27  CB       -23.2220   -9.1470   17.8500 C.3   238  ASN238      0.1195
     28  CG       -23.8550   -8.2970   18.9480 C.2   238  ASN238      0.2630
     29  OD1      -23.9120   -8.7140   20.1070 O.2   238  ASN238     -0.2716
     30  ND2      -24.3460   -7.0980   18.5820 N.am  238  ASN238     -0.0877
     31  N        -25.3440  -10.4560   15.9080 N.am  239  PHE239     -0.1974
     32  CA       -26.6290  -10.4280   15.2040 C.3   239  PHE239      0.1639
     33  C        -27.3950  -11.7360   15.4650 C.2   239  PHE239      0.2290
     34  O        -28.5720  -11.7060   15.8690 O.2   239  PHE239     -0.2864
     35  CB       -26.3520  -10.1740   13.7040 C.3   239  PHE239      0.0560
     36  CG       -27.5780  -10.1020   12.8070 C.ar  239  PHE239     -0.0200
     37  CD1      -28.8490   -9.8020   13.2970 C.ar  239  PHE239     -0.0042
     38  CD2      -27.4150  -10.2640   11.4290 C.ar  239  PHE239     -0.0042
     39  CE1      -29.9430   -9.7170   12.4430 C.ar  239  PHE239     -0.0003
     40  CE2      -28.4930  -10.1860   10.5560 C.ar  239  PHE239     -0.0003
     41  CZ       -29.7720   -9.9040   11.0580 C.ar  239  PHE239     -0.0000
     42  N        -29.6340  -10.2130   18.4470 N.3   243  SER243     -0.1217
     43  CA       -30.3700   -9.1500   17.7420 C.3   243  SER243      0.1889
     44  C        -31.5720   -9.5610   16.8850 C.2   243  SER243      0.2288
     45  O        -31.6090   -9.2370   15.6950 O.2   243  SER243     -0.2866
     46  CB       -29.4100   -8.2900   16.9110 C.3   243  SER243      0.2089
     47  OG       -28.3130   -7.8590   17.6960 O.3   243  SER243     -0.2183
     48  N        -32.8380   -8.6550    8.0250 N.3   308  VAL308     -0.1231
     49  CA       -31.6550   -8.5140    7.1880 C.3   308  VAL308      0.1692
     50  C        -30.7650   -7.4450    7.7930 C.2   308  VAL308      0.2593
     51  O        -31.2040   -6.3290    8.0280 O.2   308  VAL308     -0.2718
     52  CB       -32.0240   -8.1950    5.7000 C.3   308  VAL308      0.0266
     53  CG1      -30.7720   -8.1480    4.8260 C.3   308  VAL308      0.0020
     54  CG2      -33.0020   -9.2570    5.1480 C.3   308  VAL308      0.0020
     55  N        -29.5130   -7.8020    8.0660 N.am  309  GLY309     -0.1942
     56  CA       -28.5610   -6.8560    8.6190 C.3   309  GLY309      0.2014
     57  C        -27.1620   -7.1530    8.1520 C.2   309  GLY309      0.2639
     58  O        -26.9230   -8.1650    7.4750 O.2   309  GLY309     -0.2714
     59  N        -26.2320   -6.2710    8.5080 N.am  310  GLY310     -0.1939
     60  CA       -24.8080   -6.5670    8.3760 C.3   310  GLY310      0.2014
     61  C        -24.0650   -5.8400    7.2760 C.2   310  GLY310      0.2639
     62  O        -22.8420   -5.6900    7.3550 O.2   310  GLY310     -0.2714
     63  N        -24.7940   -5.3920    6.2550 N.am  311  ALA311     -0.1963
     64  CA       -24.1950   -4.8790    5.0160 C.3   311  ALA311      0.1728
     65  C        -25.2150   -4.1400    4.1720 C.2   311  ALA311      0.2617
     66  O        -26.4310   -4.2000    4.4250 O.2   311  ALA311     -0.2715
     67  CB       -23.5710   -6.0230    4.1890 C.3   311  ALA311      0.0334
     68  N        -24.7170   -3.4360    3.1660 N.am  312  SER312     -0.1936
     69  CA       -25.5780   -2.6800    2.2750 C.3   312  SER312      0.2055
     70  C        -26.7090   -3.5460    1.7180 C.2   312  SER312      0.2643
     71  O        -26.4700   -4.6370    1.1890 O.2   312  SER312     -0.2714
     72  CB       -24.7670   -2.0730    1.1290 C.3   312  SER312      0.2130
     73  OG       -25.6400   -1.2860    0.3260 O.3   312  SER312     -0.2179
     74  N        -27.9340   -3.0570    1.8440 N.am  313  PHE313     -0.1973
     75  CA       -29.1210   -3.7980    1.4090 C.3   313  PHE313      0.1639
     76  C        -30.0260   -2.8740    0.5960 C.2   313  PHE313      0.2290
     77  O        -30.9610   -2.2740    1.1380 O.2   313  PHE313     -0.2864
     78  CB       -29.8660   -4.3720    2.6220 C.3   313  PHE313      0.0560
     79  CG       -30.9390   -5.3790    2.2810 C.ar  313  PHE313     -0.0200
     80  CD1      -30.6650   -6.4640    1.4420 C.ar  313  PHE313     -0.0042
     81  CD2      -32.2090   -5.2820    2.8590 C.ar  313  PHE313     -0.0042
     82  CE1      -31.6500   -7.4030    1.1420 C.ar  313  PHE313     -0.0003
     83  CE2      -33.1940   -6.2250    2.5840 C.ar  313  PHE313     -0.0003
     84  CZ       -32.9140   -7.2960    1.7170 C.ar  313  PHE313     -0.0000
     85  N        -35.2230   -4.5590    8.7610 N.3   331  GLN331     -0.1231
     86  CA       -33.8160   -4.2340    8.5630 C.3   331  GLN331      0.1698
     87  C        -33.1470   -3.9790    9.9050 C.2   331  GLN331      0.2592
     88  O        -33.7480   -3.3830   10.8050 O.2   331  GLN331     -0.2718
     89  CB       -33.6290   -3.0340    7.6290 C.3   331  GLN331      0.0381
     90  CG       -34.1910   -3.2650    6.1940 C.3   331  GLN331      0.0905
     91  CD       -33.4800   -2.4300    5.1540 C.2   331  GLN331      0.2608
     92  OE1      -32.2610   -2.2780    5.2000 O.2   331  GLN331     -0.2717
     93  NE2      -34.2400   -1.8860    4.1960 N.am  331  GLN331     -0.0878
     94  N        -31.9020   -4.4320   10.0220 N.am  332  VAL332     -0.1966
     95  CA       -31.1650   -4.3240   11.2720 C.3   332  VAL332      0.1727
     96  C        -29.7640   -3.7830   11.0000 C.2   332  VAL332      0.2616
     97  O        -28.9980   -4.3700   10.2300 O.2   332  VAL332     -0.2715
     98  CB       -31.0430   -5.6890   11.9940 C.3   332  VAL332      0.0290
     99  CG1      -30.4820   -5.4890   13.3990 C.3   332  VAL332      0.0023
    100  CG2      -32.3870   -6.4130   12.0640 C.3   332  VAL332      0.0023
    101  N        -29.4460   -2.6500   11.6190 N.am  333  PHE333     -0.1960
    102  CA       -28.1190   -2.0520   11.5330 C.3   333  PHE333      0.1771
    103  C        -27.5720   -2.0660   12.9590 C.2   333  PHE333      0.2620
    104  O        -27.9860   -1.2600   13.8030 O.2   333  PHE333     -0.2715
    105  CB       -28.2090   -0.6280   10.9360 C.3   333  PHE333      0.0574
    106  CG       -27.0630    0.2840   11.3020 C.ar  333  PHE333     -0.0200
    107  CD1      -25.7440   -0.1660   11.2630 C.ar  333  PHE333     -0.0042
    108  CD2      -27.3080    1.6050   11.6620 C.ar  333  PHE333     -0.0042
    109  CE1      -24.6890    0.6670   11.6000 C.ar  333  PHE333     -0.0003
    110  CE2      -26.2450    2.4700   12.0020 C.ar  333  PHE333     -0.0003
    111  CZ       -24.9360    1.9990   11.9640 C.ar  333  PHE333     -0.0000
    112  N        -26.6650   -3.0080   13.2190 N.am  334  GLY334     -0.1940
    113  CA       -26.0770   -3.1860   14.5410 C.3   334  GLY334      0.2014
    114  C        -24.5600   -3.2580   14.5000 C.2   334  GLY334      0.2639
    115  O        -23.9500   -3.2860   13.4220 O.2   334  GLY334     -0.2714
    116  N        -23.9520   -3.2800   15.6850 N.am  335  MET335     -0.1963
    117  CA       -22.5040   -3.4740   15.8240 C.3   335  MET335      0.1736
    118  C        -22.2490   -4.3060   17.0860 C.2   335  MET335      0.2616
    119  O        -22.9900   -4.1980   18.0680 O.2   335  MET335     -0.2715
    120  CB       -21.7800   -2.1190   15.8920 C.3   335  MET335      0.0427
    121  CG       -22.3240   -1.1680   16.9800 C.3   335  MET335      0.0599
    122  SD       -21.7400    0.5400   16.8060 S.3   335  MET335     -0.1393
    123  CE       -22.6360    1.0430   15.3380 C.3   335  MET335      0.0692
    124  N        -21.2410   -5.1720   17.0350 N.am  336  ALA336     -0.1963
    125  CA       -20.8610   -5.9930   18.1810 C.3   336  ALA336      0.1728
    126  C        -20.4500   -5.1170   19.3900 C.2   336  ALA336      0.2616
    127  O        -20.5350   -5.5570   20.5320 O.2   336  ALA336     -0.2715
    128  CB       -19.7370   -6.9480   17.7910 C.3   336  ALA336      0.0334
    129  N        -20.0250   -3.8850   19.1190 N.am  337  GLU337     -0.1977
    130  CA       -19.6590   -2.9040   20.1560 C.3   337  GLU337      0.1602
    131  C        -20.8540   -2.4050   20.9740 C.2   337  GLU337      0.2287
    132  O        -20.6780   -1.8400   22.0670 O.2   337  GLU337     -0.2864
    133  CB       -18.9610   -1.7020   19.5240 C.3   337  GLU337      0.0415
    134  CG       -17.5190   -1.9670   19.0700 C.3   337  GLU337      0.1163
    135  CD       -17.4080   -2.6330   17.6910 C.2   337  GLU337      0.3649
    136  OE1      -18.4440   -2.9200   17.0520 O.co2 337  GLU337     -0.2457
    137  OE2      -16.2580   -2.8630   17.2670 O.co2 337  GLU337     -0.2457
    138  N        -27.7580   -1.2520   18.4340 N.3   340  VAL340     -0.1245
    139  CA       -28.5300   -1.9300   17.4040 C.3   340  VAL340      0.1561
    140  C        -29.7580   -1.1170   17.0370 C.2   340  VAL340      0.2260
    141  O        -30.4720   -0.6360   17.9100 O.2   340  VAL340     -0.2867
    142  CB       -28.9680   -3.3620   17.8320 C.3   340  VAL340      0.0252
    143  CG1      -29.7120   -4.0400   16.6740 C.3   340  VAL340      0.0019
    144  CG2      -27.7400   -4.1960   18.2430 C.3   340  VAL340      0.0019
    145  N        -32.5790    1.7500    7.7820 N.3   356  GLN356     -0.1245
    146  CA       -32.0340    0.7290    8.6630 C.3   356  GLN356      0.1566
    147  C        -32.5170    0.9510   10.1030 C.2   356  GLN356      0.2260
    148  O        -31.8620    0.5290   11.0570 O.2   356  GLN356     -0.2867
    149  CB       -30.5060    0.6860    8.5660 C.3   356  GLN356      0.0367
    150  CG       -29.9710    0.0950    7.2420 C.3   356  GLN356      0.0905
    151  CD       -30.2750    0.9800    6.0380 C.2   356  GLN356      0.2608
    152  OE1      -29.7770    2.1070    5.9370 O.2   356  GLN356     -0.2717
    153  NE2      -31.0910    0.4680    5.1120 N.am  356  GLN356     -0.0878
    154  N        -18.0150    4.4860   15.3710 N.3   414  SER414     -0.1217
    155  CA       -17.9820    3.2160   14.6690 C.3   414  SER414      0.1889
    156  C        -17.3620    3.3290   13.2740 C.2   414  SER414      0.2288
    157  O        -17.0430    2.3190   12.6480 O.2   414  SER414     -0.2866
    158  CB       -19.3970    2.6890   14.5340 C.3   414  SER414      0.2089
    159  OG       -20.0930    3.4220   13.5380 O.3   414  SER414     -0.2183
    160  N        -19.1280    4.4590   10.8090 N.3   416  ASP416     -0.1239
    161  CA       -20.2750    4.4770    9.8980 C.3   416  ASP416      0.1674
    162  C        -20.7180    5.8890    9.5400 C.2   416  ASP416      0.2266
    163  O        -20.7740    6.7680   10.4050 O.2   416  ASP416     -0.2867
    164  CB       -21.4520    3.7100   10.4940 C.3   416  ASP416      0.1410
    165  CG       -21.1560    2.2420   10.6500 C.2   416  ASP416      0.3668
    166  OD1      -21.2900    1.7350   11.7750 O.co2 416  ASP416     -0.2456
    167  OD2      -20.7500    1.5990    9.6600 O.co2 416  ASP416     -0.2456
    168  N        -27.8520    4.0520    6.5970 N.3   428  VAL428     -0.1231
    169  CA       -26.4030    3.8750    6.5250 C.3   428  VAL428      0.1692
    170  C        -25.9620    4.0810    5.0720 C.2   428  VAL428      0.2592
    171  O        -26.4980    3.4440    4.1670 O.2   428  VAL428     -0.2718
    172  CB       -25.9380    2.4790    7.0210 C.3   428  VAL428      0.0266
    173  CG1      -24.4130    2.4310    7.1200 C.3   428  VAL428      0.0020
    174  CG2      -26.5450    2.1470    8.3750 C.3   428  VAL428      0.0020
    175  N        -24.9850    4.9620    4.8510 N.am  429  VAL429     -0.1966
    176  CA       -24.5950    5.3190    3.4780 C.3   429  VAL429      0.1727
    177  C        -23.1320    5.0140    3.1690 C.2   429  VAL429      0.2617
    178  O        -22.7200    5.0130    2.0080 O.2   429  VAL429     -0.2715
    179  CB       -24.9390    6.7810    3.1360 C.3   429  VAL429      0.0290
    180  CG1      -26.4440    7.0250    3.2840 C.3   429  VAL429      0.0023
    181  CG2      -24.1370    7.7470    4.0080 C.3   429  VAL429      0.0023
    182  N        -22.3440    4.7440    4.2030 N.am  430  GLY430     -0.1940
    183  CA       -20.9400    4.4880    3.9900 C.3   430  GLY430      0.2014
    184  C        -20.1430    4.2900    5.2510 C.2   430  GLY430      0.2638
    185  O        -20.6970    4.0410    6.3310 O.2   430  GLY430     -0.2714
    186  N        -18.8290    4.3840    5.0990 N.am  431  ARG431     -0.1977
    187  CA       -17.9160    4.1890    6.2020 C.3   431  ARG431      0.1597
    188  C        -16.6770    5.0340    5.9880 C.2   431  ARG431      0.2287
    189  O        -16.2530    5.2410    4.8560 O.2   431  ARG431     -0.2864
    190  CB       -17.5450    2.7180    6.3380 C.3   431  ARG431      0.0334
    191  CG       -17.3300    2.3240    7.7980 C.3   431  ARG431      0.0492
    192  CD       -17.0160    0.8510    7.9670 C.3   431  ARG431      0.2205
    193  NE       -16.4420    0.5960    9.2860 N.pl3 431  ARG431     -0.0865
    194  CZ       -15.7610   -0.5020    9.6020 C.cat 431  ARG431      0.5346
    195  NH1      -15.5640   -1.4530    8.6940 N.pl3 431  ARG431      0.1354
    196  NH2      -15.2740   -0.6550   10.8270 N.pl3 431  ARG431      0.1354
@<TRIPOS>BOND
     1    73    72    1
     2    76    77    2
     3    76    75    1
     4    72    69    1
     5    82    80   ar
     6    82    84   ar
     7    71    70    2
     8    75    74    1
     9    75    78    1
    10    80    79   ar
    11    84    83   ar
    12    70    74   am
    13    70    69    1
    14   178   177    2
    15    69    68    1
    16    79    78    1
    17    79    81   ar
    18    83    81   ar
    19   179   180    1
    20   179   176    1
    21   179   181    1
    22    68    65   am
    23   177   176    1
    24   177   182   am
    25   176   175    1
    26   183   182    1
    27   183   184    1
    28   171   170    2
    29    65    66    2
    30    65    64    1
    31    67    64    1
    32    93    91   am
    33    53    52    1
    34   175   170   am
    35   189   188    2
    36    64    63    1
    37   170   169    1
    38   186   184   am
    39   186   187    1
    40   153   151   am
    41    54    52    1
    42    91    92    2
    43    91    90    1
    44   184   185    2
    45    52    49    1
    46   152   151    2
    47   188   187    1
    48   151   150    1
    49    90    89    1
    50   187   190    1
    51    63    61   am
    52   190   191    1
    53   169   168    1
    54   169   172    1
    55   172   173    1
    56   172   174    1
    57    49    50    1
    58    49    48    1
    59   150   149    1
    60    61    62    2
    61    61    60    1
    62    58    57    2
    63    89    86    1
    64   145   146    1
    65    50    51    2
    66    50    55   am
    67   191   192    1
    68   192   193    1
    69    55    56    1
    70    57    59   am
    71    57    56    1
    72    60    59    1
    73    86    85    1
    74    86    87    1
    75   149   146    1
    76   146   147    1
    77   195   194    1
    78   193   194    2
    79   162   161    1
    80   162   163    2
    81   194   196    1
    82   167   165   ar
    83   161   164    1
    84   161   160    1
    85    87    94   am
    86    87    88    2
    87    94    95    1
    88   147   148    2
    89    97    96    2
    90   164   165    1
    91    40    41   ar
    92    40    38   ar
    93   165   166   ar
    94   105   106    1
    95   105   102    1
    96    96    95    1
    97    96   101   am
    98    41    39   ar
    99    12    11    2
   100   107   106   ar
   101   107   109   ar
   102    95    98    1
   103   106   108   ar
   104    38    36   ar
   105   102   101    1
   106   102   103    1
   107   109   111   ar
   108   108   110   ar
   109    11    10    1
   110   111   110   ar
   111    98   100    1
   112    98    99    1
   113    39    37   ar
   114   157   156    2
   115    10     9    1
   116    36    37   ar
   117    36    35    1
   118   103   112   am
   119   103   104    2
   120    22    20   ar
   121    22    21   ar
   122   112   113    1
   123    20    18   ar
   124   156   155    1
   125    21    19   ar
   126   115   114    2
   127   159   158    1
   128    35    32    1
   129    18    19   ar
   130    18    17    1
   131    17    14    1
   132   114   113    1
   133   114   116   am
   134   158   155    1
   135   155   154    1
   136    32    33    1
   137    32    31    1
   138   123   122    1
   139    33    34    2
   140   116   117    1
   141    45    44    2
   142   117   120    1
   143   117   118    1
   144   120   121    1
   145    14    13    1
   146    14    15    1
   147    31    25   am
   148    15    16    2
   149    15    23   am
   150   143   142    1
   151   122   121    1
   152    44    43    1
   153    46    47    1
   154    46    43    1
   155    23    24    1
   156   124   118   am
   157   124   125    1
   158   140   139    1
   159   140   141    2
   160   136   135   ar
   161   118   119    2
   162     4     3    2
   163    25    24    1
   164    25    26    2
   165   137   135   ar
   166   139   142    1
   167   139   138    1
   168     3     2    1
   169     7     6    1
   170   135   134    1
   171    43    42    1
   172    24    27    1
   173   128   125    1
   174     5     6    1
   175     5     2    1
   176   142   144    1
   177    27    28    1
   178   125   126    1
   179    30    28   am
   180     6     8    1
   181     2     1    1
   182    28    29    2
   183   134   133    1
   184   129   126   am
   185   129   130    1
   186   126   127    2
   187   133   130    1
   188   130   131    1
   189   131   132    2
