@<TRIPOS>MOLECULE
tmp/3o83B01.pdb
 202 196 0 0 0
SMALL
GASTEIGER

@<TRIPOS>ATOM
      1  N        -12.7990   -9.6560  -12.3920 N.3   194  LEU194     -0.1231
      2  CA       -13.9330   -9.7270  -11.4670 C.3   194  LEU194      0.1693
      3  C        -13.8870   -8.5790  -10.4730 C.2   194  LEU194      0.2593
      4  O        -12.8150   -8.2220   -9.9990 O.2   194  LEU194     -0.2718
      5  CB       -13.9320  -11.0700  -10.7100 C.3   194  LEU194      0.0284
      6  CG       -14.0840  -12.3530  -11.5260 C.3   194  LEU194      0.0019
      7  CD1      -13.9090  -13.5820  -10.6060 C.3   194  LEU194      0.0001
      8  CD2      -15.4360  -12.3630  -12.2230 C.3   194  LEU194      0.0001
      9  N        -15.0400   -8.0010  -10.1610 N.am  195  SER195     -0.1938
     10  CA       -15.1090   -6.9400   -9.1530 C.3   195  SER195      0.2055
     11  C        -14.8180   -7.4940   -7.7500 C.2   195  SER195      0.2643
     12  O        -14.9910   -8.6880   -7.5050 O.2   195  SER195     -0.2714
     13  CB       -16.4940   -6.2920   -9.1540 C.3   195  SER195      0.2130
     14  OG       -17.4780   -7.2370   -8.7760 O.3   195  SER195     -0.2179
     15  N        -14.3610   -6.6210   -6.8530 N.am  196  GLY196     -0.1954
     16  CA       -14.2420   -6.9440   -5.4230 C.3   196  GLY196      0.1869
     17  C        -15.3830   -6.3480   -4.6020 C.2   196  GLY196      0.2309
     18  O        -16.0420   -5.3800   -5.0290 O.2   196  GLY196     -0.2863
     19  N         -6.1210  -12.4970   -9.3800 N.3   239  HIS239     -0.1226
     20  CA        -6.5210  -11.1910   -8.8820 C.3   239  HIS239      0.1752
     21  C         -5.7880  -10.0750   -9.6160 C.2   239  HIS239      0.2596
     22  O         -4.5940  -10.1680   -9.8430 O.2   239  HIS239     -0.2718
     23  CB        -6.2990  -11.0650   -7.3670 C.3   239  HIS239      0.0759
     24  CG        -6.9610   -9.8620   -6.7730 C.ar  239  HIS239      0.0818
     25  ND1       -6.4090   -8.6020   -6.8480 N.ar  239  HIS239     -0.2268
     26  CD2       -8.1410   -9.7200   -6.1170 C.ar  239  HIS239      0.1154
     27  CE1       -7.2200   -7.7340   -6.2660 C.ar  239  HIS239      0.1986
     28  NE2       -8.2760   -8.3880   -5.8120 N.ar  239  HIS239     -0.2212
     29  N         -6.5200   -9.0140   -9.9380 N.am  240  ASN240     -0.1960
     30  CA        -5.9960   -7.8780  -10.6980 C.3   240  ASN240      0.1819
     31  C         -4.6460   -7.3440  -10.1760 C.2   240  ASN240      0.2621
     32  O         -3.7320   -7.0780  -10.9530 O.2   240  ASN240     -0.2715
     33  CB        -7.0570   -6.7630  -10.7740 C.3   240  ASN240      0.1195
     34  CG        -6.7700   -5.7600  -11.8880 C.2   240  ASN240      0.2630
     35  OD1       -6.5380   -6.1380  -13.0420 O.2   240  ASN240     -0.2716
     36  ND2       -6.7560   -4.4770  -11.5400 N.am  240  ASN240     -0.0877
     37  N         -4.5310   -7.2170   -8.8520 N.am  241  PHE241     -0.1974
     38  CA        -3.2950   -6.7820   -8.1800 C.3   241  PHE241      0.1639
     39  C         -2.1320   -7.7400   -8.4800 C.2   241  PHE241      0.2290
     40  O         -1.0400   -7.3220   -8.9300 O.2   241  PHE241     -0.2864
     41  CB        -3.6060   -6.7300   -6.6690 C.3   241  PHE241      0.0560
     42  CG        -2.5010   -6.1890   -5.7820 C.ar  241  PHE241     -0.0200
     43  CD1       -1.4380   -5.4320   -6.2780 C.ar  241  PHE241     -0.0042
     44  CD2       -2.5720   -6.4180   -4.3930 C.ar  241  PHE241     -0.0042
     45  CE1       -0.4410   -4.9420   -5.4130 C.ar  241  PHE241     -0.0003
     46  CE2       -1.5870   -5.9210   -3.5190 C.ar  241  PHE241     -0.0003
     47  CZ        -0.5210   -5.1800   -4.0270 C.ar  241  PHE241     -0.0000
     48  N         -0.5760   -5.5690  -11.4370 N.3   245  SER245     -0.1217
     49  CA        -0.2650   -4.3130  -10.7470 C.3   245  SER245      0.1889
     50  C          1.0110   -4.2750   -9.8900 C.2   245  SER245      0.2288
     51  O          0.9410   -3.9460   -8.7130 O.2   245  SER245     -0.2866
     52  CB        -1.4640   -3.8220   -9.9280 C.3   245  SER245      0.2089
     53  OG        -2.6460   -3.7870  -10.7110 O.3   245  SER245     -0.2183
     54  N          1.9050   -3.0680   -0.9830 N.3   310  VAL310     -0.1231
     55  CA         0.7590   -3.3400   -0.1240 C.3   310  VAL310      0.1692
     56  C         -0.4440   -2.6400   -0.7300 C.2   310  VAL310      0.2593
     57  O         -0.4140   -1.4360   -0.9560 O.2   310  VAL310     -0.2718
     58  CB         0.9780   -2.8620    1.3480 C.3   310  VAL310      0.0266
     59  CG1       -0.2430   -3.2450    2.2250 C.3   310  VAL310      0.0020
     60  CG2        2.2700   -3.4720    1.9320 C.3   310  VAL310      0.0020
     61  N         -1.4930   -3.3970   -1.0070 N.am  311  GLY311     -0.1942
     62  CA        -2.7280   -2.8130   -1.5090 C.3   311  GLY311      0.2014
     63  C         -3.9610   -3.5930   -1.1010 C.2   311  GLY311      0.2639
     64  O         -3.8630   -4.6670   -0.4870 O.2   311  GLY311     -0.2714
     65  N         -5.1290   -3.0610   -1.4450 N.am  312  GLY312     -0.1939
     66  CA        -6.3590   -3.8390   -1.3330 C.3   312  GLY312      0.2014
     67  C         -7.2910   -3.3840   -0.2270 C.2   312  GLY312      0.2639
     68  O         -8.5010   -3.6120   -0.3050 O.2   312  GLY312     -0.2714
     69  N         -6.7320   -2.7450    0.7970 N.am  313  ALA313     -0.1963
     70  CA        -7.4980   -2.3810    1.9890 C.3   313  ALA313      0.1728
     71  C         -6.7770   -1.3470    2.8440 C.2   313  ALA313      0.2617
     72  O         -5.6400   -0.9560    2.5540 O.2   313  ALA313     -0.2715
     73  CB        -7.8400   -3.6360    2.8270 C.3   313  ALA313      0.0334
     74  N         -7.4400   -0.9210    3.9140 N.am  314  SER314     -0.1936
     75  CA        -6.8720    0.0770    4.8080 C.3   314  SER314      0.2055
     76  C         -5.5160   -0.3480    5.3590 C.2   314  SER314      0.2643
     77  O         -5.3560   -1.4580    5.8750 O.2   314  SER314     -0.2714
     78  CB        -7.8180    0.3700    5.9740 C.3   314  SER314      0.2130
     79  OG        -7.2400    1.3920    6.7630 O.3   314  SER314     -0.2179
     80  N         -4.5430    0.5520    5.2600 N.am  315  PHE315     -0.1973
     81  CA        -3.1900    0.2590    5.6930 C.3   315  PHE315      0.1639
     82  C         -2.6510    1.4600    6.4770 C.2   315  PHE315      0.2290
     83  O         -2.0530    2.3680    5.8980 O.2   315  PHE315     -0.2864
     84  CB        -2.3200   -0.0700    4.4690 C.3   315  PHE315      0.0560
     85  CG        -0.9790   -0.6750    4.8020 C.ar  315  PHE315     -0.0200
     86  CD1       -0.8780   -1.7710    5.6540 C.ar  315  PHE315     -0.0042
     87  CD2        0.1830   -0.1660    4.2220 C.ar  315  PHE315     -0.0042
     88  CE1        0.3620   -2.3390    5.9450 C.ar  315  PHE315     -0.0003
     89  CE2        1.4290   -0.7330    4.4860 C.ar  315  PHE315     -0.0003
     90  CZ         1.5210   -1.8130    5.3650 C.ar  315  PHE315     -0.0000
     91  N          2.8750    1.5660   -1.7250 N.3   333  GLN333     -0.1231
     92  CA         1.4290    1.4240   -1.5290 C.3   333  GLN333      0.1698
     93  C          0.7170    1.4350   -2.8690 C.2   333  GLN333      0.2592
     94  O          1.1030    2.1770   -3.7610 O.2   333  GLN333     -0.2718
     95  CB         0.8690    2.5220   -0.6200 C.3   333  GLN333      0.0381
     96  CG         1.3970    2.3960    0.8310 C.3   333  GLN333      0.0905
     97  CD         0.4300    2.9650    1.8590 C.2   333  GLN333      0.2608
     98  OE1       -0.7580    2.6420    1.8490 O.2   333  GLN333     -0.2717
     99  NE2        0.9430    3.8050    2.7650 N.am  333  GLN333     -0.0878
    100  N         -0.3120    0.5990   -2.9940 N.am  334  VAL334     -0.1966
    101  CA        -1.0460    0.4650   -4.2490 C.3   334  VAL334      0.1727
    102  C         -2.5460    0.5390   -3.9580 C.2   334  VAL334      0.2616
    103  O         -3.0840   -0.2560   -3.1760 O.2   334  VAL334     -0.2715
    104  CB        -0.7030   -0.8760   -4.9740 C.3   334  VAL334      0.0290
    105  CG1       -1.3270   -0.9260   -6.3380 C.3   334  VAL334      0.0023
    106  CG2        0.8120   -1.0810   -5.1060 C.3   334  VAL334      0.0023
    107  N         -3.2130    1.5020   -4.5790 N.am  335  PHE335     -0.1960
    108  CA        -4.6670    1.6090   -4.5110 C.3   335  PHE335      0.1771
    109  C         -5.2360    1.4220   -5.9200 C.2   335  PHE335      0.2620
    110  O         -5.1820    2.3310   -6.7520 O.2   335  PHE335     -0.2715
    111  CB        -5.0650    2.9640   -3.9080 C.3   335  PHE335      0.0574
    112  CG        -6.4770    3.4050   -4.2170 C.ar  335  PHE335     -0.0200
    113  CD1       -7.5520    2.5170   -4.1200 C.ar  335  PHE335     -0.0042
    114  CD2       -6.7340    4.7330   -4.5860 C.ar  335  PHE335     -0.0042
    115  CE1       -8.8650    2.9370   -4.4120 C.ar  335  PHE335     -0.0003
    116  CE2       -8.0380    5.1650   -4.8700 C.ar  335  PHE335     -0.0003
    117  CZ        -9.1060    4.2650   -4.7760 C.ar  335  PHE335     -0.0000
    118  N         -5.7780    0.2360   -6.1730 N.am  336  GLY336     -0.1940
    119  CA        -6.2970   -0.1010   -7.4870 C.3   336  GLY336      0.2014
    120  C         -7.6580   -0.7520   -7.4220 C.2   336  GLY336      0.2639
    121  O         -8.2070   -0.9890   -6.3440 O.2   336  GLY336     -0.2714
    122  N         -8.2080   -1.0240   -8.5940 N.am  337  MET337     -0.1963
    123  CA        -9.5030   -1.6650   -8.7070 C.3   337  MET337      0.1736
    124  C         -9.5040   -2.4880   -9.9880 C.2   337  MET337      0.2616
    125  O         -8.8690   -2.0930  -10.9890 O.2   337  MET337     -0.2715
    126  CB       -10.6290   -0.6240   -8.6880 C.3   337  MET337      0.0427
    127  CG       -10.5670    0.4110   -9.8200 C.3   337  MET337      0.0599
    128  SD       -11.6150    1.8500   -9.5230 S.3   337  MET337     -0.1393
    129  CE       -10.8060    2.6280   -8.1150 C.3   337  MET337      0.0692
    130  N        -10.1850   -3.6340   -9.9450 N.am  338  ALA338     -0.1963
    131  CA       -10.2710   -4.5450  -11.0910 C.3   338  ALA338      0.1728
    132  C        -10.9420   -3.8630  -12.2800 C.2   338  ALA338      0.2616
    133  O        -10.7280   -4.2570  -13.4290 O.2   338  ALA338     -0.2715
    134  CB       -11.0260   -5.7850  -10.7130 C.3   338  ALA338      0.0334
    135  N        -11.7590   -2.8510  -11.9820 N.am  339  GLU339     -0.1977
    136  CA       -12.4500   -2.0620  -12.9880 C.3   339  GLU339      0.1602
    137  C        -11.4820   -1.1890  -13.8080 C.2   339  GLU339      0.2287
    138  O        -11.8280   -0.7350  -14.8960 O.2   339  GLU339     -0.2864
    139  CB       -13.5120   -1.1730  -12.3260 C.3   339  GLU339      0.0415
    140  CG       -14.7750   -1.9120  -11.8720 C.3   339  GLU339      0.1163
    141  CD       -14.6330   -2.5910  -10.5000 C.2   339  GLU339      0.3649
    142  OE1      -13.5430   -2.5610   -9.8800 O.co2 339  GLU339     -0.2457
    143  OE2      -15.6230   -3.2010  -10.0610 O.co2 339  GLU339     -0.2457
    144  N         -5.3390    2.2330  -11.3420 N.3   342  VAL342     -0.1245
    145  CA        -4.3850    1.8190  -10.3130 C.3   342  VAL342      0.1561
    146  C         -3.4980    2.9990   -9.9520 C.2   342  VAL342      0.2260
    147  O         -3.0280    3.7190  -10.8400 O.2   342  VAL342     -0.2867
    148  CB        -3.5120    0.6140  -10.7250 C.3   342  VAL342      0.0252
    149  CG1       -2.6470    0.1560   -9.5440 C.3   342  VAL342      0.0019
    150  CG2       -4.3830   -0.5500  -11.1960 C.3   342  VAL342      0.0019
    151  N         -1.7270    6.6370   -0.7320 N.3   358  GLN358     -0.1245
    152  CA        -1.9230    5.4650   -1.5740 C.3   358  GLN358      0.1566
    153  C         -1.5530    5.7730   -3.0370 C.2   358  GLN358      0.2260
    154  O         -2.0150    5.1090   -3.9700 O.2   358  GLN358     -0.2867
    155  CB        -3.3620    4.9580   -1.4220 C.3   358  GLN358      0.0367
    156  CG        -3.6150    4.2040   -0.1080 C.3   358  GLN358      0.0905
    157  CD        -3.6300    5.1190    1.1110 C.2   358  GLN358      0.2608
    158  OE1       -4.3870    6.0730    1.1620 O.2   358  GLN358     -0.2717
    159  NE2       -2.7840    4.8240    2.0970 N.am  358  GLN358     -0.0878
    160  N        -16.4200    4.4400   -8.1930 N.3   416  SER416     -0.1217
    161  CA       -15.9800    3.2530   -7.4730 C.3   416  SER416      0.1889
    162  C        -16.6000    3.1000   -6.0900 C.2   416  SER416      0.2288
    163  O        -16.4580    2.0440   -5.4650 O.2   416  SER416     -0.2866
    164  CB       -14.4650    3.3050   -7.2890 C.3   416  SER416      0.2089
    165  OG       -14.1300    4.4030   -6.4620 O.3   416  SER416     -0.2183
    166  N        -15.3860    4.6740   -3.6130 N.3   418  ASP418     -0.1239
    167  CA       -14.3220    5.0350   -2.6770 C.3   418  ASP418      0.1674
    168  C        -14.3440    6.5270   -2.3200 C.2   418  ASP418      0.2266
    169  O        -14.5120    7.3810   -3.1960 O.2   418  ASP418     -0.2867
    170  CB       -12.9490    4.6720   -3.2380 C.3   418  ASP418      0.1410
    171  CG       -12.7690    3.1820   -3.4220 C.2   418  ASP418      0.3668
    172  OD1      -12.3990    2.7740   -4.5440 O.co2 418  ASP418     -0.2456
    173  OD2      -13.0000    2.4200   -2.4490 O.co2 418  ASP418     -0.2456
    174  N         -6.9260    7.1940    0.4330 N.3   430  VAL430     -0.1231
    175  CA        -8.2350    6.5520    0.5220 C.3   430  VAL430      0.1692
    176  C         -8.7030    6.6290    1.9720 C.2   430  VAL430      0.2592
    177  O         -7.9740    6.2630    2.8920 O.2   430  VAL430     -0.2718
    178  CB        -8.2150    5.0780    0.0870 C.3   430  VAL430      0.0266
    179  CG1       -9.6440    4.5560   -0.0210 C.3   430  VAL430      0.0020
    180  CG2       -7.4890    4.9400   -1.2490 C.3   430  VAL430      0.0020
    181  N         -9.9410    7.0630    2.1470 N.am  431  VAL431     -0.1966
    182  CA       -10.4200    7.4840    3.4480 C.3   431  VAL431      0.1727
    183  C        -11.6990    6.7320    3.8880 C.2   431  VAL431      0.2617
    184  O        -11.9680    6.5680    5.0910 O.2   431  VAL431     -0.2715
    185  CB       -10.5130    9.0430    3.3950 C.3   431  VAL431      0.0290
    186  CG1      -11.8880    9.5790    3.6560 C.3   431  VAL431      0.0023
    187  CG2       -9.3890    9.6870    4.2220 C.3   431  VAL431      0.0023
    188  N        -12.4530    6.2250    2.9130 N.am  432  GLY432     -0.1940
    189  CA       -13.7050    5.5310    3.1990 C.3   432  GLY432      0.2014
    190  C        -14.4190    4.9710    1.9830 C.2   432  GLY432      0.2638
    191  O        -13.8360    4.8540    0.9070 O.2   432  GLY432     -0.2714
    192  N        -15.6920    4.6320    2.1830 N.am  433  ARG433     -0.1977
    193  CA       -16.5870    4.0630    1.1830 C.3   433  ARG433      0.1597
    194  C        -17.8940    4.8000    1.3020 C.2   433  ARG433      0.2287
    195  O        -18.3020    5.1350    2.4170 O.2   433  ARG433     -0.2864
    196  CB       -16.9210    2.6120    1.5460 C.3   433  ARG433      0.0334
    197  CG       -15.7540    1.6670    1.6770 C.3   433  ARG433      0.0492
    198  CD       -15.8600    0.5700    0.6500 C.3   433  ARG433      0.2205
    199  NE       -15.6540    1.0770   -0.7030 N.pl3 433  ARG433     -0.0865
    200  CZ       -16.2190    0.5650   -1.7920 C.cat 433  ARG433      0.5346
    201  NH1      -17.0480   -0.4690   -1.6930 N.pl3 433  ARG433      0.1354
    202  NH2      -15.9640    1.0980   -2.9770 N.pl3 433  ARG433      0.1354
@<TRIPOS>BOND
     1   138   137    2
     2   137   136    1
     3   133   132    2
     4    35    34    2
     5   136   139    1
     6   136   135    1
     7     1     2    1
     8   139   140    1
     9   132   135   am
    10   132   131    1
    11     8     6    1
    12    34    36   am
    13    34    33    1
    14   140   141    1
    15     6     5    1
    16     6     7    1
    17     2     5    1
    18     2     3    1
    19    48    49    1
    20   144   145    1
    21   150   148    1
    22   131   134    1
    23   131   130    1
    24   125   124    2
    25    32    31    2
    26   147   146    2
    27    33    30    1
    28    49    52    1
    29    49    50    1
    30   148   145    1
    31   148   149    1
    32    53    52    1
    33    30    31    1
    34    30    29    1
    35   141   143   ar
    36   141   142   ar
    37     3     9   am
    38     3     4    2
    39   145   146    1
    40    31    37   am
    41     9    10    1
    42   124   130   am
    43   124   123    1
    44    29    21   am
    45    50    51    2
    46    22    21    2
    47   127   128    1
    48   127   126    1
    49    21    20    1
    50   128   129    1
    51    19    20    1
    52    13    10    1
    53    13    14    1
    54    10    11    1
    55    40    39    2
    56    20    23    1
    57    37    38    1
    58   123   126    1
    59   123   122    1
    60   122   120   am
    61    39    38    1
    62   160   161    1
    63    38    41    1
    64    11    12    2
    65    11    15   am
    66   119   120    1
    67   119   118    1
    68   161   164    1
    69   161   162    1
    70   120   121    2
    71    23    24    1
    72   164   165    1
    73    15    16    1
    74    25    24   ar
    75    25    27   ar
    76    24    26   ar
    77   110   109    2
    78    41    42    1
    79   105   104    1
    80    43    42   ar
    81    43    45   ar
    82    27    28   ar
    83   118   109   am
    84    26    28   ar
    85   162   163    2
    86   109   108    1
    87    42    44   ar
    88    16    17    1
    89    45    47   ar
    90   106   104    1
    91    18    17    2
    92   104   101    1
    93   116   117   ar
    94   116   114   ar
    95   117   115   ar
    96   114   112   ar
    97   107   108    1
    98   107   102   am
    99   172   171   ar
   100   108   111    1
   101   115   113   ar
   102    44    46   ar
   103   101   102    1
   104   101   100    1
   105   112   113   ar
   106   112   111    1
   107    47    46   ar
   108   154   153    2
   109   102   103    2
   110    94    93    2
   111   166   167    1
   112   171   170    1
   113   171   173   ar
   114   170   167    1
   115   169   168    2
   116   153   152    1
   117   100    93   am
   118   202   200    1
   119    93    92    1
   120   167   168    1
   121   200   201    1
   122   200   199    2
   123    91    92    1
   124   152   155    1
   125   152   151    1
   126    92    95    1
   127    62    63    1
   128    62    61    1
   129    65    66    1
   130    65    63   am
   131   155   156    1
   132    66    67    1
   133   180   178    1
   134    63    64    2
   135    61    56   am
   136    54    55    1
   137    57    56    2
   138    56    55    1
   139   199   198    1
   140    95    96    1
   141    68    67    2
   142    67    69   am
   143    55    58    1
   144   156   157    1
   145   179   178    1
   146   178   175    1
   147   174   175    1
   148   175   176    1
   149   198   197    1
   150    69    70    1
   151    96    97    1
   152   191   190    2
   153   157   158    2
   154   157   159   am
   155   193   194    1
   156   193   196    1
   157   193   192    1
   158   194   195    2
   159    58    60    1
   160    58    59    1
   161   196   197    1
   162    98    97    2
   163    97    99   am
   164   176   181   am
   165   176   177    2
   166   190   192   am
   167   190   189    1
   168    70    73    1
   169    70    71    1
   170   181   182    1
   171    72    71    2
   172    71    74   am
   173   188   189    1
   174   188   183   am
   175   185   182    1
   176   185   186    1
   177   185   187    1
   178   182   183    1
   179   183   184    2
   180    74    75    1
   181    87    89   ar
   182    87    85   ar
   183    84    85    1
   184    84    81    1
   185    89    90   ar
   186    85    86   ar
   187    75    76    1
   188    75    78    1
   189    80    76   am
   190    80    81    1
   191    76    77    2
   192    90    88   ar
   193    86    88   ar
   194    81    82    1
   195    83    82    2
   196    78    79    1
