@<TRIPOS>MOLECULE
tmp/3o83B00.pdb
 82 79 0 0 0
SMALL
GASTEIGER

@<TRIPOS>ATOM
      1  N        -22.1310   -6.9320   -3.8730 N.3   199  THR199     -0.1218
      2  CA       -23.1850   -7.4190   -2.9570 C.3   199  THR199      0.1862
      3  C        -23.5720   -8.8880   -3.2280 C.2   199  THR199      0.2287
      4  O        -23.6430   -9.6950   -2.2950 O.2   199  THR199     -0.2866
      5  CB       -24.4330   -6.4730   -2.8450 C.3   199  THR199      0.1770
      6  OG1      -25.1630   -6.4550   -4.0780 O.3   199  THR199     -0.2211
      7  CG2      -24.0220   -5.0450   -2.4670 C.3   199  THR199      0.0375
      8  N        -27.1520   -1.8260  -13.9420 N.3   403  HIS403     -0.1241
      9  CA       -26.1010   -1.4690  -12.9990 C.3   403  HIS403      0.1621
     10  C        -25.1400   -0.4170  -13.5660 C.2   403  HIS403      0.2264
     11  O        -24.7620    0.5240  -12.8610 O.2   403  HIS403     -0.2867
     12  CB       -25.3280   -2.6980  -12.5140 C.3   403  HIS403      0.0745
     13  CG       -24.3500   -2.3860  -11.4270 C.ar  403  HIS403      0.0817
     14  ND1      -24.7440   -2.0750  -10.1450 N.ar  403  HIS403     -0.2268
     15  CD2      -22.9980   -2.3060  -11.4360 C.ar  403  HIS403      0.1154
     16  CE1      -23.6760   -1.8330   -9.4050 C.ar  403  HIS403      0.1986
     17  NE2      -22.6050   -1.9670  -10.1640 N.ar  403  HIS403     -0.2212
     18  N        -23.5070    3.5410  -12.0990 N.3   407  VAL407     -0.1245
     19  CA       -22.1210    3.7130  -11.6590 C.3   407  VAL407      0.1561
     20  C        -21.2560    4.5030  -12.6450 C.2   407  VAL407      0.2260
     21  O        -20.0750    4.7320  -12.3940 O.2   407  VAL407     -0.2867
     22  CB       -21.4580    2.3480  -11.2950 C.3   407  VAL407      0.0252
     23  CG1      -22.1700    1.7050  -10.0970 C.3   407  VAL407      0.0019
     24  CG2      -21.4500    1.4080  -12.4940 C.3   407  VAL407      0.0019
     25  N        -17.7980    5.4640  -11.0550 N.3   415  TYR415     -0.1227
     26  CA       -17.8350    5.7800   -9.6170 C.3   415  TYR415      0.1736
     27  C        -17.6010    4.5200   -8.7860 C.2   415  TYR415      0.2596
     28  O        -18.4620    3.6490   -8.7000 O.2   415  TYR415     -0.2718
     29  CB       -19.1680    6.4410   -9.2470 C.3   415  TYR415      0.0548
     30  CG       -19.3070    7.8240   -9.8420 C.ar  415  TYR415     -0.0200
     31  CD1      -19.1950    8.9620   -9.0400 C.ar  415  TYR415     -0.0009
     32  CD2      -19.5120    7.9980  -11.2150 C.ar  415  TYR415     -0.0009
     33  CE1      -19.3070   10.2380   -9.5850 C.ar  415  TYR415      0.0417
     34  CE2      -19.6130    9.2710  -11.7730 C.ar  415  TYR415      0.0417
     35  CZ       -19.5140   10.3880  -10.9450 C.ar  415  TYR415      0.1957
     36  OH       -19.6160   11.6530  -11.4900 O.3   415  TYR415     -0.2866
     37  N        -16.4200    4.4400   -8.1930 N.am  416  SER416     -0.1938
     38  CA       -15.9800    3.2530   -7.4730 C.3   416  SER416      0.2055
     39  C        -16.6000    3.1000   -6.0900 C.2   416  SER416      0.2643
     40  O        -16.4580    2.0440   -5.4650 O.2   416  SER416     -0.2714
     41  CB       -14.4650    3.3050   -7.2890 C.3   416  SER416      0.2130
     42  OG       -14.1300    4.4030   -6.4620 O.3   416  SER416     -0.2179
     43  N        -17.2600    4.1500   -5.6030 N.am  417  GLY417     -0.1954
     44  CA       -17.7130    4.1820   -4.2140 C.3   417  GLY417      0.1869
     45  C        -16.6200    4.4390   -3.1790 C.2   417  GLY417      0.2309
     46  O        -16.8930    4.4160   -1.9810 O.2   417  GLY417     -0.2863
     47  N        -15.6920    4.6320    2.1830 N.3   433  ARG433     -0.1231
     48  CA       -16.5870    4.0630    1.1830 C.3   433  ARG433      0.1694
     49  C        -17.8940    4.8000    1.3020 C.2   433  ARG433      0.2592
     50  O        -18.3020    5.1350    2.4170 O.2   433  ARG433     -0.2718
     51  CB       -16.9210    2.6120    1.5460 C.3   433  ARG433      0.0321
     52  CG       -15.7540    1.6670    1.6770 C.3   433  ARG433      0.0489
     53  CD       -15.8600    0.5700    0.6500 C.3   433  ARG433      0.2205
     54  NE       -15.6540    1.0770   -0.7030 N.pl3 433  ARG433     -0.0865
     55  CZ       -16.2190    0.5650   -1.7920 C.cat 433  ARG433      0.5346
     56  NH1      -17.0480   -0.4690   -1.6930 N.pl3 433  ARG433      0.1354
     57  NH2      -15.9640    1.0980   -2.9770 N.pl3 433  ARG433      0.1354
     58  N        -18.5760    5.0170    0.1770 N.am  434  ILE434     -0.1966
     59  CA       -19.9120    5.6170    0.1860 C.3   434  ILE434      0.1727
     60  C        -20.7150    5.1700   -1.0320 C.2   434  ILE434      0.2616
     61  O        -20.1520    4.9930   -2.1100 O.2   434  ILE434     -0.2715
     62  CB       -19.8570    7.1720    0.2490 C.3   434  ILE434      0.0290
     63  CG1      -21.1740    7.7420    0.7870 C.3   434  ILE434      0.0022
     64  CG2      -19.5530    7.7540   -1.1240 C.3   434  ILE434      0.0023
     65  CD1      -21.0770    9.1680    1.3670 C.3   434  ILE434      0.0001
     66  N        -22.0220    4.9840   -0.8550 N.am  435  LYS435     -0.1963
     67  CA       -22.9240    4.6890   -1.9760 C.3   435  LYS435      0.1728
     68  C        -23.8450    5.8800   -2.2840 C.2   435  LYS435      0.2616
     69  O        -23.9510    6.8040   -1.4800 O.2   435  LYS435     -0.2715
     70  CB       -23.7460    3.4330   -1.6760 C.3   435  LYS435      0.0311
     71  CG       -24.6920    3.5870   -0.5070 C.3   435  LYS435      0.0038
     72  CD       -25.5670    2.3730   -0.3630 C.3   435  LYS435      0.0206
     73  CE       -26.3850    2.4400    0.9100 C.3   435  LYS435      0.1093
     74  NZ       -26.9670    1.1010    1.2160 N.3   435  LYS435     -0.1314
     75  N        -24.4980    5.8500   -3.4470 N.am  436  ASP436     -0.1971
     76  CA       -25.4340    6.8980   -3.8750 C.3   436  ASP436      0.1709
     77  C        -26.5600    7.1060   -2.8660 C.2   436  ASP436      0.2293
     78  O        -26.6030    8.1290   -2.1830 O.2   436  ASP436     -0.2864
     79  CB       -26.0320    6.5500   -5.2450 C.3   436  ASP436      0.1436
     80  CG       -26.8710    5.3860   -5.2900 C.2   436  ASP436      0.3671
     81  OD1      -27.1070    4.6670   -4.2830 O.co2 436  ASP436     -0.2456
     82  OD2      -27.4420    5.0840   -6.4020 O.co2 436  ASP436     -0.2456
@<TRIPOS>BOND
     1     8     9    1
     2    10     9    1
     3    10    11    2
     4     9    12    1
     5    20    21    2
     6    20    19    1
     7    12    13    1
     8    24    22    1
     9    18    19    1
    10    34    32   ar
    11    34    35   ar
    12    19    22    1
    13    36    35    1
    14    15    13   ar
    15    15    17   ar
    16    13    14   ar
    17    22    23    1
    18    32    30   ar
    19    25    26    1
    20    35    33   ar
    21    17    16   ar
    22    14    16   ar
    23    30    29    1
    24    30    31   ar
    25    26    29    1
    26    26    27    1
    27    33    31   ar
    28    27    28    2
    29    27    37   am
    30    37    38    1
    31    38    41    1
    32    38    39    1
    33    41    42    1
    34    82    80   ar
    35    39    43   am
    36    39    40    2
    37    43    44    1
    38    80    79    1
    39    80    81   ar
    40    79    76    1
    41    44    45    1
    42     6     5    1
    43    76    75    1
    44    76    77    1
    45     1     2    1
    46    75    68   am
    47     3     2    1
    48     3     4    2
    49    45    46    2
    50    57    55    1
    51     2     5    1
    52    77    78    2
    53     5     7    1
    54    68    67    1
    55    68    69    2
    56    61    60    2
    57    67    70    1
    58    67    66    1
    59    55    56    1
    60    55    54    2
    61    70    71    1
    62    64    62    1
    63    60    66   am
    64    60    59    1
    65    54    53    1
    66    71    72    1
    67    72    73    1
    68    58    59    1
    69    58    49   am
    70    59    62    1
    71    62    63    1
    72    53    52    1
    73    63    65    1
    74    73    74    1
    75    48    49    1
    76    48    51    1
    77    48    47    1
    78    49    50    2
    79    51    52    1
