@<TRIPOS>MOLECULE
tmp/3o84B00.pdb
 131 126 0 0 0
SMALL
GASTEIGER

@<TRIPOS>ATOM
      1  N         -0.6160  -13.7420   -3.2970 N.3   235  LEU235     -0.1231
      2  CA        -2.0280  -13.3740   -3.4460 C.3   235  LEU235      0.1678
      3  C         -2.6550  -14.2220   -4.5570 C.2   235  LEU235      0.2434
      4  O         -1.9250  -14.8240   -5.3570 O.2   235  LEU235     -0.2733
      5  CB        -2.1680  -11.8720   -3.7300 C.3   235  LEU235      0.0284
      6  CG        -1.7090  -10.9520   -2.5920 C.3   235  LEU235      0.0019
      7  CD1       -1.9080   -9.4950   -2.9600 C.3   235  LEU235      0.0001
      8  CD2       -2.4130  -11.2800   -1.2500 C.3   235  LEU235      0.0001
      9  N         -4.0030  -14.2940   -4.6170 N.am  236  PRO236     -0.2729
     10  CA        -4.5860  -15.1400   -5.6600 C.3   236  PRO236      0.1401
     11  C         -4.1700  -14.6770   -7.0690 C.2   236  PRO236      0.2269
     12  O         -4.3270  -13.5010   -7.4170 O.2   236  PRO236     -0.2865
     13  CB        -6.0960  -14.9720   -5.4390 C.3   236  PRO236      0.0296
     14  CG        -6.2090  -14.6120   -3.9550 C.3   236  PRO236      0.0237
     15  CD        -5.0440  -13.6910   -3.7600 C.3   236  PRO236      0.0939
     16  N         -6.2650  -12.2500   -9.3850 N.3   239  HIS239     -0.1226
     17  CA        -6.6710  -10.9330   -8.9060 C.3   239  HIS239      0.1752
     18  C         -5.8970   -9.8600   -9.6510 C.2   239  HIS239      0.2596
     19  O         -4.6880   -9.9890   -9.8600 O.2   239  HIS239     -0.2718
     20  CB        -6.4740  -10.7660   -7.3900 C.3   239  HIS239      0.0759
     21  CG        -7.0630   -9.4950   -6.8580 C.ar  239  HIS239      0.0818
     22  ND1       -8.2580   -9.4570   -6.1630 N.ar  239  HIS239     -0.2268
     23  CD2       -6.6500   -8.2120   -6.9690 C.ar  239  HIS239      0.1154
     24  CE1       -8.5410   -8.2040   -5.8510 C.ar  239  HIS239      0.1986
     25  NE2       -7.5810   -7.4290   -6.3260 N.ar  239  HIS239     -0.2212
     26  N         -6.5990   -8.7970  -10.0310 N.am  240  ASN240     -0.1960
     27  CA        -5.9870   -7.6800  -10.7620 C.3   240  ASN240      0.1819
     28  C         -4.6340   -7.2090  -10.1980 C.2   240  ASN240      0.2621
     29  O         -3.6910   -6.9410  -10.9560 O.2   240  ASN240     -0.2715
     30  CB        -6.9740   -6.5070  -10.8410 C.3   240  ASN240      0.1195
     31  CG        -6.6890   -5.5970  -12.0090 C.2   240  ASN240      0.2630
     32  OD1       -6.7330   -6.0260  -13.1640 O.2   240  ASN240     -0.2716
     33  ND2       -6.3950   -4.3280  -11.7200 N.am  240  ASN240     -0.0877
     34  N         -4.5560   -7.1110   -8.8700 N.am  241  PHE241     -0.1974
     35  CA        -3.3480   -6.6980   -8.1520 C.3   241  PHE241      0.1639
     36  C         -2.1740   -7.6310   -8.4620 C.2   241  PHE241      0.2290
     37  O         -1.0910   -7.1800   -8.8520 O.2   241  PHE241     -0.2864
     38  CB        -3.6600   -6.6900   -6.6410 C.3   241  PHE241      0.0560
     39  CG        -2.5770   -6.1050   -5.7590 C.ar  241  PHE241     -0.0200
     40  CD1       -1.5700   -5.2850   -6.2690 C.ar  241  PHE241     -0.0042
     41  CD2       -2.6260   -6.3220   -4.3800 C.ar  241  PHE241     -0.0042
     42  CE1       -0.5860   -4.7390   -5.4350 C.ar  241  PHE241     -0.0003
     43  CE2       -1.6550   -5.7720   -3.5280 C.ar  241  PHE241     -0.0003
     44  CZ        -0.6310   -4.9710   -4.0620 C.ar  241  PHE241     -0.0000
     45  N         -0.5550   -5.4680  -11.5480 N.3   245  SER245     -0.1217
     46  CA        -0.2410   -4.2270  -10.8560 C.3   245  SER245      0.1889
     47  C          1.0270   -4.2050   -9.9620 C.2   245  SER245      0.2288
     48  O          0.9170   -3.9230   -8.7700 O.2   245  SER245     -0.2866
     49  CB        -1.4730   -3.7400  -10.0620 C.3   245  SER245      0.2089
     50  OG        -2.6350   -3.6710  -10.8890 O.3   245  SER245     -0.2183
     51  N         -1.7760   -7.6770    0.9560 N.3   284  VAL284     -0.1245
     52  CA        -2.8180   -6.8540    1.5740 C.3   284  VAL284      0.1561
     53  C         -2.4550   -6.6480    3.0530 C.2   284  VAL284      0.2260
     54  O         -1.7060   -7.4520    3.6030 O.2   284  VAL284     -0.2867
     55  CB        -4.2250   -7.5230    1.4730 C.3   284  VAL284      0.0252
     56  CG1       -4.6570   -7.6360    0.0160 C.3   284  VAL284      0.0019
     57  CG2       -4.2500   -8.8990    2.1810 C.3   284  VAL284      0.0019
     58  N         -1.5140   -3.1820   -0.8650 N.3   311  GLY311     -0.1210
     59  CA        -2.7620   -2.6360   -1.3530 C.3   311  GLY311      0.1956
     60  C         -3.9610   -3.2100   -0.6540 C.2   311  GLY311      0.2612
     61  O         -3.9710   -4.3720   -0.2690 O.2   311  GLY311     -0.2717
     62  N         -4.9860   -2.3960   -0.4970 N.am  312  GLY312     -0.1942
     63  CA        -6.2460   -2.9340   -0.0280 C.3   312  GLY312      0.2014
     64  C         -6.9700   -2.0650    0.9580 C.2   312  GLY312      0.2638
     65  O         -7.1070   -0.8500    0.7500 O.2   312  GLY312     -0.2714
     66  N         -7.4340   -2.7290    2.0140 N.am  313  ALA313     -0.1977
     67  CA        -8.2000   -2.1730    3.1310 C.3   313  ALA313      0.1597
     68  C         -7.6930   -0.8440    3.7100 C.2   313  ALA313      0.2287
     69  O         -7.6730    0.1960    3.0390 O.2   313  ALA313     -0.2864
     70  CB        -8.2750   -3.2380    4.2520 C.3   313  ALA313      0.0319
     71  N         -0.3350    0.7780   -2.9950 N.3   334  VAL334     -0.1231
     72  CA        -1.0750    0.6080   -4.2350 C.3   334  VAL334      0.1692
     73  C         -2.5640    0.6750   -3.9140 C.2   334  VAL334      0.2592
     74  O         -3.0420   -0.0130   -3.0200 O.2   334  VAL334     -0.2718
     75  CB        -0.7440   -0.7510   -4.9060 C.3   334  VAL334      0.0266
     76  CG1       -1.5180   -0.9330   -6.2140 C.3   334  VAL334      0.0020
     77  CG2        0.7590   -0.9020   -5.1460 C.3   334  VAL334      0.0020
     78  N         -3.2900    1.5220   -4.6220 N.am  335  PHE335     -0.1962
     79  CA        -4.7340    1.5130   -4.5340 C.3   335  PHE335      0.1771
     80  C         -5.3050    1.4310   -5.9300 C.2   335  PHE335      0.2620
     81  O         -5.1360    2.3500   -6.7340 O.2   335  PHE335     -0.2715
     82  CB        -5.2740    2.7550   -3.8140 C.3   335  PHE335      0.0574
     83  CG        -6.7480    2.9540   -4.0040 C.ar  335  PHE335     -0.0200
     84  CD1       -7.6620    2.0590   -3.4480 C.ar  335  PHE335     -0.0042
     85  CD2       -7.2240    4.0300   -4.7520 C.ar  335  PHE335     -0.0042
     86  CE1       -9.0280    2.2320   -3.6350 C.ar  335  PHE335     -0.0003
     87  CE2       -8.5940    4.2180   -4.9430 C.ar  335  PHE335     -0.0003
     88  CZ        -9.4960    3.3120   -4.3890 C.ar  335  PHE335     -0.0000
     89  N         -5.9830    0.3280   -6.2100 N.am  336  GLY336     -0.1940
     90  CA        -6.5810    0.1390   -7.5130 C.3   336  GLY336      0.2014
     91  C         -7.8900   -0.6150   -7.4800 C.2   336  GLY336      0.2639
     92  O         -8.4050   -0.9640   -6.4230 O.2   336  GLY336     -0.2714
     93  N         -8.4110   -0.8790   -8.6660 N.am  337  MET337     -0.1963
     94  CA        -9.6550   -1.6100   -8.8200 C.3   337  MET337      0.1736
     95  C         -9.5500   -2.4320  -10.1040 C.2   337  MET337      0.2616
     96  O         -8.9020   -2.0160  -11.0730 O.2   337  MET337     -0.2715
     97  CB       -10.8300   -0.6260   -8.8580 C.3   337  MET337      0.0427
     98  CG       -10.7130    0.4290   -9.9540 C.3   337  MET337      0.0599
     99  SD       -11.6400    1.9500   -9.6610 S.3   337  MET337     -0.1393
    100  CE       -10.7520    2.6870   -8.2800 C.3   337  MET337      0.0692
    101  N        -10.1760   -3.6030  -10.1080 N.am  338  ALA338     -0.1977
    102  CA       -10.2400   -4.4440  -11.3000 C.3   338  ALA338      0.1597
    103  C        -10.9460   -3.7370  -12.4690 C.2   338  ALA338      0.2287
    104  O        -10.7650   -4.1180  -13.6250 O.2   338  ALA338     -0.2864
    105  CB       -10.9240   -5.7470  -10.9750 C.3   338  ALA338      0.0319
    106  N         -5.3710    2.2890  -11.3890 N.3   342  VAL342     -0.1245
    107  CA        -4.4630    1.8890  -10.3220 C.3   342  VAL342      0.1561
    108  C         -3.5950    3.0820   -9.9500 C.2   342  VAL342      0.2260
    109  O         -3.1400    3.8210  -10.8270 O.2   342  VAL342     -0.2867
    110  CB        -3.5790    0.6640  -10.7030 C.3   342  VAL342      0.0252
    111  CG1       -2.7800    0.1690   -9.4890 C.3   342  VAL342      0.0019
    112  CG2       -4.4440   -0.4840  -11.2340 C.3   342  VAL342      0.0019
    113  N        -15.3850    4.7960   -3.7450 N.3   418  ASP418     -0.1239
    114  CA       -14.3390    5.1360   -2.7840 C.3   418  ASP418      0.1674
    115  C        -14.3960    6.6030   -2.3770 C.2   418  ASP418      0.2266
    116  O        -14.6830    7.4830   -3.1970 O.2   418  ASP418     -0.2867
    117  CB       -12.9460    4.7950   -3.3270 C.3   418  ASP418      0.1410
    118  CG       -12.8170    3.3410   -3.7240 C.2   418  ASP418      0.3668
    119  OD1      -12.7540    3.0660   -4.9400 O.co2 418  ASP418     -0.2456
    120  OD2      -12.8120    2.4640   -2.8300 O.co2 418  ASP418     -0.2456
    121  N        -15.3260    4.4210    2.1500 N.3   433  ARG433     -0.1245
    122  CA       -16.1330    3.7000    1.2060 C.3   433  ARG433      0.1563
    123  C        -17.5400    4.2640    1.3170 C.2   433  ARG433      0.2260
    124  O        -18.0200    4.5350    2.4230 O.2   433  ARG433     -0.2867
    125  CB       -16.1060    2.2160    1.5930 C.3   433  ARG433      0.0307
    126  CG       -16.7530    1.2640    0.6200 C.3   433  ARG433      0.0489
    127  CD       -15.8260    0.9040   -0.5280 C.3   433  ARG433      0.2205
    128  NE       -16.6240    0.6180   -1.7150 N.pl3 433  ARG433     -0.0865
    129  CZ       -16.1590    0.5850   -2.9600 C.cat 433  ARG433      0.5346
    130  NH1      -14.8720    0.8050   -3.2150 N.pl3 433  ARG433      0.1354
    131  NH2      -16.9930    0.3170   -3.9550 N.pl3 433  ARG433      0.1354
@<TRIPOS>BOND
     1   104   103    2
     2    32    31    2
     3   103   102    1
     4    31    33   am
     5    31    30    1
     6    45    46    1
     7   106   107    1
     8   102   105    1
     9   102   101    1
    10   112   110    1
    11    96    95    2
    12    29    28    2
    13    50    49    1
    14    46    49    1
    15    46    47    1
    16    30    27    1
    17   109   108    2
    18    27    28    1
    19    27    26    1
    20   110   107    1
    21   110   111    1
    22   107   108    1
    23    28    34   am
    24   101    95   am
    25    95    94    1
    26    26    18   am
    27    47    48    2
    28    98    99    1
    29    98    97    1
    30    19    18    2
    31    99   100    1
    32    18    17    1
    33    16    17    1
    34    17    20    1
    35    34    35    1
    36    97    94    1
    37    37    36    2
    38    94    93    1
    39    93    91   am
    40    36    35    1
    41    35    38    1
    42    90    91    1
    43    90    89    1
    44    91    92    2
    45    12    11    2
    46    20    21    1
    47    11    10    1
    48    23    21   ar
    49    23    25   ar
    50    21    22   ar
    51    81    80    2
    52    38    39    1
    53    25    24   ar
    54    40    39   ar
    55    40    42   ar
    56    76    75    1
    57    89    80   am
    58    22    24   ar
    59    80    79    1
    60    39    41   ar
    61    10    13    1
    62    10     9    1
    63    13    14    1
    64    42    44   ar
    65     4     3    2
    66    77    75    1
    67    87    85   ar
    68    87    88   ar
    69   119   118   ar
    70    75    72    1
    71    85    83   ar
    72    78    79    1
    73    78    73   am
    74     9     3   am
    75     9    15    1
    76     3     2    1
    77    79    82    1
    78    88    86   ar
    79    41    43   ar
    80    72    73    1
    81    72    71    1
    82    44    43   ar
    83    83    82    1
    84    83    84   ar
    85    14    15    1
    86   131   129    1
    87    73    74    2
    88   113   114    1
    89     5     2    1
    90     5     6    1
    91   118   117    1
    92   118   120   ar
    93    86    84   ar
    94     2     1    1
    95   117   114    1
    96   130   129    1
    97   116   115    2
    98   129   128    2
    99     7     6    1
   100   114   115    1
   101     6     8    1
   102   128   127    1
   103    59    58    1
   104    59    60    1
   105    60    62   am
   106    60    61    2
   107   127   126    1
   108    62    63    1
   109    63    64    1
   110    56    55    1
   111   126   125    1
   112    65    64    2
   113    51    52    1
   114    64    66   am
   115   122   123    1
   116   122   125    1
   117   122   121    1
   118   123   124    2
   119    55    52    1
   120    55    57    1
   121    52    53    1
   122    66    67    1
   123    69    68    2
   124    53    54    2
   125    67    68    1
   126    67    70    1
