@<TRIPOS>MOLECULE
tmp/3o86A00.pdb
 93 87 0 0 0
SMALL
GASTEIGER

@<TRIPOS>ATOM
      1  N         26.9690    1.6330   16.1810 N.3    61  SER61      -0.1217
      2  CA        28.3330    2.0830   16.4600 C.3    61  SER61       0.1889
      3  C         29.1720    1.1790   17.3520 C.2    61  SER61       0.2288
      4  O         30.3810    1.3880   17.4620 O.2    61  SER61      -0.2866
      5  CB        28.3510    3.5210   17.0130 C.3    61  SER61       0.2089
      6  OG        27.9220    4.3840   15.9930 O.3    61  SER61      -0.2183
      7  N         32.2450    0.2340   15.5980 N.3    64  LYS64      -0.1245
      8  CA        33.4900    0.9940   15.6870 C.3    64  LYS64       0.1561
      9  C         34.5560    0.2840   16.5130 C.2    64  LYS64       0.2260
     10  O         35.7310    0.5970   16.3300 O.2    64  LYS64      -0.2867
     11  CB        33.2500    2.4180   16.2590 C.3    64  LYS64       0.0271
     12  CG        32.3930    3.2940   15.3470 C.3    64  LYS64       0.0035
     13  CD        32.0660    4.6190   16.0670 C.3    64  LYS64       0.0206
     14  CE        31.3790    5.6350   15.1580 C.3    64  LYS64       0.1093
     15  NZ        30.0510    5.1350   14.6260 N.3    64  LYS64      -0.1314
     16  N         29.3520   14.3580   12.3140 N.3   116  LEU116     -0.1231
     17  CA        28.8080   13.0770   12.7470 C.3   116  LEU116      0.1693
     18  C         28.4050   12.1800   11.5970 C.2   116  LEU116      0.2591
     19  O         28.7300   11.0000   11.6060 O.2   116  LEU116     -0.2718
     20  CB        27.5920   13.2350   13.6820 C.3   116  LEU116      0.0284
     21  CG        26.9230   11.8850   14.0480 C.3   116  LEU116      0.0019
     22  CD1       27.8290   10.8730   14.8170 C.3   116  LEU116      0.0001
     23  CD2       25.6090   12.0870   14.8150 C.3   116  LEU116      0.0001
     24  N         27.7150   12.7450   10.6000 N.am  117  GLN117     -0.1979
     25  CA        27.1440   11.9590    9.5150 C.3   117  GLN117      0.1601
     26  C         27.7290   12.3560    8.1750 C.2   117  GLN117      0.2287
     27  O         27.9380   13.5510    7.8960 O.2   117  GLN117     -0.2864
     28  CB        25.6280   12.2130    9.4520 C.3   117  GLN117      0.0394
     29  CG        24.8750   11.7740   10.7160 C.3   117  GLN117      0.0908
     30  CD        23.8870   12.8200   11.2510 C.2   117  GLN117      0.2608
     31  OE1       24.1730   14.0240   11.2830 O.2   117  GLN117     -0.2717
     32  NE2       22.7310   12.3520   11.7110 N.am  117  GLN117     -0.0878
     33  N         32.5930   13.3120   18.3700 N.3   147  TYR147     -0.1241
     34  CA        32.2460   11.9660   17.9140 C.3   147  TYR147      0.1605
     35  C         31.6480   11.9970   16.5040 C.2   147  TYR147      0.2264
     36  O         30.6920   12.7540   16.2330 O.2   147  TYR147     -0.2867
     37  CB        31.2750   11.3770   18.9220 C.3   147  TYR147      0.0534
     38  CG        30.7870    9.9790   18.6150 C.ar  147  TYR147     -0.0201
     39  CD1       29.5150    9.7680   18.1140 C.ar  147  TYR147     -0.0009
     40  CD2       31.5940    8.8720   18.8600 C.ar  147  TYR147     -0.0009
     41  CE1       29.0460    8.4840   17.8490 C.ar  147  TYR147      0.0417
     42  CE2       31.1110    7.5620   18.6130 C.ar  147  TYR147      0.0417
     43  CZ        29.8570    7.3970   18.0900 C.ar  147  TYR147      0.1957
     44  OH        29.4120    6.1030   17.8680 O.3   147  TYR147     -0.2866
     45  N         31.0050    9.6680   12.6080 N.3   149  ASN149     -0.1240
     46  CA        31.1220    8.5570   11.6690 C.3   149  ASN149      0.1653
     47  C         32.1200    8.8490   10.5470 C.2   149  ASN149      0.2266
     48  O         32.8310    7.9550   10.0830 O.2   149  ASN149     -0.2867
     49  CB        29.7720    8.2640   10.9870 C.3   149  ASN149      0.1155
     50  CG        28.7510    7.6870   11.9100 C.2   149  ASN149      0.2627
     51  OD1       29.0700    7.0590   12.9200 O.2   149  ASN149     -0.2716
     52  ND2       27.4840    7.8930   11.5680 N.am  149  ASN149     -0.0877
     53  N         18.7710   -1.1410    8.6410 N.3   208  VAL208     -0.1231
     54  CA        19.6570   -0.0470    8.2310 C.3   208  VAL208      0.1692
     55  C         19.7780    0.0500    6.7050 C.2   208  VAL208      0.2592
     56  O         19.8330   -0.9640    6.0130 O.2   208  VAL208     -0.2718
     57  CB        21.0320   -0.1740    8.9380 C.3   208  VAL208      0.0266
     58  CG1       21.7720   -1.4270    8.5230 C.3   208  VAL208      0.0020
     59  CG2       21.8940    1.0910    8.7270 C.3   208  VAL208      0.0020
     60  N         19.7960    1.2810    6.1760 N.am  209  SER209     -0.1952
     61  CA        19.9450    1.4580    4.7240 C.3   209  SER209      0.1924
     62  C         21.4110    1.6650    4.3750 C.2   209  SER209      0.2314
     63  O         22.1860    2.1110    5.2160 O.2   209  SER209     -0.2863
     64  CB        19.1580    2.6830    4.2560 C.3   209  SER209      0.2116
     65  OG        17.7770    2.6040    4.5910 O.3   209  SER209     -0.2180
     66  N         29.1940    1.7930   11.2650 N.3   218  TYR218     -0.1241
     67  CA        28.0180    1.3420   11.9980 C.3   218  TYR218      0.1605
     68  C         27.3300    0.1180   11.4220 C.2   218  TYR218      0.2264
     69  O         26.1520   -0.1520   11.7390 O.2   218  TYR218     -0.2867
     70  CB        26.9830    2.4780   12.0950 C.3   218  TYR218      0.0534
     71  CG        26.5760    3.0970   10.7540 C.ar  218  TYR218     -0.0201
     72  CD1       25.5850    2.5110    9.9650 C.ar  218  TYR218     -0.0009
     73  CD2       27.1350    4.2890   10.3130 C.ar  218  TYR218     -0.0009
     74  CE1       25.1970    3.0700    8.7430 C.ar  218  TYR218      0.0417
     75  CE2       26.7570    4.8460    9.1020 C.ar  218  TYR218      0.0417
     76  CZ        25.7910    4.2450    8.3290 C.ar  218  TYR218      0.1957
     77  OH        25.4100    4.8350    7.1490 O.3   218  TYR218     -0.2866
     78  N         23.8110    2.4820   18.0020 N.3   308  ALA308     -0.1231
     79  CA        22.4240    2.5960   17.5540 C.3   308  ALA308      0.1694
     80  C         22.3080    2.6440   16.0550 C.2   308  ALA308      0.2593
     81  O         23.1860    3.1340   15.3680 O.2   308  ALA308     -0.2718
     82  CB        21.7680    3.8400   18.1670 C.3   308  ALA308      0.0304
     83  N         21.1920    2.1410   15.5470 N.am  309  THR309     -0.1939
     84  CA        20.7520    2.4510   14.2020 C.3   309  THR309      0.2028
     85  C         19.3120    2.9270   14.3820 C.2   309  THR309      0.2642
     86  O         18.8250    3.0310   15.5110 O.2   309  THR309     -0.2714
     87  CB        20.7980    1.2180   13.2810 C.3   309  THR309      0.1808
     88  OG1       19.9490    0.2110   13.8550 O.3   309  THR309     -0.2208
     89  CG2       22.2140    0.6560   13.1790 C.3   309  THR309      0.0379
     90  N         18.6140    3.2010   13.2900 N.am  310  GLY310     -0.1954
     91  CA        17.2550    3.6870   13.4210 C.3   310  GLY310      0.1869
     92  C         16.3740    2.7540   14.2470 C.2   310  GLY310      0.2309
     93  O         15.5060    3.2220   14.9690 O.2   310  GLY310     -0.2863
@<TRIPOS>BOND
     1    64    65    1
     2    64    61    1
     3    62    61    1
     4    62    63    2
     5    61    60    1
     6    56    55    2
     7    60    55   am
     8    55    54    1
     9    77    76    1
    10    27    26    2
    11    26    25    1
    12    54    53    1
    13    54    57    1
    14    76    74   ar
    15    76    75   ar
    16    58    57    1
    17    59    57    1
    18    74    72   ar
    19    75    73   ar
    20    28    25    1
    21    28    29    1
    22    25    24    1
    23    72    71   ar
    24    48    47    2
    25    73    71   ar
    26    47    46    1
    27    24    18   am
    28    29    30    1
    29    71    70    1
    30    49    46    1
    31    49    50    1
    32    30    31    2
    33    30    32   am
    34    66    67    1
    35    68    69    2
    36    68    67    1
    37    52    50   am
    38    18    19    2
    39    18    17    1
    40    46    45    1
    41    50    51    2
    42    67    70    1
    43    16    17    1
    44    17    20    1
    45    89    87    1
    46    87    88    1
    47    87    84    1
    48    90    91    1
    49    90    85   am
    50    91    92    1
    51    20    21    1
    52    21    23    1
    53    21    22    1
    54    84    85    1
    55    84    83    1
    56    92    93    2
    57    85    86    2
    58    15    14    1
    59    14    13    1
    60    12    13    1
    61    12    11    1
    62    81    80    2
    63    83    80   am
    64     7     8    1
    65     8    11    1
    66     8     9    1
    67     6     5    1
    68    80    79    1
    69     1     2    1
    70    36    35    2
    71    10     9    2
    72     2     5    1
    73     2     3    1
    74    35    34    1
    75     3     4    2
    76    79    78    1
    77    79    82    1
    78    41    43   ar
    79    41    39   ar
    80    44    43    1
    81    34    33    1
    82    34    37    1
    83    43    42   ar
    84    39    38   ar
    85    42    40   ar
    86    38    40   ar
    87    38    37    1
