@<TRIPOS>MOLECULE
tmp/3o87A00.pdb
 103 98 0 0 0
SMALL
GASTEIGER

@<TRIPOS>ATOM
      1  N         26.9110    1.0870   16.0790 N.3    61  SER61      -0.1217
      2  CA        28.2690    1.5330   16.3870 C.3    61  SER61       0.1889
      3  C         29.1530    0.6210   17.2460 C.2    61  SER61       0.2288
      4  O         30.3660    0.8760   17.3530 O.2    61  SER61      -0.2866
      5  CB        28.2170    2.9240   17.0040 C.3    61  SER61       0.2089
      6  OG        27.8730    3.7890   15.9610 O.3    61  SER61      -0.2183
      7  N         32.1890   -0.3410   15.5310 N.3    64  LYS64      -0.1245
      8  CA        33.4380    0.4030   15.5960 C.3    64  LYS64       0.1561
      9  C         34.5210   -0.3070   16.4300 C.2    64  LYS64       0.2260
     10  O         35.7190   -0.0260   16.2500 O.2    64  LYS64      -0.2867
     11  CB        33.2180    1.8370   16.1070 C.3    64  LYS64       0.0271
     12  CG        32.3290    2.7120   15.2190 C.3    64  LYS64       0.0035
     13  CD        32.0920    4.0690   15.9150 C.3    64  LYS64       0.0206
     14  CE        31.4550    5.0800   14.9660 C.3    64  LYS64       0.1093
     15  NZ        30.0700    4.6370   14.6350 N.3    64  LYS64      -0.1314
     16  N         29.3580   13.8320   12.0630 N.3   116  LEU116     -0.1231
     17  CA        28.8740   12.5500   12.6130 C.3   116  LEU116      0.1693
     18  C         28.4750   11.6030   11.5060 C.2   116  LEU116      0.2591
     19  O         28.7670   10.4050   11.5860 O.2   116  LEU116     -0.2718
     20  CB        27.6840   12.6560   13.5960 C.3   116  LEU116      0.0284
     21  CG        26.9830   11.2960   13.9080 C.3   116  LEU116      0.0019
     22  CD1       27.8940   10.2220   14.6040 C.3   116  LEU116      0.0001
     23  CD2       25.6410   11.3860   14.6720 C.3   116  LEU116      0.0001
     24  N         27.8220   12.1440   10.4780 N.am  117  GLN117     -0.1979
     25  CA        27.2310   11.3190    9.4410 C.3   117  GLN117      0.1601
     26  C         27.7780   11.7050    8.0850 C.2   117  GLN117      0.2287
     27  O         27.9790   12.8880    7.7940 O.2   117  GLN117     -0.2864
     28  CB        25.7110   11.5020    9.4140 C.3   117  GLN117      0.0394
     29  CG        24.9870   11.0670   10.6930 C.3   117  GLN117      0.0908
     30  CD        24.0070   12.1140   11.1940 C.2   117  GLN117      0.2608
     31  OE1       24.3180   13.3250   11.2680 O.2   117  GLN117     -0.2717
     32  NE2       22.8140   11.6610   11.5480 N.am  117  GLN117     -0.0878
     33  N         32.6670   12.5990   18.2870 N.3   147  TYR147     -0.1241
     34  CA        32.2790   11.2640   17.8380 C.3   147  TYR147      0.1605
     35  C         31.6680   11.3600   16.4450 C.2   147  TYR147      0.2264
     36  O         30.7600   12.1630   16.2060 O.2   147  TYR147     -0.2867
     37  CB        31.2950   10.7020   18.8340 C.3   147  TYR147      0.0534
     38  CG        30.7780    9.3440   18.5090 C.ar  147  TYR147     -0.0201
     39  CD1       29.4710    9.1670   18.0560 C.ar  147  TYR147     -0.0009
     40  CD2       31.5710    8.2160   18.6790 C.ar  147  TYR147     -0.0009
     41  CE1       28.9830    7.9050   17.7690 C.ar  147  TYR147      0.0417
     42  CE2       31.0750    6.9470   18.4050 C.ar  147  TYR147      0.0417
     43  CZ        29.7920    6.8040   17.9450 C.ar  147  TYR147      0.1957
     44  OH        29.2800    5.5430   17.6890 O.3   147  TYR147     -0.2866
     45  N         30.9430    9.0770   12.5150 N.3   149  ASN149     -0.1240
     46  CA        31.1010    7.9440   11.6130 C.3   149  ASN149      0.1653
     47  C         32.1150    8.2530   10.5120 C.2   149  ASN149      0.2266
     48  O         32.8080    7.3680   10.0560 O.2   149  ASN149     -0.2867
     49  CB        29.7790    7.5590   10.9380 C.3   149  ASN149      0.1155
     50  CG        28.7570    7.0360   11.8960 C.2   149  ASN149      0.2627
     51  OD1       29.0770    6.4380   12.9340 O.2   149  ASN149     -0.2716
     52  ND2       27.4880    7.2640   11.5610 N.am  149  ASN149     -0.0877
     53  N         15.3040   -2.4530    8.6900 N.3   207  HIS207     -0.1226
     54  CA        16.7100   -2.8580    8.6990 C.3   207  HIS207      0.1752
     55  C         17.5640   -1.6770    8.2860 C.2   207  HIS207      0.2596
     56  O         17.0860   -0.7850    7.5860 O.2   207  HIS207     -0.2718
     57  CB        16.9570   -3.9930    7.7090 C.3   207  HIS207      0.0759
     58  CG        16.5460   -5.3420    8.2220 C.ar  207  HIS207      0.0818
     59  ND1       16.1660   -6.3630    7.3870 N.ar  207  HIS207     -0.2268
     60  CD2       16.5030   -5.8460    9.4790 C.ar  207  HIS207      0.1154
     61  CE1       15.8790   -7.4370    8.1040 C.ar  207  HIS207      0.1986
     62  NE2       16.0770   -7.1500    9.3790 N.ar  207  HIS207     -0.2212
     63  N         18.8300   -1.6800    8.6940 N.am  208  VAL208     -0.1966
     64  CA        19.7150   -0.6050    8.3090 C.3   208  VAL208      0.1727
     65  C         19.8440   -0.5050    6.7810 C.2   208  VAL208      0.2616
     66  O         19.8350   -1.5040    6.0740 O.2   208  VAL208     -0.2715
     67  CB        21.1140   -0.7200    8.9910 C.3   208  VAL208      0.0290
     68  CG1       21.9210   -1.8860    8.4280 C.3   208  VAL208      0.0023
     69  CG2       21.8650    0.6010    8.8760 C.3   208  VAL208      0.0023
     70  N         19.9720    0.7210    6.2770 N.am  209  SER209     -0.1950
     71  CA        20.0460    0.9390    4.8310 C.3   209  SER209      0.1924
     72  C         21.4880    1.1530    4.4180 C.2   209  SER209      0.2314
     73  O         22.3150    1.5710    5.2360 O.2   209  SER209     -0.2863
     74  CB        19.2040    2.1530    4.4590 C.3   209  SER209      0.2116
     75  OG        19.8030    3.3210    4.9960 O.3   209  SER209     -0.2180
     76  N         29.1810    1.2790   11.2460 N.3   218  TYR218     -0.1241
     77  CA        27.9750    0.7850   11.9180 C.3   218  TYR218      0.1605
     78  C         27.3240   -0.4660   11.3110 C.2   218  TYR218      0.2264
     79  O         26.1640   -0.7210   11.5810 O.2   218  TYR218     -0.2867
     80  CB        26.9010    1.8820   11.9940 C.3   218  TYR218      0.0534
     81  CG        26.5400    2.5130   10.6430 C.ar  218  TYR218     -0.0201
     82  CD1       25.6030    1.9230    9.8020 C.ar  218  TYR218     -0.0009
     83  CD2       27.1100    3.7060   10.2390 C.ar  218  TYR218     -0.0009
     84  CE1       25.2630    2.4770    8.5810 C.ar  218  TYR218      0.0417
     85  CE2       26.7820    4.2770    9.0220 C.ar  218  TYR218      0.0417
     86  CZ        25.8480    3.6730    8.2000 C.ar  218  TYR218      0.1957
     87  OH        25.5060    4.2490    6.9900 O.3   218  TYR218     -0.2866
     88  N         23.8100    1.8690   17.9460 N.3   308  ALA308     -0.1231
     89  CA        22.4200    2.0090   17.5750 C.3   308  ALA308      0.1694
     90  C         22.3030    2.0190   16.0710 C.2   308  ALA308      0.2593
     91  O         23.1990    2.4860   15.3780 O.2   308  ALA308     -0.2718
     92  CB        21.8390    3.3060   18.1530 C.3   308  ALA308      0.0304
     93  N         21.1890    1.4980   15.5760 N.am  309  THR309     -0.1939
     94  CA        20.7350    1.8120   14.2220 C.3   309  THR309      0.2028
     95  C         19.3030    2.3320   14.3560 C.2   309  THR309      0.2642
     96  O         18.8080    2.5370   15.4750 O.2   309  THR309     -0.2714
     97  CB        20.7780    0.6100   13.2810 C.3   309  THR309      0.1808
     98  OG1       19.8960   -0.4090   13.7820 O.3   309  THR309     -0.2208
     99  CG2       22.1790    0.0500   13.2060 C.3   309  THR309      0.0379
    100  N         18.6280    2.5210   13.2370 N.am  310  GLY310     -0.1954
    101  CA        17.2710    3.0300   13.2920 C.3   310  GLY310      0.1869
    102  C         16.4090    2.1790   14.2010 C.2   310  GLY310      0.2309
    103  O         15.5630    2.6900   14.9430 O.2   310  GLY310     -0.2863
@<TRIPOS>BOND
     1    72    71    1
     2    72    73    2
     3    74    71    1
     4    74    75    1
     5    71    70    1
     6    66    65    2
     7    70    65   am
     8    65    64    1
     9    87    86    1
    10    59    61   ar
    11    59    58   ar
    12    56    55    2
    13    57    58    1
    14    57    54    1
    15    27    26    2
    16    26    25    1
    17    61    62   ar
    18    86    84   ar
    19    86    85   ar
    20    58    60   ar
    21    55    63   am
    22    55    54    1
    23    64    63    1
    24    64    67    1
    25    68    67    1
    26    84    82   ar
    27    53    54    1
    28    69    67    1
    29    85    83   ar
    30    62    60   ar
    31    28    25    1
    32    28    29    1
    33    25    24    1
    34    82    81   ar
    35    48    47    2
    36    83    81   ar
    37    24    18   am
    38    47    46    1
    39    81    80    1
    40    29    30    1
    41    49    46    1
    42    49    50    1
    43    30    31    2
    44    30    32   am
    45    76    77    1
    46    78    79    2
    47    78    77    1
    48    18    19    2
    49    18    17    1
    50    52    50   am
    51    46    45    1
    52    50    51    2
    53    77    80    1
    54    16    17    1
    55    17    20    1
    56    99    97    1
    57   100   101    1
    58   100    95   am
    59    97    98    1
    60    97    94    1
    61   101   102    1
    62    20    21    1
    63    21    22    1
    64    21    23    1
    65   102   103    2
    66    94    95    1
    67    94    93    1
    68    95    96    2
    69    15    14    1
    70    14    13    1
    71    12    13    1
    72    12    11    1
    73    91    90    2
    74     7     8    1
    75    93    90   am
    76     8    11    1
    77     8     9    1
    78     6     5    1
    79    90    89    1
    80     1     2    1
    81    36    35    2
    82    10     9    2
    83     2     5    1
    84     2     3    1
    85    35    34    1
    86     3     4    2
    87    89    88    1
    88    89    92    1
    89    44    43    1
    90    41    43   ar
    91    41    39   ar
    92    34    33    1
    93    34    37    1
    94    43    42   ar
    95    39    38   ar
    96    42    40   ar
    97    38    40   ar
    98    38    37    1
