@<TRIPOS>MOLECULE
tmp/3o88A00.pdb
 113 105 0 0 0
SMALL
GASTEIGER

@<TRIPOS>ATOM
      1  N         24.9910   -0.6110   15.0800 N.3    60  GLY60      -0.1210
      2  CA        25.2280    0.8130   14.9290 C.3    60  GLY60       0.1956
      3  C         26.6590    1.1620   15.3320 C.2    60  GLY60       0.2612
      4  O         27.6040    0.5240   14.9050 O.2    60  GLY60      -0.2717
      5  N         26.8170    2.2060   16.1260 N.am   61  SER61      -0.1952
      6  CA        28.1560    2.7100   16.4530 C.3    61  SER61       0.1924
      7  C         29.0420    1.7890   17.2910 C.2    61  SER61       0.2314
      8  O         30.2240    2.0320   17.4110 O.2    61  SER61      -0.2863
      9  CB        28.0840    4.0950   17.1180 C.3    61  SER61       0.2116
     10  OG        27.4840    5.0280   16.2240 O.3    61  SER61      -0.2180
     11  N         32.1190    0.8230   15.5430 N.3    64  LYS64      -0.1245
     12  CA        33.3630    1.5890   15.5990 C.3    64  LYS64       0.1561
     13  C         34.4410    0.8480   16.4150 C.2    64  LYS64       0.2260
     14  O         35.6290    1.1160   16.2500 O.2    64  LYS64      -0.2867
     15  CB        33.0740    2.9620   16.2130 C.3    64  LYS64       0.0271
     16  CG        32.3350    3.8680   15.2240 C.3    64  LYS64       0.0035
     17  CD        31.8780    5.1530   15.9010 C.3    64  LYS64       0.0206
     18  CE        31.1880    6.1460   14.9430 C.3    64  LYS64       0.1093
     19  NZ        29.8280    5.6540   14.6240 N.3    64  LYS64      -0.1314
     20  N         29.2080   14.9810   12.3670 N.3   116  LEU116     -0.1231
     21  CA        28.6490   13.7160   12.8460 C.3   116  LEU116      0.1693
     22  C         28.2340   12.7930   11.7000 C.2   116  LEU116      0.2591
     23  O         28.5570   11.5950   11.6930 O.2   116  LEU116     -0.2718
     24  CB        27.4210   14.0020   13.7070 C.3   116  LEU116      0.0284
     25  CG        26.6860   12.7350   14.1700 C.3   116  LEU116      0.0019
     26  CD1       27.5760   11.8670   15.0470 C.3   116  LEU116      0.0001
     27  CD2       25.4110   13.1240   14.9250 C.3   116  LEU116      0.0001
     28  N         27.5200   13.3600   10.7230 N.am  117  GLN117     -0.1979
     29  CA        27.0070   12.6000    9.5820 C.3   117  GLN117      0.1601
     30  C         27.6650   12.9820    8.2650 C.2   117  GLN117      0.2287
     31  O         27.8920   14.1670    7.9780 O.2   117  GLN117     -0.2864
     32  CB        25.4900   12.8490    9.4430 C.3   117  GLN117      0.0394
     33  CG        24.6680   12.5140   10.6830 C.3   117  GLN117      0.0908
     34  CD        23.6420   13.5870   11.0440 C.2   117  GLN117      0.2608
     35  OE1       23.9770   14.7680   11.2060 O.2   117  GLN117     -0.2717
     36  NE2       22.3870   13.1740   11.1910 N.am  117  GLN117     -0.0878
     37  N         32.3880   13.9340   18.2850 N.3   147  TYR147     -0.1241
     38  CA        32.0940   12.5830   17.8280 C.3   147  TYR147      0.1605
     39  C         31.5390   12.6290   16.4270 C.2   147  TYR147      0.2264
     40  O         30.6410   13.4160   16.1340 O.2   147  TYR147     -0.2867
     41  CB        31.0910   11.9820   18.8000 C.3   147  TYR147      0.0534
     42  CG        30.7010   10.5450   18.5180 C.ar  147  TYR147     -0.0201
     43  CD1       29.5180   10.2650   17.8580 C.ar  147  TYR147     -0.0009
     44  CD2       31.5040    9.4730   18.9440 C.ar  147  TYR147     -0.0009
     45  CE1       29.1170    8.9640   17.6200 C.ar  147  TYR147      0.0417
     46  CE2       31.0830    8.1290   18.6930 C.ar  147  TYR147      0.0417
     47  CZ        29.9160    7.9070   18.0240 C.ar  147  TYR147      0.1957
     48  OH        29.4810    6.6060   17.8080 O.3   147  TYR147     -0.2866
     49  N         30.9010   10.3010   12.5550 N.3   149  ASN149     -0.1240
     50  CA        31.0480    9.2000   11.6120 C.3   149  ASN149      0.1653
     51  C         31.9920    9.5360   10.4750 C.2   149  ASN149      0.2266
     52  O         32.7040    8.6540    9.9590 O.2   149  ASN149     -0.2867
     53  CB        29.6870    8.8560   10.9930 C.3   149  ASN149      0.1155
     54  CG        28.7890    8.1010   11.9240 C.2   149  ASN149      0.2627
     55  OD1       29.2000    7.6240   12.9760 O.2   149  ASN149     -0.2716
     56  ND2       27.5390    7.9580   11.5150 N.am  149  ASN149     -0.0877
     57  N         18.8030   -0.6120    8.6850 N.3   208  VAL208     -0.1231
     58  CA        19.7080    0.4940    8.3320 C.3   208  VAL208      0.1692
     59  C         19.8380    0.6620    6.8070 C.2   208  VAL208      0.2592
     60  O         19.9090   -0.3200    6.0630 O.2   208  VAL208     -0.2718
     61  CB        21.0870    0.2950    9.0320 C.3   208  VAL208      0.0266
     62  CG1       21.7700   -0.9100    8.4780 C.3   208  VAL208      0.0020
     63  CG2       21.9830    1.5390    8.8810 C.3   208  VAL208      0.0020
     64  N         19.8210    1.9160    6.3450 N.am  209  SER209     -0.1952
     65  CA        19.9670    2.2130    4.9090 C.3   209  SER209      0.1924
     66  C         21.4250    2.3010    4.5270 C.2   209  SER209      0.2314
     67  O         22.2560    2.6880    5.3650 O.2   209  SER209     -0.2863
     68  CB        19.2880    3.5450    4.5950 C.3   209  SER209      0.2116
     69  OG        17.8820    3.4530    4.8110 O.3   209  SER209     -0.2180
     70  N         29.2530    2.3140   11.0860 N.3   218  TYR218     -0.1241
     71  CA        28.1050    1.6640   11.6930 C.3   218  TYR218      0.1605
     72  C         27.6580    0.4170   10.8900 C.2   218  TYR218      0.2264
     73  O         26.4680    0.1200   10.8640 O.2   218  TYR218     -0.2867
     74  CB        26.9410    2.6730   11.8290 C.3   218  TYR218      0.0534
     75  CG        26.5390    3.3950   10.5280 C.ar  218  TYR218     -0.0201
     76  CD1       25.5150    2.9090    9.7280 C.ar  218  TYR218     -0.0009
     77  CD2       27.1630    4.5810   10.1430 C.ar  218  TYR218     -0.0009
     78  CE1       25.1150    3.5670    8.5490 C.ar  218  TYR218      0.0417
     79  CE2       26.7780    5.2410    8.9740 C.ar  218  TYR218      0.0417
     80  CZ        25.7700    4.7320    8.1890 C.ar  218  TYR218      0.1957
     81  OH        25.4050    5.4100    7.0580 O.3   218  TYR218     -0.2866
     82  N         27.8270   13.6890   22.3060 N.3   290  LEU290     -0.1245
     83  CA        27.8800   14.2210   20.9540 C.3   290  LEU290      0.1561
     84  C         28.3530   15.6910   20.8880 C.2   290  LEU290      0.2260
     85  O         28.4430   16.2520   19.7990 O.2   290  LEU290     -0.2867
     86  CB        26.4910   14.0950   20.2930 C.3   290  LEU290      0.0270
     87  CG        25.8740   12.7090   20.0670 C.3   290  LEU290      0.0019
     88  CD1       24.5420   12.8180   19.3020 C.3   290  LEU290      0.0001
     89  CD2       26.8290   11.7380   19.3540 C.3   290  LEU290      0.0001
     90  N         23.7660    2.9530   18.0710 N.3   315  ALA315     -0.1231
     91  CA        22.3670    2.9560   17.6570 C.3   315  ALA315      0.1694
     92  C         22.2140    3.1240   16.1830 C.2   315  ALA315      0.2593
     93  O         23.0010    3.7790   15.5390 O.2   315  ALA315     -0.2718
     94  CB        21.5860    4.0830   18.3790 C.3   315  ALA315      0.0304
     95  N         21.1950    2.4810   15.6340 N.am  316  THR316     -0.1939
     96  CA        20.7230    2.8830   14.3300 C.3   316  THR316      0.2028
     97  C         19.2760    3.3690   14.5020 C.2   316  THR316      0.2642
     98  O         18.7770    3.5400   15.6400 O.2   316  THR316     -0.2714
     99  CB        20.7770    1.7150   13.3410 C.3   316  THR316      0.1808
    100  OG1       19.9170    0.6810   13.8440 O.3   316  THR316     -0.2208
    101  CG2       22.1860    1.1670   13.2060 C.3   316  THR316      0.0379
    102  N         18.5510    3.5810   13.4080 N.am  317  GLY317     -0.1954
    103  CA        17.2460    4.2000   13.5720 C.3   317  GLY317      0.1869
    104  C         16.3280    3.2450   14.3160 C.2   317  GLY317      0.2309
    105  O         15.4350    3.6750   15.0410 O.2   317  GLY317     -0.2863
    106  N         15.8430    1.8650   19.3170 N.3   340  ASN340     -0.1240
    107  CA        16.8380    2.8290   19.7840 C.3   340  ASN340      0.1653
    108  C         16.2690    3.5940   20.9980 C.2   340  ASN340      0.2266
    109  O         15.4910    4.5340   20.8420 O.2   340  ASN340     -0.2867
    110  CB        17.1950    3.7730   18.6480 C.3   340  ASN340      0.1155
    111  CG        18.1280    4.8750   19.0730 C.2   340  ASN340      0.2627
    112  OD1       18.6180    4.8910   20.1870 O.2   340  ASN340     -0.2716
    113  ND2       18.3830    5.8090   18.1660 N.am  340  ASN340     -0.0877
@<TRIPOS>BOND
     1    66    65    1
     2    66    67    2
     3    68    69    1
     4    68    65    1
     5    65    64    1
     6    60    59    2
     7    64    59   am
     8    59    58    1
     9    81    80    1
    10    31    30    2
    11    80    78   ar
    12    80    79   ar
    13    30    29    1
    14    58    57    1
    15    58    61    1
    16    62    61    1
    17    78    76   ar
    18    63    61    1
    19    79    77   ar
    20    32    29    1
    21    32    33    1
    22    29    28    1
    23    76    75   ar
    24    52    51    2
    25    77    75   ar
    26    51    50    1
    27    75    74    1
    28    33    34    1
    29    28    22   am
    30    73    72    2
    31    72    71    1
    32    53    50    1
    33    53    54    1
    34    34    36   am
    35    34    35    2
    36    70    71    1
    37    56    54   am
    38    50    49    1
    39    23    22    2
    40    71    74    1
    41    22    21    1
    42    54    55    2
    43    20    21    1
    44    21    24    1
    45   101    99    1
    46    99   100    1
    47    99    96    1
    48   102   103    1
    49   102    97   am
    50   103   104    1
    51    24    25    1
    52    25    27    1
    53    25    26    1
    54   104   105    2
    55    96    97    1
    56    96    95    1
    57    97    98    2
    58    19    18    1
    59     4     3    2
    60     2     1    1
    61     2     3    1
    62    18    17    1
    63    16    17    1
    64    16    15    1
    65     3     5   am
    66    93    92    2
    67    11    12    1
    68    12    15    1
    69    12    13    1
    70    95    92   am
    71     5     6    1
    72    40    39    2
    73    92    91    1
    74    10     9    1
    75    14    13    2
    76    39    38    1
    77     6     9    1
    78     6     7    1
    79     7     8    2
    80    45    43   ar
    81    45    47   ar
    82    91    90    1
    83    91    94    1
    84    48    47    1
    85    38    37    1
    86    38    41    1
    87    43    42   ar
    88    47    46   ar
    89   113   111   am
    90    42    41    1
    91    42    44   ar
    92   110   111    1
    93   110   107    1
    94    46    44   ar
    95   111   112    2
    96    88    87    1
    97   106   107    1
    98    89    87    1
    99   107   108    1
   100    85    84    2
   101    87    86    1
   102    86    83    1
   103   109   108    2
   104    84    83    1
   105    83    82    1
