@<TRIPOS>MOLECULE
tmp/3o8aA00.pdb
 161 153 0 0 0
SMALL
GASTEIGER

@<TRIPOS>ATOM
      1  N         38.5410   -9.5720   18.5130 N.3     8  TYR8       -0.1241
      2  CA        37.1330   -9.6340   18.2370 C.3     8  TYR8        0.1605
      3  C         36.5920  -11.0370   18.3850 C.2     8  TYR8        0.2264
      4  O         35.4650  -11.2140   18.7740 O.2     8  TYR8       -0.2867
      5  CB        36.7950   -9.0120   16.8850 C.3     8  TYR8        0.0534
      6  CG        36.6890   -7.5090   16.9170 C.ar    8  TYR8       -0.0201
      7  CD1       35.8310   -6.8800   17.7690 C.ar    8  TYR8       -0.0009
      8  CD2       37.4430   -6.7270   16.0900 C.ar    8  TYR8       -0.0009
      9  CE1       35.7410   -5.5440   17.7970 C.ar    8  TYR8        0.0417
     10  CE2       37.3470   -5.3970   16.1180 C.ar    8  TYR8        0.0417
     11  CZ        36.4950   -4.8080   16.9700 C.ar    8  TYR8        0.1957
     12  OH        36.4010   -3.4560   16.9960 O.3     8  TYR8       -0.2866
     13  N         35.9600  -11.2210   22.1820 N.3    11  PHE11      -0.1227
     14  CA        34.7090  -10.5290   22.4780 C.3    11  PHE11       0.1736
     15  C         33.4950  -11.3290   21.9750 C.2    11  PHE11       0.2595
     16  O         32.4830  -11.4360   22.6620 O.2    11  PHE11      -0.2718
     17  CB        34.7190   -9.1230   21.8960 C.3    11  PHE11       0.0547
     18  CG        35.7900   -8.2230   22.4610 C.ar   11  PHE11      -0.0202
     19  CD1       36.3290   -8.4450   23.7320 C.ar   11  PHE11      -0.0042
     20  CD2       36.2240   -7.1140   21.7350 C.ar   11  PHE11      -0.0042
     21  CE1       37.3170   -7.6020   24.2640 C.ar   11  PHE11      -0.0003
     22  CE2       37.2060   -6.2550   22.2520 C.ar   11  PHE11      -0.0003
     23  CZ        37.7590   -6.5040   23.5320 C.ar   11  PHE11      -0.0000
     24  N         33.6240  -11.9340   20.8000 N.am   12  LEU12      -0.1980
     25  CA        32.5280  -12.6930   20.2150 C.3    12  LEU12       0.1596
     26  C         32.2290  -13.9430   21.0160 C.2    12  LEU12       0.2287
     27  O         31.0580  -14.2700   21.2420 O.2    12  LEU12      -0.2864
     28  CB        32.8130  -13.0490   18.7500 C.3    12  LEU12       0.0297
     29  CG        31.7630  -13.9770   18.1020 C.3    12  LEU12       0.0022
     30  CD1       30.3280  -13.3740   18.0800 C.3    12  LEU12       0.0001
     31  CD2       32.1650  -14.4120   16.7160 C.3    12  LEU12       0.0001
     32  N         30.2450  -12.8780   23.9880 N.3    15  CYS15      -0.1235
     33  CA        28.8820  -12.4920   23.6050 C.3    15  CYS15       0.1677
     34  C         27.9660  -13.6670   23.2480 C.2    15  CYS15       0.2270
     35  O         26.7920  -13.6560   23.5900 O.2    15  CYS15      -0.2867
     36  CB        28.9030  -11.4900   22.4440 C.3    15  CYS15       0.0956
     37  SG        29.6190   -9.9040   22.8550 S.3    15  CYS15      -0.0801
     38  N         20.9650  -12.7190   21.3980 N.3    21  GLY21      -0.1225
     39  CA        21.4350  -12.6910   20.0380 C.3    21  GLY21       0.1811
     40  C         21.1780  -11.4290   19.2600 C.2    21  GLY21       0.2280
     41  O         22.0560  -10.9640   18.5830 O.2    21  GLY21      -0.2866
     42  N         23.6190   -8.7970   20.3630 N.3    24  CYS24      -0.1221
     43  CA        24.9620   -8.9700   19.8510 C.3    24  CYS24       0.1808
     44  C         25.0280   -8.4200   18.4490 C.2    24  CYS24       0.2601
     45  O         25.9830   -7.7830   18.0690 O.2    24  CYS24      -0.2717
     46  CB        25.3700  -10.4380   19.7990 C.3    24  CYS24       0.0970
     47  SG        25.3730  -11.3830   21.2940 S.3    24  CYS24      -0.0800
     48  N         23.9930   -8.6920   17.6790 N.am   25  HIS25      -0.1975
     49  CA        23.9420   -8.2490   16.3180 C.3    25  HIS25       0.1656
     50  C         23.9320   -6.7540   16.2250 C.2    25  HIS25       0.2291
     51  O         24.6220   -6.1990   15.4340 O.2    25  HIS25      -0.2864
     52  CB        22.7070   -8.8110   15.6420 C.3    25  HIS25       0.0771
     53  CG        22.7570   -8.7920   14.1490 C.ar   25  HIS25       0.0820
     54  ND1       23.1110   -9.8890   13.4050 N.ar   25  HIS25      -0.2267
     55  CD2       22.4630   -7.8220   13.2600 C.ar   25  HIS25       0.1154
     56  CE1       23.0540   -9.5910   12.1290 C.ar   25  HIS25       0.1986
     57  NE2       22.6660   -8.3420   12.0140 N.ar   25  HIS25      -0.2212
     58  N         25.0250   -4.7690   18.3370 N.3    27  LEU27      -0.1231
     59  CA        26.3140   -4.3480   18.7880 C.3    27  LEU27       0.1693
     60  C         27.3160   -4.4120   17.6730 C.2    27  LEU27       0.2592
     61  O         28.1170   -3.5290   17.5060 O.2    27  LEU27      -0.2718
     62  CB        26.7510   -5.2260   19.9360 C.3    27  LEU27       0.0284
     63  CG        28.0190   -4.8380   20.6430 C.3    27  LEU27       0.0019
     64  CD1       27.9750   -3.4030   20.9080 C.3    27  LEU27       0.0001
     65  CD2       28.0670   -5.5860   21.9110 C.3    27  LEU27       0.0001
     66  N         27.2580   -5.4670   16.8980 N.am   28  PHE28      -0.1976
     67  CA        28.1760   -5.6000   15.8130 C.3    28  PHE28       0.1639
     68  C         27.9420   -4.4800   14.8490 C.2    28  PHE28       0.2290
     69  O         28.8580   -3.8690   14.3960 O.2    28  PHE28      -0.2864
     70  CB        27.9880   -6.9350   15.1200 C.3    28  PHE28       0.0560
     71  CG        28.7580   -7.0710   13.8630 C.ar   28  PHE28      -0.0200
     72  CD1       29.9790   -7.6460   13.8540 C.ar   28  PHE28      -0.0042
     73  CD2       28.2580   -6.6280   12.6880 C.ar   28  PHE28      -0.0042
     74  CE1       30.6690   -7.7640   12.7070 C.ar   28  PHE28      -0.0003
     75  CE2       28.9660   -6.7470   11.5520 C.ar   28  PHE28      -0.0003
     76  CZ        30.1570   -7.3100   11.5620 C.ar   28  PHE28      -0.0000
     77  N         29.4030   -1.1700   15.9310 N.3    31  LEU31      -0.1245
     78  CA        30.8520   -1.1280   15.7190 C.3    31  LEU31       0.1561
     79  C         31.2050   -0.8120   14.2650 C.2    31  LEU31       0.2260
     80  O         32.1710   -0.0820   13.9820 O.2    31  LEU31      -0.2867
     81  CB        31.4960   -2.4580   16.1230 C.3    31  LEU31       0.0270
     82  CG        31.5510   -2.7040   17.6380 C.3    31  LEU31       0.0019
     83  CD1       32.4520   -3.8470   17.9580 C.3    31  LEU31       0.0001
     84  CD2       31.9650   -1.4580   18.4560 C.3    31  LEU31       0.0001
     85  N         21.3150   -9.1850    7.3830 N.3    67  PHE67      -0.1241
     86  CA        22.4480   -8.9100    8.2300 C.3    67  PHE67       0.1605
     87  C         22.5070   -7.4320    8.4830 C.2    67  PHE67       0.2264
     88  O         22.4820   -7.0130    9.6380 O.2    67  PHE67      -0.2867
     89  CB        23.7590   -9.3930    7.6170 C.3    67  PHE67       0.0534
     90  CG        24.7690   -9.7820    8.6360 C.ar   67  PHE67      -0.0203
     91  CD1       24.9360  -11.1190    8.9860 C.ar   67  PHE67      -0.0042
     92  CD2       25.5440   -8.8270    9.2630 C.ar   67  PHE67      -0.0042
     93  CE1       25.8690  -11.4940    9.9710 C.ar   67  PHE67      -0.0003
     94  CE2       26.4720   -9.2030   10.2410 C.ar   67  PHE67      -0.0003
     95  CZ        26.6220  -10.5540   10.5970 C.ar   67  PHE67      -0.0000
     96  N         15.3790  -14.0130   17.9470 N.3   103  ILE103     -0.1245
     97  CA        16.5690  -14.6290   17.3640 C.3   103  ILE103      0.1561
     98  C         17.2560  -15.4910   18.4090 C.2   103  ILE103      0.2260
     99  O         17.5990  -14.9990   19.4810 O.2   103  ILE103     -0.2867
    100  CB        17.6160  -13.5740   16.8440 C.3   103  ILE103      0.0252
    101  CG1       17.0480  -12.6800   15.7400 C.3   103  ILE103      0.0019
    102  CG2       18.8750  -14.2730   16.3600 C.3   103  ILE103      0.0019
    103  CD1       17.9390  -11.4760   15.3820 C.3   103  ILE103      0.0001
    104  N         20.4390  -18.6830   18.9210 N.3   105  ARG105     -0.1245
    105  CA        21.5600  -19.3840   18.3490 C.3   105  ARG105      0.1563
    106  C         21.8910  -20.6550   19.0870 C.2   105  ARG105      0.2260
    107  O         21.8570  -20.6860   20.2870 O.2   105  ARG105     -0.2867
    108  CB        22.7760  -18.4840   18.4090 C.3   105  ARG105      0.0307
    109  CG        22.5780  -17.1930   17.7240 C.3   105  ARG105      0.0489
    110  CD        23.5560  -16.1600   18.1510 C.3   105  ARG105      0.2205
    111  NE        23.5380  -15.9270   19.5700 N.pl3 105  ARG105     -0.0865
    112  CZ        24.0550  -14.8620   20.1440 C.cat 105  ARG105      0.5346
    113  NH1       24.5970  -13.9310   19.4160 N.pl3 105  ARG105      0.1354
    114  NH2       24.0220  -14.7300   21.4440 N.pl3 105  ARG105      0.1354
    115  N         20.9910  -21.1670   13.7070 N.3   112  ILE112     -0.1245
    116  CA        20.2550  -20.0140   14.2090 C.3   112  ILE112      0.1561
    117  C         18.7780  -20.2250   13.8970 C.2   112  ILE112      0.2260
    118  O         18.4380  -20.8230   12.8720 O.2   112  ILE112     -0.2867
    119  CB        20.6910  -18.6830   13.5010 C.3   112  ILE112      0.0252
    120  CG1       22.1930  -18.4100   13.6810 C.3   112  ILE112      0.0019
    121  CG2       19.8220  -17.4950   13.9790 C.3   112  ILE112      0.0019
    122  CD1       22.7790  -17.2990   12.7300 C.3   112  ILE112      0.0001
    123  N         26.1600  -15.8630    6.2110 N.3   338  TYR338     -0.1241
    124  CA        25.4450  -15.2210    7.2950 C.3   338  TYR338      0.1605
    125  C         25.8880  -15.7870    8.6210 C.2   338  TYR338      0.2264
    126  O         26.5040  -15.1200    9.4080 O.2   338  TYR338     -0.2867
    127  CB        23.9520  -15.3790    7.1440 C.3   338  TYR338      0.0534
    128  CG        23.1750  -14.4410    8.0040 C.ar  338  TYR338     -0.0201
    129  CD1       22.2890  -13.5540    7.4610 C.ar  338  TYR338     -0.0009
    130  CD2       23.3300  -14.4340    9.3620 C.ar  338  TYR338     -0.0009
    131  CE1       21.5810  -12.7030    8.2450 C.ar  338  TYR338      0.0417
    132  CE2       22.6290  -13.5820   10.1430 C.ar  338  TYR338      0.0417
    133  CZ        21.7560  -12.7230    9.5830 C.ar  338  TYR338      0.1957
    134  OH        21.0670  -11.8730   10.3600 O.3   338  TYR338     -0.2866
    135  N         29.4630  -15.9010    9.7610 N.3   341  LEU341     -0.1231
    136  CA        29.9020  -14.6700   10.3750 C.3   341  LEU341      0.1693
    137  C         29.6110  -14.7000   11.8230 C.2   341  LEU341      0.2591
    138  O         30.3620  -14.2260   12.6100 O.2   341  LEU341     -0.2718
    139  CB        29.2010  -13.4800    9.7680 C.3   341  LEU341      0.0284
    140  CG        29.9420  -12.6520    8.7480 C.3   341  LEU341      0.0019
    141  CD1       29.0930  -11.5210    8.3740 C.3   341  LEU341      0.0001
    142  CD2       31.1600  -12.1410    9.3740 C.3   341  LEU341      0.0001
    143  N         28.4710  -15.2380   12.1560 N.am  342  VAL342     -0.1980
    144  CA        28.0090  -15.2900   13.5240 C.3   342  VAL342      0.1595
    145  C         28.8730  -16.2110   14.3760 C.2   342  VAL342      0.2287
    146  O         29.2920  -15.8230   15.4690 O.2   342  VAL342     -0.2864
    147  CB        26.5190  -15.7520   13.6100 C.3   342  VAL342      0.0276
    148  CG1       26.0970  -15.9460   15.0580 C.3   342  VAL342      0.0022
    149  CG2       25.6090  -14.7380   12.9110 C.3   342  VAL342      0.0022
    150  N         33.2010  -15.5290   13.0650 N.3   345  GLY345     -0.1210
    151  CA        33.6660  -14.2170   13.4750 C.3   345  GLY345      0.1956
    152  C         34.0910  -13.3070   12.3460 C.2   345  GLY345      0.2611
    153  O         34.0000  -13.6440   11.1720 O.2   345  GLY345     -0.2717
    154  N         34.5880  -12.1490   12.7160 N.am  346  MET346     -0.1979
    155  CA        35.0410  -11.1940   11.7670 C.3   346  MET346      0.1605
    156  C         36.0500  -11.6630   10.7230 C.2   346  MET346      0.2287
    157  O         36.1240  -11.0800    9.6520 O.2   346  MET346     -0.2864
    158  CB        35.5180   -9.9680   12.5030 C.3   346  MET346      0.0413
    159  CG        34.3310   -9.1140   12.8370 C.3   346  MET346      0.0598
    160  SD        34.9600   -7.7820   13.7320 S.3   346  MET346     -0.1393
    161  CE        33.6570   -7.5290   14.9330 C.3   346  MET346      0.0692
@<TRIPOS>BOND
     1   123   124    1
     2   127   124    1
     3   127   128    1
     4   124   125    1
     5    85    86    1
     6   129   128   ar
     7   129   131   ar
     8    89    86    1
     9    89    90    1
    10   128   130   ar
    11    86    87    1
    12   131   133   ar
    13   141   140    1
    14    87    88    2
    15   125   126    2
    16    90    91   ar
    17    90    92   ar
    18   140   142    1
    19   140   139    1
    20    91    93   ar
    21    92    94   ar
    22   130   132   ar
    23   133   132   ar
    24   133   134    1
    25   157   156    2
    26   135   136    1
    27   139   136    1
    28    93    95   ar
    29    94    95   ar
    30   136   137    1
    31   156   155    1
    32   153   152    2
    33    75    76   ar
    34    75    73   ar
    35    76    74   ar
    36   155   158    1
    37   155   154    1
    38   137   143   am
    39   137   138    2
    40    57    56   ar
    41    57    55   ar
    42    56    54   ar
    43   143   144    1
    44   152   154   am
    45   152   151    1
    46   158   159    1
    47    73    71   ar
    48    74    72   ar
    49   122   120    1
    50   159   160    1
    51   118   117    2
    52   149   147    1
    53   150   151    1
    54    55    53   ar
    55    54    53   ar
    56   119   120    1
    57   119   121    1
    58   119   116    1
    59   144   147    1
    60   144   145    1
    61   147   148    1
    62   115   116    1
    63   160   161    1
    64    72    71   ar
    65    71    70    1
    66   117   116    1
    67    80    79    2
    68    53    52    1
    69    79    78    1
    70   145   146    2
    71    69    68    2
    72    68    67    1
    73    70    67    1
    74   103   101    1
    75    51    50    2
    76    52    49    1
    77    78    77    1
    78    78    81    1
    79   101   100    1
    80    67    66    1
    81     8    10   ar
    82     8     6   ar
    83    10    11   ar
    84    81    82    1
    85    50    49    1
    86    49    48    1
    87   102   100    1
    88    31    29    1
    89   100    97    1
    90     5     6    1
    91     5     2    1
    92    66    60   am
    93     6     7   ar
    94    11    12    1
    95    11     9   ar
    96    97    96    1
    97    97    98    1
    98    61    60    2
    99    82    83    1
   100    82    84    1
   101    60    59    1
   102    48    44   am
   103   109   110    1
   104   109   108    1
   105     7     9   ar
   106    45    44    2
   107    30    29    1
   108    29    28    1
   109   110   111    1
   110     2     3    1
   111     2     1    1
   112    58    59    1
   113   105   108    1
   114   105   104    1
   115   105   106    1
   116     3     4    2
   117    98    99    2
   118    44    43    1
   119    41    40    2
   120    28    25    1
   121    59    62    1
   122   106   107    2
   123    40    39    1
   124   113   112    1
   125   111   112    2
   126    46    43    1
   127    46    47    1
   128    43    42    1
   129    62    63    1
   130    39    38    1
   131   112   114    1
   132    25    24    1
   133    25    26    1
   134    63    64    1
   135    63    65    1
   136    24    15   am
   137    26    27    2
   138    20    22   ar
   139    20    18   ar
   140    17    18    1
   141    17    14    1
   142    15    14    1
   143    15    16    2
   144    13    14    1
   145    22    23   ar
   146    36    37    1
   147    36    33    1
   148    18    19   ar
   149    34    35    2
   150    34    33    1
   151    23    21   ar
   152    33    32    1
   153    19    21   ar
