@<TRIPOS>MOLECULE
tmp/3o8gA00.pdb
 204 201 0 0 0
SMALL
GASTEIGER

@<TRIPOS>ATOM
      1  N         25.2940   68.6340   11.9530 N.3    66  LEU66      -0.1245
      2  CA        26.5630   68.4030   12.6450 C.3    66  LEU66       0.1561
      3  C         26.4070   67.3710   13.7930 C.2    66  LEU66       0.2260
      4  O         27.2890   66.5210   13.9790 O.2    66  LEU66      -0.2867
      5  CB        27.2000   69.7290   13.1430 C.3    66  LEU66       0.0270
      6  CG        28.5260   69.5750   13.9450 C.3    66  LEU66       0.0019
      7  CD1       29.7000   68.9640   13.1430 C.3    66  LEU66       0.0001
      8  CD2       28.9560   70.8850   14.6540 C.3    66  LEU66       0.0001
      9  N         26.5830   63.7960   12.5040 N.3    69  LEU69      -0.1231
     10  CA        27.9750   63.3580   12.3260 C.3    69  LEU69       0.1693
     11  C         28.6350   62.9810   13.6380 C.2    69  LEU69       0.2591
     12  O         29.3160   61.9540   13.7300 O.2    69  LEU69      -0.2718
     13  CB        28.8270   64.4400   11.6400 C.3    69  LEU69       0.0284
     14  CG        28.6760   64.6860   10.1490 C.3    69  LEU69       0.0019
     15  CD1       29.6940   65.7680    9.7370 C.3    69  LEU69       0.0001
     16  CD2       28.8990   63.3990    9.3770 C.3    69  LEU69       0.0001
     17  N         28.4350   63.8310   14.6470 N.am   70  ALA70      -0.1980
     18  CA        29.0250   63.6540   15.9650 C.3    70  ALA70       0.1597
     19  C         28.5960   62.3340   16.6050 C.2    70  ALA70       0.2287
     20  O         29.4060   61.6830   17.2630 O.2    70  ALA70      -0.2864
     21  CB        28.6760   64.8430   16.8690 C.3    70  ALA70       0.0319
     22  N         37.4160   63.1060    7.5960 N.3    81  MET81      -0.1230
     23  CA        36.6270   63.4810    8.7800 C.3    81  MET81       0.1702
     24  C         36.3200   64.9740    8.7920 C.2    81  MET81       0.2592
     25  O         35.1500   65.3450    8.8840 O.2    81  MET81      -0.2718
     26  CB        37.3220   63.0980   10.0910 C.3    81  MET81       0.0401
     27  CG        36.4790   63.4260   11.3520 C.3    81  MET81       0.0596
     28  SD        37.3550   62.9810   12.8700 S.3    81  MET81      -0.1393
     29  CE        38.6530   64.2300   12.8340 C.3    81  MET81       0.0692
     30  N         37.3710   65.8100    8.7040 N.am   82  TRP82      -0.1976
     31  CA        37.1980   67.2600    8.7200 C.3    82  TRP82       0.1640
     32  C         36.4190   67.7340    7.4840 C.2    82  TRP82       0.2290
     33  O         35.5370   68.6030    7.5760 O.2    82  TRP82      -0.2864
     34  CB        38.5410   67.9880    8.8840 C.3    82  TRP82       0.0576
     35  CG        39.1420   67.7680   10.2760 C.ar   82  TRP82       0.0006
     36  CD1       40.2590   67.0230   10.6000 C.ar   82  TRP82       0.0946
     37  CD2       38.6160   68.2750   11.5100 C.ar   82  TRP82       0.0152
     38  NE1       40.4720   67.0630   11.9840 N.ar   82  TRP82      -0.2442
     39  CE2       39.4680   67.8100   12.5600 C.ar   82  TRP82       0.0810
     40  CE3       37.4870   69.0620   11.8380 C.ar   82  TRP82       0.0012
     41  CZ2       39.2380   68.1350   13.9350 C.ar   82  TRP82       0.0191
     42  CZ3       37.2700   69.4080   13.2100 C.ar   82  TRP82       0.0001
     43  CH2       38.1530   68.9240   14.2320 C.ar   82  TRP82       0.0015
     44  N         33.9980   66.2830    5.7740 N.3    84  THR84      -0.1203
     45  CA        32.5670   66.0170    5.8750 C.3    84  THR84       0.1994
     46  C         31.9000   67.0340    6.8120 C.2    84  THR84       0.2618
     47  O         30.8020   67.5100    6.5190 O.2    84  THR84      -0.2717
     48  CB        32.2640   64.5450    6.3140 C.3    84  THR84       0.1784
     49  OG1       32.9770   63.6230    5.4730 O.3    84  THR84      -0.2211
     50  CG2       30.7210   64.2420    6.2400 C.3    84  THR84       0.0376
     51  N         32.5720   67.3550    7.9310 N.am   85  GLY85      -0.1942
     52  CA        32.1260   68.4160    8.8490 C.3    85  GLY85       0.2014
     53  C         32.0670   69.8110    8.2240 C.2    85  GLY85       0.2638
     54  O         31.0250   70.4910    8.3270 O.2    85  GLY85      -0.2714
     55  N         33.1450   70.2390    7.5490 N.am   86  ILE86      -0.1977
     56  CA        33.1580   71.5410    6.8560 C.3    86  ILE86       0.1596
     57  C         32.0310   71.5570    5.8010 C.2    86  ILE86       0.2287
     58  O         31.2870   72.5550    5.6870 O.2    86  ILE86      -0.2864
     59  CB        34.5920   71.9260    6.2830 C.3    86  ILE86       0.0276
     60  CG1       35.5880   72.1300    7.4430 C.3    86  ILE86       0.0022
     61  CG2       34.5470   73.1880    5.3190 C.3    86  ILE86       0.0022
     62  CD1       37.0600   72.2130    7.0070 C.3    86  ILE86       0.0001
     63  N         28.4370   72.8070    6.5550 N.3    89  PHE89      -0.1241
     64  CA        28.2240   74.2670    6.5310 C.3    89  PHE89       0.1605
     65  C         28.2170   74.8710    5.1170 C.2    89  PHE89       0.2264
     66  O         27.3470   75.6740    4.7740 O.2    89  PHE89      -0.2867
     67  CB        29.1900   74.9580    7.5320 C.3    89  PHE89       0.0534
     68  CG        28.8970   74.5550    8.9480 C.ar   89  PHE89      -0.0203
     69  CD1       29.4920   73.4120    9.5040 C.ar   89  PHE89      -0.0042
     70  CD2       27.9240   75.2390    9.6870 C.ar   89  PHE89      -0.0042
     71  CE1       29.1450   72.9760   10.8330 C.ar   89  PHE89      -0.0003
     72  CE2       27.5760   74.8210   10.9850 C.ar   89  PHE89      -0.0003
     73  CZ        28.1960   73.6870   11.5570 C.ar   89  PHE89      -0.0000
     74  N         24.5450   76.4030    4.2620 N.3    93  PHE93      -0.1241
     75  CA        24.4870   77.8550    4.0290 C.3    93  PHE93       0.1605
     76  C         24.4000   78.1500    2.5230 C.2    93  PHE93       0.2264
     77  O         23.7160   79.0860    2.1040 O.2    93  PHE93      -0.2867
     78  CB        25.6420   78.6300    4.7040 C.3    93  PHE93       0.0534
     79  CG        25.6970   78.4770    6.2310 C.ar   93  PHE93      -0.0203
     80  CD1       26.9310   78.5080    6.9060 C.ar   93  PHE93      -0.0042
     81  CD2       24.5290   78.2720    6.9820 C.ar   93  PHE93      -0.0042
     82  CE1       26.9880   78.3580    8.3070 C.ar   93  PHE93      -0.0003
     83  CE2       24.5770   78.1190    8.3970 C.ar   93  PHE93      -0.0003
     84  CZ        25.7910   78.1700    9.0480 C.ar   93  PHE93      -0.0000
     85  N         23.6370   84.4150   16.0620 N.3   117  TRP117     -0.1241
     86  CA        24.8930   84.0530   15.3720 C.3   117  TRP117      0.1605
     87  C         26.0260   83.7490   16.3620 C.2   117  TRP117      0.2264
     88  O         26.6940   82.6980   16.2600 O.2   117  TRP117     -0.2867
     89  CB        25.3280   85.0930   14.3210 C.3   117  TRP117      0.0550
     90  CG        26.4760   84.5330   13.4750 C.ar  117  TRP117      0.0003
     91  CD1       27.8070   84.8410   13.5890 C.ar  117  TRP117      0.0946
     92  CD2       26.3860   83.5100   12.4620 C.ar  117  TRP117      0.0152
     93  NE1       28.5480   84.0880   12.6950 N.ar  117  TRP117     -0.2442
     94  CE2       27.7000   83.2670   11.9920 C.ar  117  TRP117      0.0810
     95  CE3       25.3170   82.7860   11.8980 C.ar  117  TRP117      0.0012
     96  CZ2       27.9820   82.3300   10.9670 C.ar  117  TRP117      0.0191
     97  CZ3       25.5960   81.8510   10.8720 C.ar  117  TRP117      0.0001
     98  CH2       26.9210   81.6280   10.4320 C.ar  117  TRP117      0.0015
     99  N         27.9490   80.1360   16.8200 N.3   121  MET121     -0.1245
    100  CA        29.4210   80.1460   16.6290 C.3   121  MET121      0.1570
    101  C         30.1670   79.6200   17.8780 C.2   121  MET121      0.2261
    102  O         31.0660   78.7980   17.7630 O.2   121  MET121     -0.2867
    103  CB        29.9490   81.5240   16.1810 C.3   121  MET121      0.0387
    104  CG        29.5910   81.8690   14.7060 C.3   121  MET121      0.0595
    105  SD        30.3530   80.7930   13.4080 S.3   121  MET121     -0.1393
    106  CE        32.0360   81.4610   13.4550 C.3   121  MET121      0.0692
    107  N         29.6990   75.8190   17.9790 N.3   124  TRP124     -0.1241
    108  CA        30.4800   75.1800   16.9070 C.3   124  TRP124      0.1605
    109  C         32.0010   75.2050   17.1690 C.2   124  TRP124      0.2264
    110  O         32.6920   74.2250   16.8740 O.2   124  TRP124     -0.2867
    111  CB        30.1410   75.8120   15.5490 C.3   124  TRP124      0.0550
    112  CG        28.6760   75.5870   15.1540 C.ar  124  TRP124      0.0003
    113  CD1       27.8600   74.5510   15.5640 C.ar  124  TRP124      0.0946
    114  CD2       27.8820   76.4080   14.2970 C.ar  124  TRP124      0.0152
    115  NE1       26.6160   74.6850   15.0120 N.ar  124  TRP124     -0.2442
    116  CE2       26.5960   75.8000   14.2140 C.ar  124  TRP124      0.0810
    117  CE3       28.1320   77.5880   13.5610 C.ar  124  TRP124      0.0012
    118  CZ2       25.5510   76.3510   13.4760 C.ar  124  TRP124      0.0191
    119  CZ3       27.0590   78.1430   12.8060 C.ar  124  TRP124      0.0001
    120  CH2       25.8010   77.5050   12.7680 C.ar  124  TRP124      0.0015
    121  N         32.7100   72.5620   19.9940 N.3   127  TYR127     -0.1227
    122  CA        32.7460   71.2030   19.4450 C.3   127  TYR127      0.1736
    123  C         34.0460   70.9350   18.6550 C.2   127  TYR127      0.2596
    124  O         34.6930   69.9020   18.8770 O.2   127  TYR127     -0.2718
    125  CB        31.4880   70.8190   18.6300 C.3   127  TYR127      0.0548
    126  CG        31.5110   69.3360   18.3160 C.ar  127  TYR127     -0.0200
    127  CD1       31.5220   68.3760   19.3610 C.ar  127  TYR127     -0.0009
    128  CD2       31.5750   68.8850   17.0000 C.ar  127  TYR127     -0.0009
    129  CE1       31.5890   67.0200   19.0870 C.ar  127  TYR127      0.0417
    130  CE2       31.6330   67.5090   16.7130 C.ar  127  TYR127      0.0417
    131  CZ        31.6320   66.5990   17.7570 C.ar  127  TYR127      0.1957
    132  OH        31.7130   65.2570   17.4730 O.3   127  TYR127     -0.2866
    133  N         34.4260   71.8750   17.7770 N.am  128  THR128     -0.1953
    134  CA        35.7440   71.8060   17.0960 C.3   128  THR128      0.1897
    135  C         36.9130   71.5700   18.1010 C.2   128  THR128      0.2313
    136  O         37.7420   70.6710   17.9110 O.2   128  THR128     -0.2863
    137  CB        36.0280   73.0810   16.2070 C.3   128  THR128      0.1794
    138  OG1       34.9500   73.3000   15.2630 O.3   128  THR128     -0.2208
    139  CG2       37.4370   72.9700   15.4730 C.3   128  THR128      0.0378
    140  N         36.8480   68.0080   19.5700 N.3   131  VAL131     -0.1245
    141  CA        37.3880   67.0580   18.6000 C.3   131  VAL131      0.1561
    142  C         38.9410   67.1200   18.5110 C.2   131  VAL131      0.2260
    143  O         39.5880   66.0620   18.5300 O.2   131  VAL131     -0.2867
    144  CB        36.6990   67.1460   17.2030 C.3   131  VAL131      0.0252
    145  CG1       37.3520   66.1390   16.2020 C.3   131  VAL131      0.0019
    146  CG2       35.1890   66.8490   17.2990 C.3   131  VAL131      0.0019
    147  N         37.3050   78.6210   12.7210 N.3   155  ASN155     -0.1240
    148  CA        35.8920   78.9520   12.5180 C.3   155  ASN155      0.1653
    149  C         35.5960   80.3530   11.9500 C.2   155  ASN155      0.2266
    150  O         34.7310   80.4730   11.0680 O.2   155  ASN155     -0.2867
    151  CB        35.0560   78.6000   13.7700 C.3   155  ASN155      0.1155
    152  CG        34.7710   77.1070   13.8410 C.2   155  ASN155      0.2627
    153  OD1       33.9460   76.6040   13.0680 O.2   155  ASN155     -0.2716
    154  ND2       35.5040   76.3730   14.6980 N.am  155  ASN155     -0.0877
    155  N         36.3430   80.2800    8.3140 N.3   158  ASN158     -0.1225
    156  CA        35.2480   79.6260    7.5630 C.3   158  ASN158      0.1785
    157  C         34.0770   80.5860    7.3710 C.2   158  ASN158      0.2597
    158  O         33.5470   80.7020    6.2620 O.2   158  ASN158     -0.2718
    159  CB        34.7260   78.3340    8.2500 C.3   158  ASN158      0.1169
    160  CG        35.6830   77.1370    8.1190 C.2   158  ASN158      0.2627
    161  OD1       36.8540   77.2890    7.7500 O.2   158  ASN158     -0.2716
    162  ND2       35.1790   75.9350    8.4300 N.am  158  ASN158     -0.0877
    163  N         33.7060   81.3090    8.4380 N.am  159  GLU159     -0.1979
    164  CA        32.6230   82.3250    8.3510 C.3   159  GLU159      0.1602
    165  C         32.8620   83.3410    7.2250 C.2   159  GLU159      0.2287
    166  O         32.0210   83.4650    6.2720 O.2   159  GLU159     -0.2864
    167  CB        32.4360   83.0440    9.7010 C.3   159  GLU159      0.0415
    168  CG        31.3220   84.1120    9.7140 C.3   159  GLU159      0.1163
    169  CD        31.4090   84.9860   10.9650 C.2   159  GLU159      0.3649
    170  OE1       31.3020   84.4380   12.0680 O.co2 159  GLU159     -0.2457
    171  OE2       31.5750   86.2100   10.8420 O.co2 159  GLU159     -0.2457
    172  N         33.5080   81.5150    3.4530 N.3   162  LEU162     -0.1231
    173  CA        32.2430   80.9950    2.8890 C.3   162  LEU162      0.1693
    174  C         31.3060   82.1140    2.4150 C.2   162  LEU162      0.2592
    175  O         30.8250   82.0710    1.2740 O.2   162  LEU162     -0.2718
    176  CB        31.4690   80.0680    3.8800 C.3   162  LEU162      0.0284
    177  CG        32.0490   78.6930    4.2720 C.3   162  LEU162      0.0019
    178  CD1       31.2170   78.0170    5.4120 C.3   162  LEU162      0.0001
    179  CD2       32.2830   77.7490    3.0350 C.3   162  LEU162      0.0001
    180  N         31.0880   83.1110    3.2800 N.am  163  PHE163     -0.1976
    181  CA        30.1470   84.1910    2.9720 C.3   163  PHE163      0.1639
    182  C         30.6530   85.1460    1.8560 C.2   163  PHE163      0.2290
    183  O         29.8580   85.5260    0.9770 O.2   163  PHE163     -0.2864
    184  CB        29.6580   84.9110    4.2480 C.3   163  PHE163      0.0560
    185  CG        29.0050   83.9770    5.2480 C.ar  163  PHE163     -0.0200
    186  CD1       28.3380   82.8200    4.8240 C.ar  163  PHE163     -0.0042
    187  CD2       29.0640   84.2360    6.6070 C.ar  163  PHE163     -0.0042
    188  CE1       27.7420   81.9360    5.7430 C.ar  163  PHE163     -0.0003
    189  CE2       28.4740   83.3690    7.5270 C.ar  163  PHE163     -0.0003
    190  CZ        27.8150   82.2290    7.1060 C.ar  163  PHE163     -0.0000
    191  N         42.7620   73.6550    7.5210 N.3   186  TRP186     -0.1241
    192  CA        42.3650   72.9800    8.7780 C.3   186  TRP186      0.1605
    193  C         43.2890   71.8050    9.0990 C.2   186  TRP186      0.2264
    194  O         43.8330   71.7010   10.2140 O.2   186  TRP186     -0.2867
    195  CB        40.8870   72.5340    8.7190 C.3   186  TRP186      0.0550
    196  CG        39.8430   73.6270    9.0810 C.ar  186  TRP186      0.0003
    197  CD1       39.6380   74.8400    8.4400 C.ar  186  TRP186      0.0946
    198  CD2       38.8520   73.5620   10.1370 C.ar  186  TRP186      0.0152
    199  NE1       38.5860   75.5250    9.0440 N.ar  186  TRP186     -0.2442
    200  CE2       38.0850   74.7630   10.0770 C.ar  186  TRP186      0.0810
    201  CE3       38.5300   72.5950   11.1190 C.ar  186  TRP186      0.0012
    202  CZ2       37.0590   75.0620   11.0080 C.ar  186  TRP186      0.0191
    203  CZ3       37.4720   72.8740   12.0150 C.ar  186  TRP186      0.0001
    204  CH2       36.7540   74.1050   11.9470 C.ar  186  TRP186      0.0015
@<TRIPOS>BOND
     1   183   182    2
     2   175   174    2
     3   182   181    1
     4    77    76    2
     5   174   173    1
     6   174   180   am
     7    76    75    1
     8   173   172    1
     9   173   176    1
    10   181   180    1
    11   181   184    1
    12   179   177    1
    13   176   177    1
    14    75    74    1
    15    75    78    1
    16   184   185    1
    17   177   178    1
    18    78    79    1
    19    66    65    2
    20   186   185   ar
    21   186   188   ar
    22    65    64    1
    23   185   187   ar
    24    61    59    1
    25    49    48    1
    26    58    57    2
    27   188   190   ar
    28    44    45    1
    29    57    56    1
    30    45    48    1
    31    45    46    1
    32    79    80   ar
    33    79    81   ar
    34    50    48    1
    35   158   157    2
    36   166   165    2
    37    59    56    1
    38    59    60    1
    39    47    46    2
    40    64    63    1
    41    64    67    1
    42   187   189   ar
    43    46    51   am
    44    56    55    1
    45    80    82   ar
    46    81    83   ar
    47    62    60    1
    48   190   189   ar
    49   165   164    1
    50   157   156    1
    51   157   163   am
    52    32    33    2
    53    32    31    1
    54   191   192    1
    55    67    68    1
    56    55    53   am
    57   156   159    1
    58   156   155    1
    59    22    23    1
    60   161   160    2
    61    51    52    1
    62   160   159    1
    63   160   162   am
    64    53    54    2
    65    53    52    1
    66    82    84   ar
    67   164   163    1
    68   164   167    1
    69    83    84   ar
    70   197   199   ar
    71   197   196   ar
    72    30    31    1
    73    30    24   am
    74   195   192    1
    75   195   196    1
    76    31    34    1
    77   192   193    1
    78    23    24    1
    79    23    26    1
    80    24    25    2
    81    34    35    1
    82    68    69   ar
    83    68    70   ar
    84   199   200   ar
    85   196   198   ar
    86   193   194    2
    87    16    14    1
    88    69    71   ar
    89    70    72   ar
    90   167   168    1
    91   168   169    1
    92    15    14    1
    93   200   198   ar
    94   200   202   ar
    95    26    27    1
    96   198   201   ar
    97    14    13    1
    98    35    36   ar
    99    35    37   ar
   100    98    97   ar
   101    98    96   ar
   102    36    38   ar
   103    71    73   ar
   104   171   169   ar
   105    97    95   ar
   106   169   170   ar
   107    96    94   ar
   108    72    73   ar
   109   202   204   ar
   110   150   149    2
   111   201   203   ar
   112    27    28    1
   113    37    40   ar
   114    37    39   ar
   115    13    10    1
   116    40    42   ar
   117    95    92   ar
   118   204   203   ar
   119   149   148    1
   120     1     2    1
   121    38    39   ar
   122    94    92   ar
   123    94    93   ar
   124    10     9    1
   125    10    11    1
   126    92    90   ar
   127   148   147    1
   128   148   151    1
   129    39    41   ar
   130     2     5    1
   131     2     3    1
   132    93    91   ar
   133   120   119   ar
   134   120   118   ar
   135   119   117   ar
   136    29    28    1
   137   153   152    2
   138     7     6    1
   139     5     6    1
   140    42    43   ar
   141   105   106    1
   142   105   104    1
   143    90    91   ar
   144    90    89    1
   145   118   116   ar
   146   117   114   ar
   147    11    12    2
   148    11    17   am
   149   151   152    1
   150     3     4    2
   151   152   154   am
   152    41    43   ar
   153     6     8    1
   154   116   114   ar
   155   116   115   ar
   156   114   112   ar
   157    89    86    1
   158    17    18    1
   159   104   103    1
   160   115   113   ar
   161   112   111    1
   162   112   113   ar
   163   138   137    1
   164    86    85    1
   165    86    87    1
   166   139   137    1
   167   111   108    1
   168    18    19    1
   169    18    21    1
   170   103   100    1
   171   145   144    1
   172   137   134    1
   173    88    87    2
   174    19    20    2
   175   100    99    1
   176   100   101    1
   177   130   128   ar
   178   130   131   ar
   179   110   109    2
   180   108   109    1
   181   108   107    1
   182   128   126   ar
   183   134   133    1
   184   134   135    1
   185   144   146    1
   186   144   141    1
   187   132   131    1
   188   131   129   ar
   189   102   101    2
   190   133   123   am
   191   136   135    2
   192   126   125    1
   193   126   127   ar
   194   142   143    2
   195   142   141    1
   196   141   140    1
   197   125   122    1
   198   123   124    2
   199   123   122    1
   200   129   127   ar
   201   122   121    1
