@<TRIPOS>MOLECULE
tmp/3o8hA00.pdb
 259 251 0 0 0
SMALL
GASTEIGER

@<TRIPOS>ATOM
      1  N         16.6180   81.4520    9.3030 N.3    55  LEU55      -0.1245
      2  CA        18.0150   81.1820    9.6960 C.3    55  LEU55       0.1561
      3  C         18.1080   80.1330   10.7990 C.2    55  LEU55       0.2260
      4  O         18.9700   79.2700   10.7650 O.2    55  LEU55      -0.2867
      5  CB        18.6800   82.4830   10.1420 C.3    55  LEU55       0.0270
      6  CG        20.2100   82.6750   10.1530 C.3    55  LEU55       0.0019
      7  CD1       20.7760   82.7780   11.5440 C.3    55  LEU55       0.0001
      8  CD2       21.0230   81.7120    9.2590 C.3    55  LEU55       0.0001
      9  N         25.1460   67.3780   11.5210 N.3    66  LEU66      -0.1245
     10  CA        26.4130   67.1050   12.2050 C.3    66  LEU66       0.1561
     11  C         26.2590   66.0650   13.3550 C.2    66  LEU66       0.2260
     12  O         27.1030   65.1740   13.5130 O.2    66  LEU66      -0.2867
     13  CB        26.9970   68.4070   12.7350 C.3    66  LEU66       0.0270
     14  CG        28.3700   68.2990   13.4050 C.3    66  LEU66       0.0019
     15  CD1       29.4150   67.8760   12.3720 C.3    66  LEU66       0.0001
     16  CD2       28.7320   69.6530   14.0510 C.3    66  LEU66       0.0001
     17  N         26.1160   62.5580   11.9140 N.3    69  LEU69      -0.1231
     18  CA        27.4960   62.1230   11.6680 C.3    69  LEU69       0.1693
     19  C         28.2300   61.6900   12.9250 C.2    69  LEU69       0.2591
     20  O         28.8760   60.6400   12.9350 O.2    69  LEU69      -0.2718
     21  CB        28.3180   63.2280   10.9950 C.3    69  LEU69       0.0284
     22  CG        28.5320   63.2660    9.4970 C.3    69  LEU69       0.0019
     23  CD1       29.5220   64.4080    9.2070 C.3    69  LEU69       0.0001
     24  CD2       29.0780   61.9400    8.9970 C.3    69  LEU69       0.0001
     25  N         28.1500   62.5130   13.9730 N.am   70  ALA70      -0.1980
     26  CA        28.7980   62.2350   15.2600 C.3    70  ALA70       0.1597
     27  C         28.3500   60.8960   15.8420 C.2    70  ALA70       0.2287
     28  O         29.1180   60.2180   16.5270 O.2    70  ALA70      -0.2864
     29  CB        28.5010   63.3490   16.2470 C.3    70  ALA70       0.0319
     30  N         31.1220   55.2060   10.9490 N.3    74  ALA74      -0.1245
     31  CA        31.6340   55.8940    9.7400 C.3    74  ALA74       0.1562
     32  C         33.1100   55.6490    9.3900 C.2    74  ALA74       0.2260
     33  O         33.8910   56.5990    9.2690 O.2    74  ALA74      -0.2867
     34  CB        31.3240   57.3840    9.7830 C.3    74  ALA74       0.0290
     35  N         37.1490   61.8920    7.2750 N.3    81  MET81      -0.1182
     36  CA        36.3160   62.2600    8.4430 C.3    81  MET81       0.1917
     37  C         36.0490   63.7950    8.4990 C.2    81  MET81       0.2634
     38  O         34.9030   64.2540    8.6420 O.2    81  MET81      -0.2714
     39  CB        36.9770   61.7800    9.7570 C.2    81  MET81       0.0083
     40  CG        36.4290   62.4400   11.0510 C.2    81  MET81       0.0282
     41  SD        37.2090   61.9750   12.6490 S.3    81  MET81      -0.1125
     42  CE        38.6710   63.0110   12.6660 C.3    81  MET81       0.0742
     43  N         37.1140   64.5730    8.3710 N.am   82  TRP82      -0.1973
     44  CA        36.9840   66.0420    8.4350 C.3    82  TRP82       0.1640
     45  C         36.2050   66.5230    7.2320 C.2    82  TRP82       0.2290
     46  O         35.3450   67.3890    7.3410 O.2    82  TRP82      -0.2864
     47  CB        38.3540   66.7240    8.5470 C.3    82  TRP82       0.0576
     48  CG        39.0090   66.4630    9.9000 C.ar   82  TRP82       0.0006
     49  CD1       40.1000   65.6630   10.1480 C.ar   82  TRP82       0.0946
     50  CD2       38.5640   66.9500   11.1790 C.ar   82  TRP82       0.0152
     51  NE1       40.3880   65.6700   11.5070 N.ar   82  TRP82      -0.2442
     52  CE2       39.4560   66.4420   12.1560 C.ar   82  TRP82       0.0810
     53  CE3       37.4880   67.7600   11.5960 C.ar   82  TRP82       0.0012
     54  CZ2       39.3150   66.7290   13.5260 C.ar   82  TRP82       0.0191
     55  CZ3       37.3460   68.0300   12.9810 C.ar   82  TRP82       0.0001
     56  CH2       38.2580   67.5160   13.9080 C.ar   82  TRP82       0.0015
     57  N         33.7970   65.0240    5.4560 N.3    84  THR84      -0.1203
     58  CA        32.3510   64.7390    5.5760 C.3    84  THR84       0.1994
     59  C         31.7000   65.7180    6.5430 C.2    84  THR84       0.2618
     60  O         30.5570   66.1940    6.3170 O.2    84  THR84      -0.2717
     61  CB        32.0800   63.2440    6.0180 C.3    84  THR84       0.1784
     62  OG1       32.8320   62.3690    5.1800 O.3    84  THR84      -0.2211
     63  CG2       30.5630   62.8500    5.9140 C.3    84  THR84       0.0376
     64  N         32.4360   66.0440    7.6060 N.am   85  GLY85      -0.1942
     65  CA        31.9900   66.9900    8.6170 C.3    85  GLY85       0.2014
     66  C         31.9030   68.4190    8.0890 C.2    85  GLY85       0.2638
     67  O         30.8660   69.0660    8.2450 O.2    85  GLY85      -0.2714
     68  N         32.9570   68.9050    7.4340 N.am   86  ILE86      -0.1977
     69  CA        32.9030   70.2520    6.8070 C.3    86  ILE86       0.1596
     70  C         31.8180   70.2820    5.7200 C.2    86  ILE86       0.2287
     71  O         31.0670   71.2630    5.6100 O.2    86  ILE86      -0.2864
     72  CB        34.3250   70.7150    6.2660 C.3    86  ILE86       0.0276
     73  CG1       35.3280   70.8500    7.4240 C.3    86  ILE86       0.0022
     74  CG2       34.2520   71.9740    5.4060 C.3    86  ILE86       0.0022
     75  CD1       36.8060   71.0140    6.9290 C.3    86  ILE86       0.0001
     76  N         28.2910   71.5160    6.3990 N.3    89  PHE89      -0.1241
     77  CA        28.0970   72.9760    6.3540 C.3    89  PHE89       0.1605
     78  C         28.0850   73.5320    4.9280 C.2    89  PHE89       0.2264
     79  O         27.2520   74.3860    4.5670 O.2    89  PHE89      -0.2867
     80  CB        29.1100   73.6590    7.2920 C.3    89  PHE89       0.0534
     81  CG        28.8920   73.2680    8.7170 C.ar   89  PHE89      -0.0203
     82  CD1       29.5650   72.1700    9.2690 C.ar   89  PHE89      -0.0042
     83  CD2       27.8990   73.8840    9.4590 C.ar   89  PHE89      -0.0042
     84  CE1       29.2790   71.7620   10.5900 C.ar   89  PHE89      -0.0003
     85  CE2       27.6170   73.4920   10.7710 C.ar   89  PHE89      -0.0003
     86  CZ        28.2940   72.4300   11.3310 C.ar   89  PHE89      -0.0000
     87  N         24.3760   75.1300    4.1080 N.3    93  PHE93      -0.1241
     88  CA        24.2870   76.5600    3.8330 C.3    93  PHE93       0.1605
     89  C         24.3560   76.8650    2.3570 C.2    93  PHE93       0.2264
     90  O         23.7440   77.8420    1.9010 O.2    93  PHE93      -0.2867
     91  CB        25.3150   77.3380    4.6340 C.3    93  PHE93       0.0534
     92  CG        25.0220   77.3280    6.0990 C.ar   93  PHE93      -0.0203
     93  CD1       24.0230   78.1670    6.6340 C.ar   93  PHE93      -0.0042
     94  CD2       25.7190   76.4980    6.9440 C.ar   93  PHE93      -0.0042
     95  CE1       23.7540   78.1720    8.0230 C.ar   93  PHE93      -0.0003
     96  CE2       25.4310   76.4730    8.3290 C.ar   93  PHE93      -0.0003
     97  CZ        24.4500   77.2980    8.8600 C.ar   93  PHE93      -0.0000
     98  N         21.4690   82.3770    4.0380 N.3   100  THR100     -0.1218
     99  CA        22.8600   82.5790    4.4890 C.3   100  THR100      0.1862
    100  C         23.3190   84.0380    4.3270 C.2   100  THR100      0.2287
    101  O         23.7730   84.6730    5.2960 O.2   100  THR100     -0.2866
    102  CB        23.8170   81.6190    3.7390 C.3   100  THR100      0.1770
    103  OG1       23.4580   80.2690    4.0680 O.3   100  THR100     -0.2211
    104  CG2       25.2620   81.8870    4.1440 C.3   100  THR100      0.0375
    105  N         21.0870   86.3220    6.5350 N.3   103  GLY103     -0.1210
    106  CA        21.4190   86.1160    7.9440 C.3   103  GLY103      0.1956
    107  C         22.7330   86.7630    8.3370 C.2   103  GLY103      0.2611
    108  O         22.8410   87.3840    9.4100 O.2   103  GLY103     -0.2717
    109  N         23.7430   86.6250    7.4770 N.am  104  GLN104     -0.1979
    110  CA        25.0530   87.2100    7.7490 C.3   104  GLN104      0.1601
    111  C         24.9350   88.7240    7.8950 C.2   104  GLN104      0.2287
    112  O         25.4230   89.2920    8.8750 O.2   104  GLN104     -0.2864
    113  CB        26.0580   86.8450    6.6550 C.3   104  GLN104      0.0394
    114  CG        27.3890   87.6110    6.6960 C.3   104  GLN104      0.0908
    115  CD        28.1800   87.3760    7.9570 C.2   104  GLN104      0.2608
    116  OE1       28.5920   88.3290    8.6340 O.2   104  GLN104     -0.2717
    117  NE2       28.4070   86.1110    8.2860 N.am  104  GLN104     -0.0878
    118  N         23.3350   89.9890   11.2530 N.3   107  ARG107     -0.1245
    119  CA        24.1050   89.8780   12.4920 C.3   107  ARG107      0.1563
    120  C         24.4060   91.2590   13.0430 C.2   107  ARG107      0.2260
    121  O         24.4480   91.4380   14.2630 O.2   107  ARG107     -0.2867
    122  CB        25.4060   89.0910   12.2890 C.3   107  ARG107      0.0307
    123  CG        25.1710   87.6110   12.0760 C.3   107  ARG107      0.0489
    124  CD        26.4010   86.9130   11.5520 C.3   107  ARG107      0.2205
    125  NE        27.4410   86.8790   12.5630 N.pl3 107  ARG107     -0.0865
    126  CZ        28.6510   86.3560   12.4010 C.cat 107  ARG107      0.5346
    127  NH1       29.0060   85.8050   11.2490 N.pl3 107  ARG107      0.1354
    128  NH2       29.5090   86.3890   13.4080 N.pl3 107  ARG107      0.1354
    129  N         23.6780   82.9250   15.8950 N.3   117  TRP117     -0.1241
    130  CA        24.9060   82.5180   15.2220 C.3   117  TRP117      0.1605
    131  C         26.0180   82.1960   16.2310 C.2   117  TRP117      0.2264
    132  O         26.6510   81.1270   16.1580 O.2   117  TRP117     -0.2867
    133  CB        25.3570   83.5580   14.2120 C.3   117  TRP117      0.0550
    134  CG        26.4390   82.9750   13.3840 C.ar  117  TRP117      0.0003
    135  CD1       27.7380   83.3150   13.4080 C.ar  117  TRP117      0.0946
    136  CD2       26.3180   81.8780   12.4570 C.ar  117  TRP117      0.0152
    137  NE1       28.4530   82.5380   12.5310 N.ar  117  TRP117     -0.2442
    138  CE2       27.6090   81.6520   11.9210 C.ar  117  TRP117      0.0810
    139  CE3       25.2390   81.1050   11.9910 C.ar  117  TRP117      0.0012
    140  CZ2       27.8690   80.6570   10.9550 C.ar  117  TRP117      0.0191
    141  CZ3       25.4860   80.1310   11.0230 C.ar  117  TRP117      0.0001
    142  CH2       26.8050   79.9050   10.5280 C.ar  117  TRP117      0.0015
    143  N         27.9750   78.6240   16.6940 N.3   121  MET121     -0.1245
    144  CA        29.4350   78.6320   16.4960 C.3   121  MET121      0.1570
    145  C         30.1490   78.0700   17.7430 C.2   121  MET121      0.2261
    146  O         31.0570   77.2370   17.6330 O.2   121  MET121     -0.2867
    147  CB        29.9390   80.0300   16.1060 C.3   121  MET121      0.0387
    148  CG        29.6100   80.4280   14.6480 C.3   121  MET121      0.0595
    149  SD        30.3450   79.3550   13.3610 S.3   121  MET121     -0.1393
    150  CE        32.1070   79.8050   13.4410 C.3   121  MET121      0.0692
    151  N         29.7270   74.2390   17.6740 N.3   124  TRP124     -0.1241
    152  CA        30.5150   73.5950   16.6390 C.3   124  TRP124      0.1605
    153  C         31.9810   73.6510   16.9350 C.2   124  TRP124      0.2264
    154  O         32.6570   72.6910   16.7150 O.2   124  TRP124     -0.2867
    155  CB        30.2190   74.2290   15.2950 C.3   124  TRP124      0.0550
    156  CG        28.7510   74.0620   14.9350 C.ar  124  TRP124      0.0003
    157  CD1       27.9380   73.0350   15.3260 C.ar  124  TRP124      0.0946
    158  CD2       27.9450   74.9320   14.1200 C.ar  124  TRP124      0.0152
    159  NE1       26.6760   73.2020   14.8040 N.ar  124  TRP124     -0.2442
    160  CE2       26.6400   74.3570   14.0680 C.ar  124  TRP124      0.0810
    161  CE3       28.1830   76.1480   13.4400 C.ar  124  TRP124      0.0012
    162  CZ2       25.5870   74.9340   13.3340 C.ar  124  TRP124      0.0191
    163  CZ3       27.1300   76.7280   12.7150 C.ar  124  TRP124      0.0001
    164  CH2       25.8380   76.1140   12.6720 C.ar  124  TRP124      0.0015
    165  N         32.5790   71.0470   19.6150 N.3   127  TYR127     -0.1227
    166  CA        32.6210   69.6810   19.0180 C.3   127  TYR127      0.1736
    167  C         33.9700   69.4430   18.2780 C.2   127  TYR127      0.2596
    168  O         34.6150   68.4330   18.4570 O.2   127  TYR127     -0.2718
    169  CB        31.4020   69.3790   18.1200 C.3   127  TYR127      0.0548
    170  CG        31.4220   67.9340   17.6190 C.ar  127  TYR127     -0.0200
    171  CD1       31.4270   66.8590   18.5270 C.ar  127  TYR127     -0.0009
    172  CD2       31.4960   67.6430   16.2540 C.ar  127  TYR127     -0.0009
    173  CE1       31.4730   65.5150   18.0800 C.ar  127  TYR127      0.0417
    174  CE2       31.5300   66.2950   15.7950 C.ar  127  TYR127      0.0417
    175  CZ        31.5310   65.2520   16.7200 C.ar  127  TYR127      0.1957
    176  OH        31.5820   63.9280   16.2810 O.3   127  TYR127     -0.2866
    177  N         34.3900   70.4290   17.5020 N.am  128  THR128     -0.1953
    178  CA        35.6640   70.3640   16.7810 C.3   128  THR128      0.1897
    179  C         36.7920   70.1210   17.7760 C.2   128  THR128      0.2313
    180  O         37.6590   69.2660   17.5570 O.2   128  THR128     -0.2863
    181  CB        35.9350   71.6870   16.0000 C.3   128  THR128      0.1794
    182  OG1       34.9180   71.8880   14.9960 O.3   128  THR128     -0.2208
    183  CG2       37.3190   71.6390   15.3110 C.3   128  THR128      0.0378
    184  N         36.7350   66.5600   19.1560 N.3   131  VAL131     -0.1245
    185  CA        37.2590   65.5990   18.2010 C.3   131  VAL131      0.1561
    186  C         38.7830   65.7020   18.1100 C.2   131  VAL131      0.2260
    187  O         39.4480   64.6940   18.1090 O.2   131  VAL131     -0.2867
    188  CB        36.6270   65.7330   16.7770 C.3   131  VAL131      0.0252
    189  CG1       37.3470   64.8350   15.7710 C.3   131  VAL131      0.0019
    190  CG2       35.0980   65.4300   16.8200 C.3   131  VAL131      0.0019
    191  N         37.1910   77.1500   12.5830 N.3   155  ASN155     -0.1240
    192  CA        35.7630   77.3950   12.4010 C.3   155  ASN155      0.1653
    193  C         35.4720   78.7930   11.8400 C.2   155  ASN155      0.2266
    194  O         34.6150   78.9530   10.9640 O.2   155  ASN155     -0.2867
    195  CB        34.9770   77.1150   13.7270 C.3   155  ASN155      0.1155
    196  CG        34.5650   75.6310   13.8530 C.2   155  ASN155      0.2627
    197  OD1       33.5360   75.2480   13.3260 O.2   155  ASN155     -0.2716
    198  ND2       35.3890   74.8080   14.4720 N.am  155  ASN155     -0.0877
    199  N         36.2410   78.8520    8.2680 N.3   158  ASN158     -0.1225
    200  CA        35.1230   78.2700    7.4780 C.3   158  ASN158      0.1785
    201  C         33.9600   79.2440    7.3170 C.2   158  ASN158      0.2597
    202  O         33.3920   79.3910    6.2160 O.2   158  ASN158     -0.2718
    203  CB        34.6400   76.9740    8.1080 C.3   158  ASN158      0.1169
    204  CG        35.5690   75.8330    7.8470 C.2   158  ASN158      0.2627
    205  OD1       36.7540   76.0260    7.5140 O.2   158  ASN158     -0.2716
    206  ND2       35.0490   74.6140    7.9890 N.am  158  ASN158     -0.0877
    207  N         33.5910   79.8830    8.4280 N.am  159  GLU159     -0.1979
    208  CA        32.4840   80.8400    8.4350 C.3   159  GLU159      0.1602
    209  C         32.7130   81.8610    7.3050 C.2   159  GLU159      0.2287
    210  O         31.8830   81.9870    6.3950 O.2   159  GLU159     -0.2864
    211  CB        32.3700   81.5420    9.7870 C.3   159  GLU159      0.0415
    212  CG        31.3470   82.6930    9.8000 C.3   159  GLU159      0.1163
    213  CD        31.3650   83.4740   11.0810 C.2   159  GLU159      0.3649
    214  OE1       31.1940   82.8940   12.1420 O.co2 159  GLU159     -0.2457
    215  OE2       31.5150   84.6990   11.0460 O.co2 159  GLU159     -0.2457
    216  N         33.5190   79.9820    3.4700 N.3   162  LEU162     -0.1231
    217  CA        32.3150   79.4240    2.8470 C.3   162  LEU162      0.1693
    218  C         31.4170   80.5630    2.3510 C.2   162  LEU162      0.2592
    219  O         30.9260   80.5550    1.1890 O.2   162  LEU162     -0.2718
    220  CB        31.5550   78.5100    3.8350 C.3   162  LEU162      0.0284
    221  CG        32.1830   77.1470    4.1250 C.3   162  LEU162      0.0019
    222  CD1       31.4260   76.4570    5.2520 C.3   162  LEU162      0.0001
    223  CD2       32.2850   76.2720    2.8270 C.3   162  LEU162      0.0001
    224  N         31.2100   81.5380    3.2250 N.am  163  PHE163     -0.1976
    225  CA        30.3550   82.6690    2.9020 C.3   163  PHE163      0.1639
    226  C         30.8350   83.5020    1.6780 C.2   163  PHE163      0.2290
    227  O         30.0380   83.7980    0.7870 O.2   163  PHE163     -0.2864
    228  CB        30.1400   83.5730    4.1120 C.3   163  PHE163      0.0560
    229  CG        29.2420   84.7200    3.8060 C.ar  163  PHE163     -0.0200
    230  CD1       27.8580   84.6100    4.0490 C.ar  163  PHE163     -0.0042
    231  CD2       29.7440   85.8810    3.2010 C.ar  163  PHE163     -0.0042
    232  CE1       26.9930   85.6410    3.7160 C.ar  163  PHE163     -0.0003
    233  CE2       28.8630   86.9280    2.8460 C.ar  163  PHE163     -0.0003
    234  CZ        27.4900   86.8060    3.1160 C.ar  163  PHE163     -0.0000
    235  N         30.1260   81.4100   -1.4120 N.3   166  PHE166     -0.1241
    236  CA        28.6900   81.3340   -1.7480 C.3   166  PHE166      0.1605
    237  C         28.1800   82.6610   -2.2980 C.2   166  PHE166      0.2264
    238  O         27.3600   82.6620   -3.2020 O.2   166  PHE166     -0.2867
    239  CB        27.7940   80.9650   -0.5450 C.3   166  PHE166      0.0534
    240  CG        28.0230   79.6050    0.0320 C.ar  166  PHE166     -0.0203
    241  CD1       27.7630   79.3810    1.3900 C.ar  166  PHE166     -0.0042
    242  CD2       28.4510   78.5310   -0.7580 C.ar  166  PHE166     -0.0042
    243  CE1       27.9320   78.1370    1.9280 C.ar  166  PHE166     -0.0003
    244  CE2       28.6170   77.3110   -0.2190 C.ar  166  PHE166     -0.0003
    245  CZ        28.3700   77.1010    1.1250 C.ar  166  PHE166     -0.0000
    246  N         42.4930   72.3150    7.4790 N.3   186  TRP186     -0.1241
    247  CA        42.1020   71.6300    8.7350 C.3   186  TRP186      0.1605
    248  C         43.0520   70.4340    8.9750 C.2   186  TRP186      0.2264
    249  O         43.6310   70.2760   10.0510 O.2   186  TRP186     -0.2867
    250  CB        40.6320   71.1690    8.6660 C.3   186  TRP186      0.0550
    251  CG        39.6070   72.2130    8.9640 C.ar  186  TRP186      0.0003
    252  CD1       39.4420   73.4250    8.3150 C.ar  186  TRP186      0.0946
    253  CD2       38.5800   72.1600    9.9760 C.ar  186  TRP186      0.0152
    254  NE1       38.3710   74.0970    8.8450 N.ar  186  TRP186     -0.2442
    255  CE2       37.8250   73.3550    9.8660 C.ar  186  TRP186      0.0810
    256  CE3       38.2200   71.2180   10.9620 C.ar  186  TRP186      0.0012
    257  CZ2       36.7690   73.6680   10.7370 C.ar  186  TRP186      0.0191
    258  CZ3       37.1600   71.5190   11.8310 C.ar  186  TRP186      0.0001
    259  CH2       36.4440   72.7410   11.7100 C.ar  186  TRP186      0.0015
@<TRIPOS>BOND
     1   238   237    2
     2   237   236    1
     3   236   235    1
     4   236   239    1
     5   242   244   ar
     6   242   240   ar
     7   239   240    1
     8   244   245   ar
     9   240   241   ar
    10   227   226    2
    11   245   243   ar
    12   219   218    2
    13   241   243   ar
    14   226   225    1
    15    90    89    2
    16   218   217    1
    17   218   224   am
    18    89    88    1
    19   223   221    1
    20   233   234   ar
    21   233   231   ar
    22   217   216    1
    23   217   220    1
    24   225   224    1
    25   225   228    1
    26   234   232   ar
    27   231   229   ar
    28   232   230   ar
    29   102   103    1
    30   102   104    1
    31   102    99    1
    32   229   230   ar
    33   229   228    1
    34    88    87    1
    35    88    91    1
    36   220   221    1
    37    98    99    1
    38   221   222    1
    39   100    99    1
    40   100   101    2
    41    79    78    2
    42    91    92    1
    43    78    77    1
    44    62    61    1
    45    74    72    1
    46    57    58    1
    47    58    61    1
    48    58    59    1
    49    71    70    2
    50    70    69    1
    51    63    61    1
    52    92    93   ar
    53    92    94   ar
    54   202   201    2
    55    72    69    1
    56    72    73    1
    57    60    59    2
    58    77    76    1
    59    77    80    1
    60   210   209    2
    61   105   106    1
    62    59    64   am
    63    93    95   ar
    64   113   114    1
    65   113   110    1
    66   114   115    1
    67    69    68    1
    68    75    73    1
    69    94    96   ar
    70    45    46    2
    71    45    44    1
    72    35    36    1
    73    80    81    1
    74   209   208    1
    75   201   200    1
    76   201   207   am
    77    68    66   am
    78   109   110    1
    79   109   107   am
    80   200   203    1
    81   200   199    1
    82   246   247    1
    83   205   204    2
    84    64    65    1
    85   110   111    1
    86   204   206   am
    87   204   203    1
    88   111   112    2
    89   106   107    1
    90   115   117   am
    91   115   116    2
    92    95    97   ar
    93    66    67    2
    94    66    65    1
    95   252   254   ar
    96   252   251   ar
    97    96    97   ar
    98   107   108    2
    99    43    44    1
   100    43    37   am
   101   207   208    1
   102   208   211    1
   103    44    47    1
   104    36    37    1
   105    36    39    1
   106    37    38    2
   107    47    48    1
   108   250   247    1
   109   250   251    1
   110    81    82   ar
   111    81    83   ar
   112   247   248    1
   113   254   255   ar
   114   251   253   ar
   115   248   249    2
   116    24    22    1
   117    23    22    1
   118     8     6    1
   119    82    84   ar
   120    33    32    2
   121     1     2    1
   122    32    31    1
   123    83    85   ar
   124    22    21    1
   125     2     5    1
   126     2     3    1
   127    31    34    1
   128    31    30    1
   129    39    40    2
   130   211   212    1
   131   212   213    1
   132   255   253   ar
   133   255   257   ar
   134    48    49   ar
   135    48    50   ar
   136   253   256   ar
   137     5     6    1
   138    49    51   ar
   139     6     7    1
   140   142   140   ar
   141   142   141   ar
   142    84    86   ar
   143   257   259   ar
   144     4     3    2
   145    85    86   ar
   146   140   138   ar
   147   256   258   ar
   148   194   193    2
   149    21    18    1
   150   141   139   ar
   151   215   213   ar
   152    40    41    1
   153   213   214   ar
   154    50    53   ar
   155    50    52   ar
   156   127   126    1
   157   118   119    1
   158    51    52   ar
   159     9    10    1
   160   124   123    1
   161   124   125    1
   162    53    55   ar
   163    18    17    1
   164    18    19    1
   165   259   258   ar
   166   193   192    1
   167   138   136   ar
   168   138   137   ar
   169   139   136   ar
   170   123   122    1
   171    52    54   ar
   172    10    13    1
   173    10    11    1
   174   122   119    1
   175    15    14    1
   176   126   125    2
   177   126   128    1
   178   192   191    1
   179   192   195    1
   180   136   134   ar
   181   119   120    1
   182   137   135   ar
   183    41    42    1
   184   164   163   ar
   185   164   162   ar
   186   163   161   ar
   187    13    14    1
   188    19    20    2
   189    19    25   am
   190    55    56   ar
   191   120   121    2
   192   197   196    2
   193   162   160   ar
   194    11    12    2
   195   149   150    1
   196   149   148    1
   197   134   135   ar
   198   134   133    1
   199    14    16    1
   200   161   158   ar
   201    54    56   ar
   202   195   196    1
   203   196   198   am
   204    25    26    1
   205   160   158   ar
   206   160   159   ar
   207   158   156   ar
   208   133   130    1
   209   148   147    1
   210   159   157   ar
   211   156   155    1
   212   156   157   ar
   213   182   181    1
   214   130   129    1
   215   130   131    1
   216    26    27    1
   217    26    29    1
   218   155   152    1
   219   183   181    1
   220   189   188    1
   221   174   172   ar
   222   174   175   ar
   223    27    28    2
   224   181   178    1
   225   147   144    1
   226   132   131    2
   227   172   170   ar
   228   176   175    1
   229   144   143    1
   230   144   145    1
   231   152   153    1
   232   152   151    1
   233   154   153    2
   234   175   173   ar
   235   188   190    1
   236   188   185    1
   237   178   177    1
   238   178   179    1
   239   177   167   am
   240   180   179    2
   241   170   169    1
   242   170   171   ar
   243   146   145    2
   244   173   171   ar
   245   187   186    2
   246   186   185    1
   247   169   166    1
   248   185   184    1
   249   167   168    2
   250   167   166    1
   251   166   165    1
