@<TRIPOS>MOLECULE
tmp/3o8iA00.pdb
 93 86 0 0 0
SMALL
GASTEIGER

@<TRIPOS>ATOM
      1  N        -24.7960  -20.9280   -3.6830 N.3    45  ASN45      -0.1240
      2  CA       -23.7840  -19.9190   -3.3960 C.3    45  ASN45       0.1653
      3  C        -24.2830  -18.4890   -3.7200 C.2    45  ASN45       0.2266
      4  O        -23.9720  -17.5730   -2.9880 O.2    45  ASN45      -0.2867
      5  CB       -22.4640  -20.2720   -4.0910 C.3    45  ASN45       0.1155
      6  CG       -21.6600  -21.3640   -3.3350 C.2    45  ASN45       0.2627
      7  OD1      -21.3980  -21.2390   -2.1510 O.2    45  ASN45      -0.2716
      8  ND2      -21.2320  -22.4130   -4.0450 N.am   45  ASN45      -0.0877
      9  N        -26.5660  -17.5010   -0.7250 N.3    48  SER48      -0.1217
     10  CA       -25.7320  -17.1900    0.4460 C.3    48  SER48       0.1889
     11  C        -25.0320  -15.8130    0.3070 C.2    48  SER48       0.2288
     12  O        -25.0580  -14.9950    1.2470 O.2    48  SER48      -0.2866
     13  CB       -24.6630  -18.2990    0.6470 C.3    48  SER48       0.2089
     14  OG       -23.9420  -18.0730    1.8390 O.3    48  SER48      -0.2183
     15  N        -25.1430  -27.7040    3.9330 N.3   112  PHE112     -0.1241
     16  CA       -25.0100  -26.2580    3.5710 C.3   112  PHE112      0.1605
     17  C        -26.1930  -25.4780    4.2350 C.2   112  PHE112      0.2264
     18  O        -26.0130  -24.4130    4.8320 O.2   112  PHE112     -0.2867
     19  CB       -24.9840  -26.1070    2.0130 C.3   112  PHE112      0.0534
     20  CG       -24.7180  -24.6890    1.4880 C.ar  112  PHE112     -0.0203
     21  CD1      -25.7340  -23.7160    1.5040 C.ar  112  PHE112     -0.0042
     22  CD2      -23.4930  -24.3580    0.9130 C.ar  112  PHE112     -0.0042
     23  CE1      -25.5330  -22.3920    0.9930 C.ar  112  PHE112     -0.0003
     24  CE2      -23.2600  -23.0260    0.3830 C.ar  112  PHE112     -0.0003
     25  CZ       -24.2700  -22.0420    0.4500 C.ar  112  PHE112     -0.0000
     26  N        -25.9630  -25.4160    8.2330 N.3   115  LYS115     -0.1231
     27  CA       -24.9850  -24.3520    8.5610 C.3   115  LYS115      0.1693
     28  C        -25.6260  -22.9060    8.4580 C.2   115  LYS115      0.2595
     29  O        -25.4680  -22.0840    9.3820 O.2   115  LYS115     -0.2718
     30  CB       -23.7370  -24.4270    7.6410 C.3   115  LYS115      0.0285
     31  CG       -22.6060  -23.3220    8.0140 C.3   115  LYS115      0.0035
     32  CD       -21.4580  -23.3480    6.9570 C.3   115  LYS115      0.0206
     33  CE       -20.5620  -22.1270    7.0020 C.3   115  LYS115      0.1093
     34  NZ       -21.2260  -20.7970    6.6680 N.3   115  LYS115     -0.1314
     35  N        -26.3160  -22.6250    7.3480 N.am  116  MET116     -0.1934
     36  CA       -27.0280  -21.3290    7.1650 C.3   116  MET116      0.1821
     37  C        -28.0100  -21.0950    8.3290 C.2   116  MET116      0.2332
     38  O        -28.0730  -19.9910    8.8790 O.2   116  MET116     -0.2860
     39  CB       -27.7740  -21.2980    5.8150 C.2   116  MET116      0.0096
     40  CG       -27.8600  -19.9440    5.1370 C.2   116  MET116      0.0285
     41  SD       -28.5860  -19.9190    3.4500 S.3   116  MET116     -0.1125
     42  CE       -27.5270  -21.1240    2.6800 C.3   116  MET116      0.0742
     43  N        -26.1640  -20.0570   11.3670 N.3   119  ASP119     -0.1239
     44  CA       -25.5460  -18.6720   11.1990 C.3   119  ASP119      0.1674
     45  C        -26.5930  -17.5790   11.4630 C.2   119  ASP119      0.2266
     46  O        -26.3070  -16.5830   12.1640 O.2   119  ASP119     -0.2867
     47  CB       -24.9200  -18.4310    9.7920 C.3   119  ASP119      0.1410
     48  CG       -23.6350  -19.2490    9.5410 C.2   119  ASP119      0.3668
     49  OD1      -22.9510  -19.5780   10.5190 O.co2 119  ASP119     -0.2456
     50  OD2      -23.2640  -19.5100    8.3700 O.co2 119  ASP119     -0.2456
     51  N        -14.5750  -27.7960    1.9480 N.3   157  PRO157     -0.2102
     52  CA       -14.6510  -26.4180    2.4290 C.3   157  PRO157      0.1504
     53  C        -15.9590  -26.0620    3.1770 C.2   157  PRO157      0.2575
     54  O        -15.9290  -25.1510    4.0200 O.2   157  PRO157     -0.2718
     55  CB       -14.4590  -25.5600    1.1600 C.3   157  PRO157      0.0282
     56  CG       -13.8610  -26.5790    0.0710 C.3   157  PRO157      0.0208
     57  CD       -14.5050  -27.8780    0.4690 C.3   157  PRO157      0.0893
     58  N        -17.0770  -26.7270    2.8790 N.am  158  ILE158     -0.1980
     59  CA       -18.3190  -26.4630    3.6630 C.3   158  ILE158      0.1595
     60  C        -18.1710  -27.0910    5.0830 C.2   158  ILE158      0.2287
     61  O        -18.5600  -26.4680    6.0690 O.2   158  ILE158     -0.2864
     62  CB       -19.6230  -26.9560    2.9360 C.3   158  ILE158      0.0276
     63  CG1      -19.7480  -26.3310    1.5140 C.3   158  ILE158      0.0022
     64  CG2      -20.9270  -26.6390    3.7690 C.3   158  ILE158      0.0022
     65  CD1      -19.7590  -24.7620    1.4630 C.3   158  ILE158      0.0001
     66  N        -15.8630  -24.6850    6.9000 N.3   161  GLY161     -0.1225
     67  CA       -16.4810  -23.3690    7.2090 C.3   161  GLY161      0.1811
     68  C        -17.5060  -23.5500    8.3370 C.2   161  GLY161      0.2280
     69  O        -17.6760  -22.6780    9.2040 O.2   161  GLY161     -0.2866
     70  N         -8.8880  -24.3690   -2.1250 N.3   202  ASP202     -0.1239
     71  CA       -10.1160  -24.0340   -1.3790 C.3   202  ASP202      0.1674
     72  C         -9.9440  -24.2130    0.1710 C.2   202  ASP202      0.2266
     73  O        -10.2650  -23.3220    0.9610 O.2   202  ASP202     -0.2867
     74  CB       -11.3150  -24.8380   -1.8900 C.3   202  ASP202      0.1410
     75  CG       -11.6820  -24.5200   -3.3410 C.2   202  ASP202      0.3668
     76  OD1      -11.4690  -23.3710   -3.8330 O.co2 202  ASP202     -0.2456
     77  OD2      -12.2240  -25.4430   -3.9880 O.co2 202  ASP202     -0.2456
     78  N         -7.5390  -21.8060    2.6840 N.3   205  LEU205     -0.1231
     79  CA        -7.9780  -20.4480    3.0650 C.3   205  LEU205      0.1693
     80  C         -8.7050  -20.4380    4.4370 C.2   205  LEU205      0.2591
     81  O         -8.3680  -19.6890    5.3200 O.2   205  LEU205     -0.2718
     82  CB        -8.7990  -19.7380    1.9330 C.3   205  LEU205      0.0284
     83  CG        -9.1990  -18.2990    2.3700 C.3   205  LEU205      0.0019
     84  CD1       -8.1120  -17.5800    3.2970 C.3   205  LEU205      0.0001
     85  CD2       -9.7490  -17.3440    1.2010 C.3   205  LEU205      0.0001
     86  N         -9.6310  -21.3530    4.6420 N.am  206  ILE206     -0.1980
     87  CA       -10.3370  -21.4830    5.9310 C.3   206  ILE206      0.1595
     88  C         -9.4290  -21.9890    7.0620 C.2   206  ILE206      0.2287
     89  O         -9.5500  -21.5430    8.1970 O.2   206  ILE206     -0.2864
     90  CB       -11.5910  -22.3380    5.7260 C.3   206  ILE206      0.0276
     91  CG1      -12.5050  -21.6150    4.7230 C.3   206  ILE206      0.0022
     92  CG2      -12.3970  -22.5300    7.0730 C.3   206  ILE206      0.0022
     93  CD1      -13.3280  -22.5270    3.8850 C.3   206  ILE206      0.0001
@<TRIPOS>BOND
     1     5     2    1
     2     5     6    1
     3     8     6   am
     4    77    75   ar
     5    76    75   ar
     6     3     2    1
     7     3     4    2
     8     1     2    1
     9    75    74    1
    10     6     7    2
    11    70    71    1
    12    74    71    1
    13    71    72    1
    14     9    10    1
    15    56    57    1
    16    56    55    1
    17    72    73    2
    18    11    10    1
    19    11    12    2
    20    24    25   ar
    21    24    22   ar
    22    10    13    1
    23    25    23   ar
    24    57    51    1
    25    13    14    1
    26    22    20   ar
    27    23    21   ar
    28    55    52    1
    29    85    83    1
    30    65    63    1
    31    20    21   ar
    32    20    19    1
    33    63    62    1
    34    82    83    1
    35    82    79    1
    36    51    52    1
    37    19    16    1
    38    83    84    1
    39    52    53    1
    40    42    41    1
    41    78    79    1
    42    58    53   am
    43    58    59    1
    44    62    59    1
    45    62    64    1
    46    79    80    1
    47    53    54    2
    48    41    40    1
    49    16    15    1
    50    16    17    1
    51    59    60    1
    52    93    91    1
    53    17    18    2
    54    80    86   am
    55    80    81    2
    56    86    87    1
    57    91    90    1
    58    60    61    2
    59    40    39    2
    60    90    87    1
    61    90    92    1
    62    39    36    1
    63    87    88    1
    64    34    33    1
    65    66    67    1
    66    32    33    1
    67    32    31    1
    68    88    89    2
    69    36    35    1
    70    36    37    1
    71    67    68    1
    72    35    28   am
    73    30    31    1
    74    30    27    1
    75    26    27    1
    76    37    38    2
    77    68    69    2
    78    50    48   ar
    79    28    27    1
    80    28    29    2
    81    48    47    1
    82    48    49   ar
    83    47    44    1
    84    44    43    1
    85    44    45    1
    86    45    46    2
