@<TRIPOS>MOLECULE
tmp/3o8lA01.pdb
 185 175 0 0 0
SMALL
GASTEIGER

@<TRIPOS>ATOM
      1  N         59.6620  -44.6010   44.7020 N.3   159  ASN159     -0.1240
      2  CA        59.7000  -44.3440   46.1430 C.3   159  ASN159      0.1653
      3  C         60.9170  -43.4830   46.4150 C.2   159  ASN159      0.2266
      4  O         61.4590  -43.4580   47.5240 O.2   159  ASN159     -0.2867
      5  CB        59.7710  -45.6540   46.9320 C.3   159  ASN159      0.1155
      6  CG        59.0450  -45.5720   48.2680 C.2   159  ASN159      0.2627
      7  OD1       57.9520  -45.0060   48.3630 O.2   159  ASN159     -0.2716
      8  ND2       59.6400  -46.1570   49.3010 N.am  159  ASN159     -0.0877
      9  N         57.0730  -41.0150   53.3860 N.3   165  ASP165     -0.1225
     10  CA        57.4140  -42.3840   53.7730 C.3   165  ASP165      0.1805
     11  C         57.1290  -43.4150   52.6820 C.2   165  ASP165      0.2597
     12  O         57.8010  -44.4490   52.6120 O.2   165  ASP165     -0.2718
     13  CB        56.6590  -42.7620   55.0630 C.3   165  ASP165      0.1424
     14  CG        57.4030  -42.3490   56.3370 C.2   165  ASP165      0.3668
     15  OD1       58.1330  -41.3280   56.3260 O.co2 165  ASP165     -0.2456
     16  OD2       57.2430  -43.0490   57.3620 O.co2 165  ASP165     -0.2456
     17  N         56.1140  -43.1310   51.8660 N.am  166  MET166     -0.1979
     18  CA        55.7120  -43.9820   50.7540 C.3   166  MET166      0.1605
     19  C         55.1400  -43.1560   49.6240 C.2   166  MET166      0.2287
     20  O         54.5520  -42.0910   49.8330 O.2   166  MET166     -0.2864
     21  CB        54.6490  -44.9850   51.1750 C.3   166  MET166      0.0413
     22  CG        55.1930  -46.1970   51.8780 C.3   166  MET166      0.0598
     23  SD        56.4600  -47.1360   50.9540 S.3   166  MET166     -0.1393
     24  CE        55.6620  -48.7730   50.7560 C.3   166  MET166      0.0692
     25  N         54.0190  -50.2030   46.5960 N.3   171  ASP171     -0.1239
     26  CA        53.6550  -51.4640   47.2480 C.3   171  ASP171      0.1674
     27  C         53.1820  -52.4470   46.1850 C.2   171  ASP171      0.2266
     28  O         53.5380  -53.6250   46.2170 O.2   171  ASP171     -0.2867
     29  CB        52.5510  -51.2950   48.3120 C.3   171  ASP171      0.1410
     30  CG        52.3860  -52.5630   49.2000 C.2   171  ASP171      0.3668
     31  OD1       53.3140  -52.8910   49.9860 O.co2 171  ASP171     -0.2456
     32  OD2       51.3370  -53.2450   49.1150 O.co2 171  ASP171     -0.2456
     33  N         65.7570  -48.5040   46.4740 N.3   206  TYR206     -0.1241
     34  CA        64.6360  -49.0040   47.2440 C.3   206  TYR206      0.1605
     35  C         64.0870  -50.3690   46.7910 C.2   206  TYR206      0.2264
     36  O         64.5070  -51.4010   47.3280 O.2   206  TYR206     -0.2867
     37  CB        63.5150  -47.9810   47.2690 C.3   206  TYR206      0.0534
     38  CG        62.4650  -48.3740   48.2600 C.ar  206  TYR206     -0.0201
     39  CD1       62.7650  -48.4720   49.6110 C.ar  206  TYR206     -0.0009
     40  CD2       61.1830  -48.7090   47.8490 C.ar  206  TYR206     -0.0009
     41  CE1       61.8200  -48.8950   50.5220 C.ar  206  TYR206      0.0417
     42  CE2       60.2310  -49.1330   48.7590 C.ar  206  TYR206      0.0417
     43  CZ        60.5640  -49.2240   50.0890 C.ar  206  TYR206      0.1957
     44  OH        59.6330  -49.6740   50.9750 O.3   206  TYR206     -0.2866
     45  N         64.4920  -53.8680   49.1120 N.3   210  VAL210     -0.1245
     46  CA        63.2590  -54.3800   49.6980 C.3   210  VAL210      0.1561
     47  C         62.8020  -55.7140   49.1190 C.2   210  VAL210      0.2260
     48  O         62.2250  -56.5750   49.8150 O.2   210  VAL210     -0.2867
     49  CB        62.1760  -53.3960   49.4640 C.3   210  VAL210      0.0252
     50  CG1       61.0020  -53.7160   50.3510 C.3   210  VAL210      0.0019
     51  CG2       62.7070  -52.0090   49.7120 C.3   210  VAL210      0.0019
     52  N         47.0510  -51.4650   50.0520 N.3   300  PHE300     -0.1241
     53  CA        47.7210  -50.2970   50.5790 C.3   300  PHE300      0.1605
     54  C         47.6880  -49.0980   49.6400 C.2   300  PHE300      0.2264
     55  O         47.3670  -47.9780   50.0580 O.2   300  PHE300     -0.2867
     56  CB        49.1750  -50.5820   50.9400 C.3   300  PHE300      0.0534
     57  CG        49.9140  -49.3510   51.3830 C.ar  300  PHE300     -0.0203
     58  CD1       49.4830  -48.6260   52.4840 C.ar  300  PHE300     -0.0042
     59  CD2       50.9750  -48.8550   50.6530 C.ar  300  PHE300     -0.0042
     60  CE1       50.0930  -47.4120   52.8500 C.ar  300  PHE300     -0.0003
     61  CE2       51.5930  -47.6360   51.0180 C.ar  300  PHE300     -0.0003
     62  CZ        51.1430  -46.9200   52.1170 C.ar  300  PHE300     -0.0000
     63  N         52.5750  -39.0780   53.6410 N.3   330  LEU330     -0.1245
     64  CA        52.5120  -39.9010   54.8370 C.3   330  LEU330      0.1561
     65  C         53.8370  -39.8550   55.5670 C.2   330  LEU330      0.2260
     66  O         54.8750  -39.7230   54.9440 O.2   330  LEU330     -0.2867
     67  CB        52.2510  -41.3470   54.4330 C.3   330  LEU330      0.0270
     68  CG        51.5530  -42.3010   55.3940 C.3   330  LEU330      0.0019
     69  CD1       50.0680  -42.0860   55.1920 C.3   330  LEU330      0.0001
     70  CD2       51.9080  -43.7560   55.1040 C.3   330  LEU330      0.0001
     71  N         55.1490  -41.4570   59.6450 N.3   332  GLY332     -0.1210
     72  CA        54.7660  -41.9200   60.9550 C.3   332  GLY332      0.1956
     73  C         53.3070  -42.2910   60.8840 C.2   332  GLY332      0.2611
     74  O         52.5880  -42.1760   61.8650 O.2   332  GLY332     -0.2717
     75  N         52.8720  -42.6920   59.6930 N.am  333  ASN333     -0.1974
     76  CA        51.4990  -43.1370   59.4470 C.3   333  ASN333      0.1688
     77  C         50.3860  -42.0700   59.5470 C.2   333  ASN333      0.2292
     78  O         49.2330  -42.4250   59.7520 O.2   333  ASN333     -0.2864
     79  CB        51.2040  -44.3370   60.3740 C.3   333  ASN333      0.1181
     80  CG        50.1130  -45.2540   59.8400 C.2   333  ASN333      0.2629
     81  OD1       50.1740  -45.7150   58.7090 O.2   333  ASN333     -0.2716
     82  ND2       49.1200  -45.5370   60.6710 N.am  333  ASN333     -0.0877
     83  N         65.5410  -45.8280   57.8570 N.3   369  SER369     -0.1202
     84  CA        65.0860  -47.1770   57.6190 C.3   369  SER369      0.2020
     85  C         65.8830  -47.7660   56.4720 C.2   369  SER369      0.2618
     86  O         66.4400  -48.8570   56.5790 O.2   369  SER369     -0.2717
     87  CB        63.6340  -47.0730   57.2390 C.3   369  SER369      0.2103
     88  OG        63.4840  -45.8650   56.5010 O.3   369  SER369     -0.2182
     89  N         65.9120  -47.0350   55.3610 N.am  370  PHE370     -0.1975
     90  CA        66.6500  -47.4670   54.1790 C.3   370  PHE370      0.1639
     91  C         67.9280  -48.1150   54.6450 C.2   370  PHE370      0.2290
     92  O         68.1170  -49.3310   54.5280 O.2   370  PHE370     -0.2864
     93  CB        66.9960  -46.2700   53.2850 C.3   370  PHE370      0.0560
     94  CG        67.7310  -46.6560   52.0340 C.ar  370  PHE370     -0.0200
     95  CD1       67.1700  -47.5540   51.1330 C.ar  370  PHE370     -0.0042
     96  CD2       68.9940  -46.1750   51.7790 C.ar  370  PHE370     -0.0042
     97  CE1       67.8580  -47.9680   50.0120 C.ar  370  PHE370     -0.0003
     98  CE2       69.6870  -46.5840   50.6540 C.ar  370  PHE370     -0.0003
     99  CZ        69.1170  -47.4830   49.7750 C.ar  370  PHE370     -0.0000
    100  N         67.4480  -51.3900   56.4190 N.3   373  ASN373     -0.1240
    101  CA        67.1270  -52.5160   55.5290 C.3   373  ASN373      0.1653
    102  C         68.4200  -53.0410   54.9540 C.2   373  ASN373      0.2266
    103  O         68.6660  -54.2520   54.9120 O.2   373  ASN373     -0.2867
    104  CB        66.2840  -52.0580   54.3530 C.3   373  ASN373      0.1155
    105  CG        64.8800  -51.7110   54.7360 C.2   373  ASN373      0.2627
    106  OD1       64.2270  -52.4660   55.4420 O.2   373  ASN373     -0.2716
    107  ND2       64.3850  -50.5710   54.2410 N.am  373  ASN373     -0.0877
    108  N         50.3090  -51.3300   63.5000 N.3   530  PHE530     -0.1241
    109  CA        50.1470  -52.4890   62.6260 C.3   530  PHE530      0.1605
    110  C         50.6480  -53.7640   63.2720 C.2   530  PHE530      0.2264
    111  O         51.4210  -53.7220   64.1960 O.2   530  PHE530     -0.2867
    112  CB        50.9320  -52.3170   61.3370 C.3   530  PHE530      0.0534
    113  CG        50.6700  -51.0350   60.6550 C.ar  530  PHE530     -0.0203
    114  CD1       51.5850  -50.0030   60.7290 C.ar  530  PHE530     -0.0042
    115  CD2       49.4420  -50.8090   60.0390 C.ar  530  PHE530     -0.0042
    116  CE1       51.2710  -48.7510   60.2130 C.ar  530  PHE530     -0.0003
    117  CE2       49.1150  -49.5580   59.5190 C.ar  530  PHE530     -0.0003
    118  CZ        50.0260  -48.5230   59.6090 C.ar  530  PHE530     -0.0000
    119  N         48.0500  -56.7960   56.5130 N.3   535  ASP535     -0.1239
    120  CA        48.1740  -56.4740   55.0900 C.3   535  ASP535      0.1674
    121  C         47.8190  -57.7100   54.2790 C.2   535  ASP535      0.2266
    122  O         46.9500  -57.6660   53.4180 O.2   535  ASP535     -0.2867
    123  CB        49.5980  -56.0850   54.7610 C.3   535  ASP535      0.1410
    124  CG        49.7260  -55.4970   53.3900 C.2   535  ASP535      0.3668
    125  OD1       49.0790  -54.4560   53.1460 O.co2 535  ASP535     -0.2456
    126  OD2       50.4710  -56.0630   52.5630 O.co2 535  ASP535     -0.2456
    127  N         39.3410  -53.3160   62.0480 N.3   571  TYR571     -0.1241
    128  CA        40.4250  -52.8400   61.1970 C.3   571  TYR571      0.1605
    129  C         40.2300  -53.2940   59.7690 C.2   571  TYR571      0.2264
    130  O         40.1140  -52.4630   58.8830 O.2   571  TYR571     -0.2867
    131  CB        41.7680  -53.3260   61.7200 C.3   571  TYR571      0.0534
    132  CG        42.9370  -52.8780   60.8930 C.ar  571  TYR571     -0.0201
    133  CD1       43.3280  -51.5550   60.8680 C.ar  571  TYR571     -0.0009
    134  CD2       43.5960  -53.7780   60.0770 C.ar  571  TYR571     -0.0009
    135  CE1       44.3360  -51.1330   60.0420 C.ar  571  TYR571      0.0417
    136  CE2       44.6020  -53.3770   59.2500 C.ar  571  TYR571      0.0417
    137  CZ        44.9700  -52.0600   59.2250 C.ar  571  TYR571      0.1957
    138  OH        45.9580  -51.6940   58.3390 O.3   571  TYR571     -0.2866
    139  N         55.2310  -56.5810   52.3100 N.3   663  PHE663     -0.1241
    140  CA        55.2250  -55.7460   53.5150 C.3   663  PHE663      0.1605
    141  C         55.2160  -56.5100   54.8230 C.2   663  PHE663      0.2264
    142  O         55.7930  -56.0550   55.7940 O.2   663  PHE663     -0.2867
    143  CB        54.0420  -54.7990   53.5500 C.3   663  PHE663      0.0534
    144  CG        53.8880  -54.0960   54.8620 C.ar  663  PHE663     -0.0203
    145  CD1       54.5830  -52.9350   55.1260 C.ar  663  PHE663     -0.0042
    146  CD2       53.0520  -54.6080   55.8450 C.ar  663  PHE663     -0.0042
    147  CE1       54.4440  -52.2840   56.3470 C.ar  663  PHE663     -0.0003
    148  CE2       52.9060  -53.9660   57.0690 C.ar  663  PHE663     -0.0003
    149  CZ        53.6060  -52.7980   57.3150 C.ar  663  PHE663     -0.0000
    150  N         58.7030  -57.8910   55.2420 N.3   666  ASN666     -0.1225
    151  CA        59.6900  -56.9220   55.6600 C.3   666  ASN666      0.1785
    152  C         59.4360  -56.6510   57.1220 C.2   666  ASN666      0.2597
    153  O         60.3160  -56.8410   57.9650 O.2   666  ASN666     -0.2718
    154  CB        59.5730  -55.6550   54.8460 C.3   666  ASN666      0.1169
    155  CG        60.6520  -55.5620   53.8090 C.2   666  ASN666      0.2627
    156  OD1       60.9300  -56.5360   53.0930 O.2   666  ASN666     -0.2716
    157  ND2       61.2860  -54.3930   53.7220 N.am  666  ASN666     -0.0877
    158  N         58.2090  -56.2390   57.4190 N.am  667  PHE667     -0.1976
    159  CA        57.7950  -55.9530   58.7850 C.3   667  PHE667      0.1639
    160  C         58.2090  -57.0840   59.6970 C.2   667  PHE667      0.2290
    161  O         58.8610  -56.8630   60.6620 O.2   667  PHE667     -0.2864
    162  CB        56.2870  -55.7760   58.8450 C.3   667  PHE667      0.0560
    163  CG        55.8050  -55.0870   60.0690 C.ar  667  PHE667     -0.0200
    164  CD1       54.5460  -55.3890   60.5930 C.ar  667  PHE667     -0.0042
    165  CD2       56.5680  -54.1040   60.6690 C.ar  667  PHE667     -0.0042
    166  CE1       54.0420  -54.7290   61.6870 C.ar  667  PHE667     -0.0003
    167  CE2       56.0790  -53.4270   61.7710 C.ar  667  PHE667     -0.0003
    168  CZ        54.8060  -53.7420   62.2820 C.ar  667  PHE667     -0.0000
    169  N         62.2520  -57.0650   59.8760 N.3   670  LYS670     -0.1245
    170  CA        62.8160  -55.8930   60.5360 C.3   670  LYS670      0.1561
    171  C         62.6940  -55.9270   62.0540 C.2   670  LYS670      0.2260
    172  O         63.6510  -55.6290   62.7510 O.2   670  LYS670     -0.2867
    173  CB        62.1660  -54.6350   59.9670 C.3   670  LYS670      0.0271
    174  CG        62.5210  -53.3960   60.7140 C.3   670  LYS670      0.0035
    175  CD        62.2160  -52.1490   59.9110 C.3   670  LYS670      0.0206
    176  CE        63.2250  -51.9380   58.7780 C.3   670  LYS670      0.1093
    177  NZ        63.2890  -50.4930   58.3530 N.3   670  LYS670     -0.1314
    178  N         54.6160  -50.4500   66.2980 N.3   705  MET705     -0.1245
    179  CA        54.6930  -49.2390   65.5060 C.3   705  MET705      0.1570
    180  C         53.9040  -48.1600   66.2170 C.2   705  MET705      0.2261
    181  O         52.7490  -48.3740   66.5370 O.2   705  MET705     -0.2867
    182  CB        54.0910  -49.4900   64.1200 C.3   705  MET705      0.0387
    183  CG        55.0370  -50.0750   63.0790 C.3   705  MET705      0.0595
    184  SD        56.2820  -48.8790   62.5710 S.3   705  MET705     -0.1393
    185  CE        55.3400  -47.3210   62.6450 C.3   705  MET705      0.0692
@<TRIPOS>BOND
     1     1     2    1
     2     2     3    1
     3     2     5    1
     4    27    28    2
     5    27    26    1
     6     3     4    2
     7    33    34    1
     8    25    26    1
     9    35    34    1
    10    35    36    2
    11     5     6    1
    12    34    37    1
    13    26    29    1
    14    37    38    1
    15    40    38   ar
    16    40    42   ar
    17    38    39   ar
    18     6     7    2
    19     6     8   am
    20    29    30    1
    21    42    43   ar
    22    45    46    1
    23    32    30   ar
    24    47    46    1
    25    47    48    2
    26    30    31   ar
    27    49    46    1
    28    49    51    1
    29    49    50    1
    30    39    41   ar
    31    19    20    2
    32    19    18    1
    33    54    55    2
    34    54    53    1
    35    99    97   ar
    36    99    98   ar
    37    97    95   ar
    38    52    53    1
    39    43    41   ar
    40    43    44    1
    41    53    56    1
    42    59    61   ar
    43    59    57   ar
    44    98    96   ar
    45    18    21    1
    46    18    17    1
    47    24    23    1
    48    56    57    1
    49    23    22    1
    50    61    62   ar
    51    95    94   ar
    52    21    22    1
    53    57    58   ar
    54    96    94   ar
    55    17    11   am
    56    94    93    1
    57    62    60   ar
    58   139   140    1
    59    58    60   ar
    60   126   124   ar
    61    12    11    2
    62    11    10    1
    63   156   155    2
    64   125   124   ar
    65    93    90    1
    66     9    10    1
    67   124   123    1
    68   122   121    2
    69   140   143    1
    70   140   141    1
    71   143   144    1
    72    63    64    1
    73   157   155   am
    74    10    13    1
    75   155   154    1
    76    90    91    1
    77    90    89    1
    78   107   105   am
    79   121   120    1
    80   104   105    1
    81   104   101    1
    82    67    64    1
    83    67    68    1
    84    92    91    2
    85   105   106    2
    86   123   120    1
    87   141   142    2
    88    64    65    1
    89   154   151    1
    90   144   145   ar
    91   144   146   ar
    92   103   102    2
    93    66    65    2
    94   102   101    1
    95    13    14    1
    96   120   119    1
    97    70    68    1
    98   145   147   ar
    99    69    68    1
   100   150   151    1
   101    89    85   am
   102   101   100    1
   103   151   152    1
   104   146   148   ar
   105    15    14   ar
   106    14    16   ar
   107   147   149   ar
   108    85    86    2
   109    85    84    1
   110    88    87    1
   111   148   149   ar
   112   152   158   am
   113   152   153    2
   114    87    84    1
   115   158   159    1
   116    84    83    1
   117   138   137    1
   118   177   176    1
   119    81    80    2
   120   176   175    1
   121   159   162    1
   122   159   160    1
   123   162   163    1
   124   130   129    2
   125   137   136   ar
   126   137   135   ar
   127   136   134   ar
   128    76    77    1
   129    76    75    1
   130    76    79    1
   131   117   118   ar
   132   117   115   ar
   133    77    78    2
   134   118   116   ar
   135    71    72    1
   136    75    73   am
   137   160   161    2
   138   129   128    1
   139    80    79    1
   140    80    82   am
   141   169   170    1
   142   175   174    1
   143   173   170    1
   144   173   174    1
   145   115   113   ar
   146   135   133   ar
   147   163   164   ar
   148   163   165   ar
   149   134   132   ar
   150   116   114   ar
   151   170   171    1
   152   164   166   ar
   153   113   114   ar
   154   113   112    1
   155   165   167   ar
   156   133   132   ar
   157    73    72    1
   158    73    74    2
   159   132   131    1
   160   128   131    1
   161   128   127    1
   162   112   109    1
   163   166   168   ar
   164   167   168   ar
   165   171   172    2
   166   184   185    1
   167   184   183    1
   168   109   110    1
   169   109   108    1
   170   183   182    1
   171   110   111    2
   172   182   179    1
   173   179   180    1
   174   179   178    1
   175   180   181    2
