@<TRIPOS>MOLECULE
tmp/3o8lA02.pdb
 154 154 0 0 0
SMALL
GASTEIGER

@<TRIPOS>ATOM
      1  N         70.5150  -63.3660   47.0010 N.3   218  ASP218     -0.1225
      2  CA        71.8650  -63.8290   47.2610 C.3   218  ASP218      0.1805
      3  C         72.9030  -62.7430   47.1940 C.2   218  ASP218      0.2598
      4  O         74.0060  -62.9000   47.7040 O.2   218  ASP218     -0.2718
      5  CB        72.2120  -64.9350   46.2900 C.3   218  ASP218      0.1424
      6  CG        72.1220  -66.2780   46.9240 C.2   218  ASP218      0.3668
      7  OD1       73.1560  -66.7030   47.4970 O.co2 218  ASP218     -0.2456
      8  OD2       71.0230  -66.8900   46.8690 O.co2 218  ASP218     -0.2456
      9  N         72.5480  -61.6380   46.5670 N.am  219  TRP219     -0.1962
     10  CA        73.4550  -60.5150   46.4610 C.3   219  TRP219      0.1771
     11  C         72.5540  -59.4260   45.9520 C.2   219  TRP219      0.2619
     12  O         71.4360  -59.7290   45.5700 O.2   219  TRP219     -0.2715
     13  CB        74.5830  -60.8230   45.4750 C.3   219  TRP219      0.0590
     14  CG        75.5860  -59.7450   45.3980 C.ar  219  TRP219      0.0006
     15  CD1       75.4790  -58.5660   44.7320 C.ar  219  TRP219      0.0946
     16  CD2       76.7930  -59.6720   46.1450 C.ar  219  TRP219      0.0152
     17  NE1       76.5400  -57.7430   45.0230 N.ar  219  TRP219     -0.2442
     18  CE2       77.3640  -58.4010   45.8960 C.ar  219  TRP219      0.0810
     19  CE3       77.4510  -60.5560   47.0210 C.ar  219  TRP219      0.0012
     20  CZ2       78.5600  -57.9900   46.4920 C.ar  219  TRP219      0.0191
     21  CZ3       78.6350  -60.1490   47.6110 C.ar  219  TRP219      0.0001
     22  CH2       79.1800  -58.8730   47.3440 C.ar  219  TRP219      0.0015
     23  N         72.9980  -58.1780   45.9570 N.am  220  VAL220     -0.1977
     24  CA        72.1530  -57.0860   45.4940 C.3   220  VAL220      0.1596
     25  C         73.0100  -55.9880   44.9490 C.2   220  VAL220      0.2287
     26  O         74.2040  -55.9410   45.2230 O.2   220  VAL220     -0.2864
     27  CB        71.3390  -56.4780   46.6350 C.3   220  VAL220      0.0276
     28  CG1       70.5980  -55.2440   46.1550 C.3   220  VAL220      0.0022
     29  CG2       70.3660  -57.4900   47.1490 C.3   220  VAL220      0.0022
     30  N         79.3890  -51.2720   45.2020 N.3   227  PRO227     -0.2102
     31  CA        80.3010  -52.3430   45.6510 C.3   227  PRO227      0.1504
     32  C         81.8220  -52.1120   45.7110 C.2   227  PRO227      0.2575
     33  O         82.6110  -53.0550   45.5830 O.2   227  PRO227     -0.2718
     34  CB        79.9340  -53.5040   44.7290 C.3   227  PRO227      0.0282
     35  CG        79.5700  -52.8010   43.4430 C.3   227  PRO227      0.0208
     36  CD        78.7440  -51.6220   43.9230 C.3   227  PRO227      0.0893
     37  N         82.2240  -50.8660   45.9220 N.am  228  ASP228     -0.1974
     38  CA        83.6320  -50.4910   46.0150 C.3   228  ASP228      0.1708
     39  C         84.6330  -51.6500   46.1790 C.2   228  ASP228      0.2293
     40  O         84.5640  -52.4120   47.1470 O.2   228  ASP228     -0.2864
     41  CB        83.7900  -49.4920   47.1630 C.3   228  ASP228      0.1436
     42  CG        82.9340  -48.2520   46.9690 C.2   228  ASP228      0.3671
     43  OD1       82.8310  -47.4350   47.9060 O.co2 228  ASP228     -0.2456
     44  OD2       82.3680  -48.0900   45.8690 O.co2 228  ASP228     -0.2456
     45  N         84.2570  -61.8470   45.6400 N.3   234  HIS234     -0.1241
     46  CA        83.3390  -61.9290   46.7570 C.3   234  HIS234      0.1621
     47  C         82.0790  -62.6560   46.2920 C.2   234  HIS234      0.2264
     48  O         81.7800  -63.7470   46.7640 O.2   234  HIS234     -0.2867
     49  CB        83.0090  -60.5130   47.2480 C.3   234  HIS234      0.0745
     50  CG        82.3160  -60.4710   48.5750 C.ar  234  HIS234      0.0817
     51  ND1       81.8840  -61.6080   49.2320 N.ar  234  HIS234     -0.2268
     52  CD2       81.9250  -59.4230   49.3370 C.ar  234  HIS234      0.1154
     53  CE1       81.2500  -61.2610   50.3350 C.ar  234  HIS234      0.1986
     54  NE2       81.2610  -59.9410   50.4230 N.ar  234  HIS234     -0.2212
     55  N         82.8350  -66.2220   45.3770 N.3   237  ARG237     -0.1231
     56  CA        83.2660  -66.8860   46.6180 C.3   237  ARG237      0.1694
     57  C         81.9730  -67.2680   47.3060 C.2   237  ARG237      0.2591
     58  O         81.7820  -68.4120   47.7170 O.2   237  ARG237     -0.2718
     59  CB        84.0290  -65.8720   47.4880 C.3   237  ARG237      0.0321
     60  CG        84.4550  -66.3190   48.8930 C.3   237  ARG237      0.0489
     61  CD        84.7840  -65.0820   49.7680 C.3   237  ARG237      0.2205
     62  NE        85.7450  -64.1580   49.1410 N.pl3 237  ARG237     -0.0865
     63  CZ        85.8540  -62.8600   49.4370 C.cat 237  ARG237      0.5346
     64  NH1       85.0620  -62.3100   50.3520 N.pl3 237  ARG237      0.1354
     65  NH2       86.7590  -62.1040   48.8270 N.pl3 237  ARG237      0.1354
     66  N         81.0790  -66.2760   47.3770 N.am  238  ARG238     -0.1980
     67  CA        79.7830  -66.4140   48.0030 C.3   238  ARG238      0.1597
     68  C         78.9620  -67.4520   47.3170 C.2   238  ARG238      0.2287
     69  O         78.6400  -68.4790   47.9140 O.2   238  ARG238     -0.2864
     70  CB        79.0210  -65.0810   48.0100 C.3   238  ARG238      0.0334
     71  CG        79.4560  -64.1280   49.1210 C.3   238  ARG238      0.0492
     72  CD        78.3840  -63.1020   49.4640 C.3   238  ARG238      0.2205
     73  NE        77.0710  -63.7210   49.6270 N.pl3 238  ARG238     -0.0865
     74  CZ        76.1420  -63.3370   50.5030 C.cat 238  ARG238      0.5346
     75  NH1       76.3540  -62.3210   51.3390 N.pl3 238  ARG238      0.1354
     76  NH2       74.9760  -63.9650   50.5270 N.pl3 238  ARG238      0.1354
     77  N         80.4680  -70.6900   47.8040 N.3   241  GLU241     -0.1245
     78  CA        80.4150  -71.0200   49.2270 C.3   241  GLU241      0.1567
     79  C         79.0040  -71.5760   49.3760 C.2   241  GLU241      0.2260
     80  O         78.8190  -72.7590   49.6730 O.2   241  GLU241     -0.2867
     81  CB        80.6280  -69.7740   50.1170 C.3   241  GLU241      0.0388
     82  CG        82.0920  -69.2660   50.1700 C.3   241  GLU241      0.1160
     83  CD        82.3620  -68.0580   51.1250 C.2   241  GLU241      0.3649
     84  OE1       81.5400  -67.1150   51.2420 O.co2 241  GLU241     -0.2457
     85  OE2       83.4460  -68.0360   51.7490 O.co2 241  GLU241     -0.2457
     86  N         69.2350  -52.0930   54.4890 N.3   374  TRP374     -0.1241
     87  CA        70.5260  -52.4060   53.9090 C.3   374  TRP374      0.1605
     88  C         71.2640  -53.2530   54.9030 C.2   374  TRP374      0.2264
     89  O         71.5560  -54.4180   54.6530 O.2   374  TRP374     -0.2867
     90  CB        71.3150  -51.1320   53.6260 C.3   374  TRP374      0.0550
     91  CG        72.6280  -51.3610   52.9070 C.ar  374  TRP374      0.0003
     92  CD1       73.8280  -50.8200   53.2320 C.ar  374  TRP374      0.0946
     93  CD2       72.8660  -52.1850   51.7490 C.ar  374  TRP374      0.0152
     94  NE1       74.7970  -51.2440   52.3670 N.ar  374  TRP374     -0.2442
     95  CE2       74.2400  -52.0860   51.4450 C.ar  374  TRP374      0.0810
     96  CE3       72.0540  -52.9950   50.9410 C.ar  374  TRP374      0.0012
     97  CZ2       74.8270  -52.7660   50.3740 C.ar  374  TRP374      0.0191
     98  CZ3       72.6460  -53.6680   49.8740 C.ar  374  TRP374      0.0001
     99  CH2       74.0190  -53.5470   49.6060 C.ar  374  TRP374      0.0015
    100  N         69.5980  -56.5120   55.7140 N.3   377  TYR377     -0.1227
    101  CA        69.5860  -57.3530   54.5230 C.3   377  TYR377      0.1736
    102  C         70.8580  -58.1880   54.4700 C.2   377  TYR377      0.2595
    103  O         70.8010  -59.4380   54.4540 O.2   377  TYR377     -0.2718
    104  CB        69.4950  -56.5220   53.2470 C.3   377  TYR377      0.0548
    105  CG        69.9030  -57.3400   52.0340 C.ar  377  TYR377     -0.0200
    106  CD1       69.2310  -58.5280   51.7190 C.ar  377  TYR377     -0.0009
    107  CD2       71.0530  -57.0210   51.2930 C.ar  377  TYR377     -0.0009
    108  CE1       69.6970  -59.3890   50.7150 C.ar  377  TYR377      0.0417
    109  CE2       71.5320  -57.8820   50.2870 C.ar  377  TYR377      0.0417
    110  CZ        70.8510  -59.0680   50.0130 C.ar  377  TYR377      0.1957
    111  OH        71.3470  -59.9740   49.1020 O.3   377  TYR377     -0.2866
    112  N         71.9940  -57.4780   54.4420 N.am  378  LYS378     -0.1980
    113  CA        73.3350  -58.0660   54.3980 C.3   378  LYS378      0.1596
    114  C         73.5600  -59.0850   55.5020 C.2   378  LYS378      0.2287
    115  O         74.0510  -60.1900   55.2490 O.2   378  LYS378     -0.2864
    116  CB        74.3910  -56.9760   54.5210 C.3   378  LYS378      0.0298
    117  CG        74.3940  -56.0440   53.3560 C.3   378  LYS378      0.0038
    118  CD        74.5650  -54.5840   53.7580 C.3   378  LYS378      0.0206
    119  CE        76.0110  -54.2770   54.0870 C.3   378  LYS378      0.1093
    120  NZ        76.2530  -52.8270   54.4040 N.3   378  LYS378     -0.1314
    121  N         71.5740  -62.0790   55.0310 N.3   381  ALA381     -0.1231
    122  CA        72.0660  -62.6130   53.7600 C.3   381  ALA381      0.1694
    123  C         73.3770  -63.3800   53.8830 C.2   381  ALA381      0.2592
    124  O         73.6760  -64.2080   53.0390 O.2   381  ALA381     -0.2718
    125  CB        72.2260  -61.4800   52.7560 C.3   381  ALA381      0.0304
    126  N         74.1540  -63.0960   54.9260 N.am  382  HIS382     -0.1962
    127  CA        75.4360  -63.7740   55.1670 C.3   382  HIS382      0.1787
    128  C         75.3390  -65.2490   54.9250 C.2   382  HIS382      0.2620
    129  O         74.2620  -65.8230   54.9240 O.2   382  HIS382     -0.2715
    130  CB        75.9210  -63.6000   56.6100 C.3   382  HIS382      0.0785
    131  CG        76.6110  -62.3030   56.8720 C.ar  382  HIS382      0.0821
    132  ND1       76.0220  -61.0820   56.6280 N.ar  382  HIS382     -0.2267
    133  CD2       77.8440  -62.0360   57.3510 C.ar  382  HIS382      0.1154
    134  CE1       76.8650  -60.1160   56.9380 C.ar  382  HIS382      0.1986
    135  NE2       77.9790  -60.6690   57.3790 N.ar  382  HIS382     -0.2212
    136  N         76.4850  -65.8730   54.7490 N.am  383  ILE383     -0.1963
    137  CA        76.4900  -67.3010   54.5030 C.3   383  ILE383      0.1727
    138  C         76.8650  -67.9650   55.7980 C.2   383  ILE383      0.2616
    139  O         76.3600  -69.0340   56.1170 O.2   383  ILE383     -0.2715
    140  CB        77.5470  -67.6810   53.4290 C.3   383  ILE383      0.0290
    141  CG1       78.5680  -66.5500   53.2930 C.3   383  ILE383      0.0022
    142  CG2       76.8890  -67.9490   52.0950 C.3   383  ILE383      0.0023
    143  CD1       79.3810  -66.3050   54.5420 C.3   383  ILE383      0.0001
    144  N         77.7640  -67.2760   56.5110 N.am  384  ARG384     -0.1977
    145  CA        78.3700  -67.6640   57.7860 C.3   384  ARG384      0.1597
    146  C         77.5710  -68.6540   58.6100 C.2   384  ARG384      0.2287
    147  O         77.2770  -69.7410   58.1250 O.2   384  ARG384     -0.2864
    148  CB        78.7210  -66.3940   58.5800 C.3   384  ARG384      0.0334
    149  CG        79.9010  -65.6360   57.9820 C.3   384  ARG384      0.0492
    150  CD        80.5500  -64.7020   58.9870 C.3   384  ARG384      0.2205
    151  NE        79.6250  -63.6870   59.4800 N.pl3 384  ARG384     -0.0865
    152  CZ        79.9600  -62.7330   60.3420 C.cat 384  ARG384      0.5346
    153  NH1       81.2000  -62.6620   60.8070 N.pl3 384  ARG384      0.1354
    154  NH2       79.0550  -61.8490   60.7390 N.pl3 384  ARG384      0.1354
@<TRIPOS>BOND
     1    35    36    1
     2    35    34    1
     3    36    30    1
     4    34    31    1
     5    15    17   ar
     6    15    14   ar
     7    25    26    2
     8    25    24    1
     9    17    18   ar
    10    30    31    1
    11    55    56    1
    12    14    13    1
    13    14    16   ar
    14    13    10    1
    15    24    23    1
    16    24    27    1
    17    12    11    2
    18    33    32    2
    19    45    46    1
    20    31    32    1
    21    32    37   am
    22    44    42   ar
    23    18    16   ar
    24    18    20   ar
    25    37    38    1
    26    11    23   am
    27    11    10    1
    28    38    39    1
    29    38    41    1
    30    16    19   ar
    31    28    27    1
    32    39    40    2
    33     5     6    1
    34     5     2    1
    35    47    46    1
    36    47    48    2
    37    10     9    1
    38    20    22   ar
    39     9     3   am
    40    56    57    1
    41    56    59    1
    42    27    29    1
    43    46    49    1
    44     8     6   ar
    45     6     7   ar
    46    42    41    1
    47    42    43   ar
    48     1     2    1
    49    19    21   ar
    50     3     2    1
    51     3     4    2
    52    49    50    1
    53    57    66   am
    54    57    58    2
    55    68    69    2
    56    68    67    1
    57    22    21   ar
    58    66    67    1
    59    59    60    1
    60    77    78    1
    61    67    70    1
    62    70    71    1
    63    50    51   ar
    64    50    52   ar
    65    65    63    1
    66    60    61    1
    67   111   110    1
    68    71    72    1
    69    62    63    2
    70    62    61    1
    71    78    79    1
    72    78    81    1
    73    51    53   ar
    74    52    54   ar
    75    79    80    2
    76    63    64    1
    77    72    73    1
    78    99    98   ar
    79    99    97   ar
    80    73    74    2
    81    98    96   ar
    82   110   109   ar
    83   110   108   ar
    84    81    82    1
    85    82    83    1
    86   109   107   ar
    87    53    54   ar
    88    97    95   ar
    89    74    76    1
    90    74    75    1
    91   108   106   ar
    92    96    93   ar
    93    83    84   ar
    94    83    85   ar
    95   107   105   ar
    96    95    93   ar
    97    95    94   ar
    98   106   105   ar
    99    93    91   ar
   100   105   104    1
   101   142   140    1
   102    94    92   ar
   103   125   122    1
   104    91    92   ar
   105    91    90    1
   106   124   123    2
   107   104   101    1
   108   141   140    1
   109   141   143    1
   110   117   118    1
   111   117   116    1
   112   140   137    1
   113    90    87    1
   114   118   119    1
   115   122   123    1
   116   122   121    1
   117   123   126   am
   118    87    86    1
   119    87    88    1
   120   119   120    1
   121   113   112    1
   122   113   116    1
   123   113   114    1
   124   112   102   am
   125   103   102    2
   126   102   101    1
   127   137   136    1
   128   137   138    1
   129   101   100    1
   130    89    88    2
   131   136   128   am
   132   129   128    2
   133   128   127    1
   134   126   127    1
   135   127   130    1
   136   115   114    2
   137   138   139    2
   138   138   144   am
   139   144   145    1
   140   130   131    1
   141   132   131   ar
   142   132   134   ar
   143   131   133   ar
   144   134   135   ar
   145   133   135   ar
   146   145   148    1
   147   145   146    1
   148   149   148    1
   149   149   150    1
   150   147   146    2
   151   150   151    1
   152   151   152    2
   153   152   154    1
   154   152   153    1
