@<TRIPOS>MOLECULE
tmp/3o8lA00.pdb
 183 171 0 0 0
SMALL
GASTEIGER

@<TRIPOS>ATOM
      1  N         50.4330  -36.2460   35.9440 N.3    15  SER15      -0.1202
      2  CA        51.6890  -36.2440   35.1940 C.3    15  SER15       0.2020
      3  C         52.4660  -37.5130   35.5430 C.2    15  SER15       0.2619
      4  O         51.9030  -38.4410   36.0840 O.2    15  SER15      -0.2717
      5  CB        52.5290  -35.0170   35.5660 C.3    15  SER15       0.2103
      6  OG        53.7440  -34.9760   34.8300 O.3    15  SER15      -0.2182
      7  N         53.7550  -37.5550   35.2330 N.am   16  GLY16      -0.1942
      8  CA        54.5580  -38.7260   35.5510 C.3    16  GLY16       0.2014
      9  C         54.1580  -40.0620   34.9250 C.2    16  GLY16       0.2639
     10  O         53.2100  -40.1420   34.1490 O.2    16  GLY16      -0.2714
     11  N         54.8850  -41.1220   35.2770 N.am   17  GLY17      -0.1954
     12  CA        54.5960  -42.4380   34.7410 C.3    17  GLY17       0.1869
     13  C         53.6070  -43.1850   35.5990 C.2    17  GLY17       0.2309
     14  O         53.5550  -42.9950   36.8120 O.2    17  GLY17      -0.2863
     15  N         50.5040  -32.8340   32.1940 N.3    47  TYR47      -0.1241
     16  CA        50.6910  -31.4090   31.9420 C.3    47  TYR47       0.1605
     17  C         50.2480  -30.9940   30.5560 C.2    47  TYR47       0.2264
     18  O         49.8760  -29.8350   30.3450 O.2    47  TYR47      -0.2867
     19  CB        52.1420  -30.9860   32.1540 C.3    47  TYR47       0.0534
     20  CG        52.5270  -30.8220   33.6060 C.ar   47  TYR47      -0.0201
     21  CD1       53.3740  -31.7330   34.2230 C.ar   47  TYR47      -0.0009
     22  CD2       52.0410  -29.7660   34.3700 C.ar   47  TYR47      -0.0009
     23  CE1       53.7360  -31.6000   35.5630 C.ar   47  TYR47       0.0417
     24  CE2       52.3950  -29.6280   35.7160 C.ar   47  TYR47       0.0417
     25  CZ        53.2490  -30.5510   36.3010 C.ar   47  TYR47       0.1957
     26  OH        53.6570  -30.4350   37.6160 O.3    47  TYR47      -0.2866
     27  N         50.7060  -38.0650   29.9930 N.3    79  ALA79      -0.1231
     28  CA        51.4790  -37.8840   28.7690 C.3    79  ALA79       0.1694
     29  C         52.9710  -37.7030   29.0520 C.2    79  ALA79       0.2592
     30  O         53.5630  -38.4700   29.8070 O.2    79  ALA79      -0.2718
     31  CB        50.9400  -36.6840   28.0050 C.3    79  ALA79       0.0304
     32  N         53.5730  -36.6900   28.4340 N.am   80  ARG80      -0.1966
     33  CA        54.9890  -36.4060   28.6230 C.3    80  ARG80       0.1729
     34  C         55.3060  -34.9900   28.1720 C.2    80  ARG80       0.2616
     35  O         56.4720  -34.6370   27.9760 O.2    80  ARG80      -0.2715
     36  CB        55.8550  -37.3970   27.8380 C.3    80  ARG80       0.0348
     37  CG        56.1400  -38.6990   28.5700 C.3    80  ARG80       0.0492
     38  CD        57.0930  -39.5800   27.7780 C.3    80  ARG80       0.2205
     39  NE        57.5030  -40.7630   28.5300 N.pl3  80  ARG80      -0.0865
     40  CZ        58.2160  -40.7280   29.6520 C.cat  80  ARG80       0.5346
     41  NH1       58.6030  -39.5660   30.1610 N.pl3  80  ARG80       0.1354
     42  NH2       58.5430  -41.8570   30.2660 N.pl3  80  ARG80       0.1354
     43  N         54.2640  -34.1810   28.0130 N.am   81  CYS81      -0.1954
     44  CA        54.4110  -32.7900   27.5740 C.3    81  CYS81       0.1843
     45  C         55.6950  -32.0760   28.0040 C.2    81  CYS81       0.2625
     46  O         55.8590  -31.7380   29.1770 O.2    81  CYS81      -0.2714
     47  CB        53.2140  -31.9610   28.0450 C.3    81  CYS81       0.0997
     48  SG        53.4800  -30.1820   27.9460 S.3    81  CYS81      -0.0797
     49  N         56.5910  -31.8270   27.0470 N.am   82  LYS82      -0.1977
     50  CA        57.8420  -31.1360   27.3420 C.3    82  LYS82       0.1596
     51  C         57.7020  -29.6330   27.0730 C.2    82  LYS82       0.2287
     52  O         58.5800  -28.8430   27.4240 O.2    82  LYS82      -0.2864
     53  CB        58.9850  -31.7230   26.5110 C.3    82  LYS82       0.0298
     54  CG        60.2890  -31.8210   27.2890 C.3    82  LYS82       0.0038
     55  CD        60.1160  -32.7280   28.5060 C.3    82  LYS82       0.0206
     56  CE        61.3270  -32.6940   29.4330 C.3    82  LYS82       0.1093
     57  NZ        61.5010  -31.3830   30.1290 N.3    82  LYS82      -0.1314
     58  N         55.7140  -27.7610   28.4930 N.3    84  PHE84      -0.1227
     59  CA        55.5120  -27.1610   29.8120 C.3    84  PHE84       0.1736
     60  C         56.8500  -26.8620   30.4780 C.2    84  PHE84       0.2595
     61  O         56.9550  -25.9180   31.2680 O.2    84  PHE84      -0.2718
     62  CB        54.7050  -28.1200   30.7020 C.3    84  PHE84       0.0547
     63  CG        54.0590  -27.4620   31.9190 C.ar   84  PHE84      -0.0202
     64  CD1       53.0410  -26.5240   31.7690 C.ar   84  PHE84      -0.0042
     65  CD2       54.4480  -27.8120   33.2090 C.ar   84  PHE84      -0.0042
     66  CE1       52.4320  -25.9580   32.8760 C.ar   84  PHE84      -0.0003
     67  CE2       53.8400  -27.2450   34.3120 C.ar   84  PHE84      -0.0003
     68  CZ        52.8340  -26.3210   34.1430 C.ar   84  PHE84      -0.0000
     69  N         57.8650  -27.6720   30.1610 N.am   85  ARG85      -0.1980
     70  CA        59.2070  -27.4990   30.7270 C.3    85  ARG85       0.1597
     71  C         59.7930  -26.1710   30.2630 C.2    85  ARG85       0.2287
     72  O         60.8720  -25.7590   30.6840 O.2    85  ARG85      -0.2864
     73  CB        60.1200  -28.6670   30.3220 C.3    85  ARG85       0.0334
     74  CG        61.5680  -28.5220   30.7770 C.3    85  ARG85       0.0492
     75  CD        61.6620  -28.2400   32.2680 C.3    85  ARG85       0.2205
     76  NE        63.0440  -28.1800   32.7340 N.pl3  85  ARG85      -0.0865
     77  CZ        63.8670  -29.2230   32.7640 C.cat  85  ARG85       0.5346
     78  NH1       63.4470  -30.4130   32.3580 N.pl3  85  ARG85       0.1354
     79  NH2       65.1100  -29.0770   33.2020 N.pl3  85  ARG85       0.1354
     80  N         54.0160  -22.9320   29.6120 N.3    90  ARG90      -0.1245
     81  CA        53.4000  -22.7730   30.9220 C.3    90  ARG90       0.1563
     82  C         52.3830  -21.6350   30.8400 C.2    90  ARG90       0.2260
     83  O         51.3170  -21.6950   31.4440 O.2    90  ARG90      -0.2867
     84  CB        54.4620  -22.4520   31.9900 C.3    90  ARG90       0.0307
     85  CG        55.6220  -23.4230   32.0220 C.3    90  ARG90       0.0489
     86  CD        56.6920  -22.9620   32.9950 C.3    90  ARG90       0.2205
     87  NE        57.8580  -23.8380   32.9710 N.pl3  90  ARG90      -0.0865
     88  CZ        58.9540  -23.6460   33.6980 C.cat  90  ARG90       0.5346
     89  NH1       59.0400  -22.6030   34.5130 N.pl3  90  ARG90       0.1354
     90  NH2       59.9660  -24.4980   33.6080 N.pl3  90  ARG90       0.1354
     91  N         55.4950  -37.3330   40.1120 N.3   110  GLY110     -0.1210
     92  CA        56.7770  -37.7160   40.6670 C.3   110  GLY110      0.1956
     93  C         57.7670  -36.5710   40.7990 C.2   110  GLY110      0.2612
     94  O         57.4530  -35.4010   40.5220 O.2   110  GLY110     -0.2717
     95  N         58.9730  -36.9390   41.2290 N.am  111  ASP111     -0.1959
     96  CA        60.0630  -36.0070   41.4530 C.3   111  ASP111      0.1840
     97  C         60.1200  -34.8720   40.4290 C.2   111  ASP111      0.2623
     98  O         60.3670  -33.7090   40.7840 O.2   111  ASP111     -0.2715
     99  CB        61.3800  -36.7830   41.4920 C.3   111  ASP111      0.1450
    100  CG        61.5190  -37.6200   42.7440 C.2   111  ASP111      0.3671
    101  OD1       60.5910  -38.4010   43.0360 O.co2 111  ASP111     -0.2456
    102  OD2       62.5540  -37.4970   43.4330 O.co2 111  ASP111     -0.2456
    103  N         59.8750  -35.2160   39.1680 N.am  112  GLY112     -0.1940
    104  CA        59.8900  -34.2400   38.0900 C.3   112  GLY112      0.2014
    105  C         58.5760  -33.5040   37.9970 C.2   112  GLY112      0.2639
    106  O         58.5270  -32.2980   38.2250 O.2   112  GLY112     -0.2714
    107  N         57.5060  -34.2160   37.6640 N.am  113  SER113     -0.1949
    108  CA        56.1970  -33.5790   37.5790 C.3   113  SER113      0.1924
    109  C         56.0340  -32.6300   38.7810 C.2   113  SER113      0.2314
    110  O         55.6620  -31.4500   38.6310 O.2   113  SER113     -0.2863
    111  CB        55.0880  -34.6330   37.6240 C.3   113  SER113      0.2116
    112  OG        55.3300  -35.6970   36.7310 O.3   113  SER113     -0.2180
    113  N         58.3340  -31.3510   40.7070 N.3   115  THR115     -0.1203
    114  CA        59.2380  -30.2080   40.5870 C.3   115  THR115      0.1994
    115  C         58.7910  -29.2200   39.5100 C.2   115  THR115      0.2618
    116  O         59.1980  -28.0520   39.5090 O.2   115  THR115     -0.2717
    117  CB        60.6820  -30.6240   40.2590 C.3   115  THR115      0.1784
    118  OG1       61.4930  -29.4480   40.1810 O.3   115  THR115     -0.2211
    119  CG2       60.7600  -31.3150   38.9340 C.3   115  THR115      0.0376
    120  N         57.9530  -29.6970   38.5990 N.am  116  GLY116     -0.1956
    121  CA        57.4660  -28.8370   37.5370 C.3   116  GLY116      0.1869
    122  C         56.3840  -27.9190   38.0570 C.2   116  GLY116      0.2309
    123  O         56.3850  -26.7100   37.8030 O.2   116  GLY116     -0.2863
    124  N         58.1320  -25.1450   40.2520 N.3   119  THR119     -0.1218
    125  CA        58.5500  -24.0180   39.4500 C.3   119  THR119      0.1862
    126  C         57.3730  -23.2770   38.8210 C.2   119  THR119      0.2287
    127  O         57.4950  -22.1130   38.4610 O.2   119  THR119     -0.2866
    128  CB        59.4880  -24.4810   38.3580 C.3   119  THR119      0.1770
    129  OG1       59.5860  -23.4700   37.3560 O.3   119  THR119     -0.2211
    130  CG2       58.9750  -25.7490   37.7460 C.3   119  THR119      0.0375
    131  N         54.5390  -42.5710   42.4750 N.3   156  SER156     -0.1217
    132  CA        55.6880  -43.1250   41.7480 C.3   156  SER156      0.1889
    133  C         56.1640  -44.4740   42.2660 C.2   156  SER156      0.2288
    134  O         56.4050  -44.6200   43.4490 O.2   156  SER156     -0.2866
    135  CB        56.8550  -42.1240   41.7440 C.3   156  SER156      0.2089
    136  OG        57.8540  -42.4860   42.6680 O.3   156  SER156     -0.2183
    137  N         58.8870  -45.6580   42.1680 N.3   158  ASP158     -0.1239
    138  CA        60.3070  -45.4590   42.5390 C.3   158  ASP158      0.1674
    139  C         60.5420  -45.3560   44.0410 C.2   158  ASP158      0.2266
    140  O         61.4930  -45.9400   44.5710 O.2   158  ASP158     -0.2867
    141  CB        60.8510  -44.1850   41.8840 C.3   158  ASP158      0.1410
    142  CG        61.2790  -44.3970   40.4500 C.2   158  ASP158      0.3668
    143  OD1       62.3030  -45.0800   40.2310 O.co2 158  ASP158     -0.2456
    144  OD2       60.5920  -43.8790   39.5430 O.co2 158  ASP158     -0.2456
    145  N         61.3120  -42.7620   45.3670 N.3   160  ASP160     -0.1239
    146  CA        62.4710  -41.8840   45.3740 C.3   160  ASP160      0.1674
    147  C         62.2230  -40.5910   46.1100 C.2   160  ASP160      0.2266
    148  O         63.0150  -40.1960   46.9630 O.2   160  ASP160     -0.2867
    149  CB        62.8990  -41.5560   43.9370 C.3   160  ASP160      0.1410
    150  CG        61.7940  -40.8750   43.1310 C.2   160  ASP160      0.3668
    151  OD1       62.0680  -40.4050   42.0040 O.co2 160  ASP160     -0.2456
    152  OD2       60.6470  -40.8100   43.6170 O.co2 160  ASP160     -0.2456
    153  N         65.7140  -45.7890   38.9480 N.3   202  ARG202     -0.1245
    154  CA        66.6780  -44.9930   38.2250 C.3   202  ARG202      0.1563
    155  C         67.8170  -44.7100   39.1730 C.2   202  ARG202      0.2260
    156  O         68.8910  -45.2980   39.0450 O.2   202  ARG202     -0.2867
    157  CB        66.0300  -43.6960   37.7250 C.3   202  ARG202      0.0307
    158  CG        65.3440  -42.8440   38.7810 C.3   202  ARG202      0.0489
    159  CD        64.7290  -41.6110   38.1400 C.3   202  ARG202      0.2205
    160  NE        65.7160  -40.8530   37.3760 N.pl3 202  ARG202     -0.0865
    161  CZ        65.4390  -39.7710   36.6570 C.cat 202  ARG202      0.5346
    162  NH1       64.1970  -39.3090   36.6000 N.pl3 202  ARG202      0.1354
    163  NH2       66.4050  -39.1500   35.9930 N.pl3 202  ARG202      0.1354
    164  N         54.8280  -51.6360   36.9270 N.3   293  ARG293     -0.1245
    165  CA        53.7940  -50.6060   36.9060 C.3   293  ARG293      0.1563
    166  C         52.4450  -51.2490   36.5480 C.2   293  ARG293      0.2260
    167  O         51.3790  -50.6050   36.5630 O.2   293  ARG293     -0.2867
    168  CB        54.1170  -49.5420   35.8500 C.3   293  ARG293      0.0307
    169  CG        55.2620  -48.6410   36.1820 C.3   293  ARG293      0.0489
    170  CD        55.7730  -47.9370   34.9640 C.3   293  ARG293      0.2205
    171  NE        56.8560  -47.0230   35.3010 N.pl3 293  ARG293     -0.0865
    172  CZ        56.6950  -45.8750   35.9590 C.cat 293  ARG293      0.5346
    173  NH1       55.4780  -45.4910   36.3530 N.pl3 293  ARG293      0.1354
    174  NH2       57.7580  -45.1120   36.2350 N.pl3 293  ARG293      0.1354
    175  N         66.5260  -33.7000   45.4740 N.3   348  LYS348     -0.1245
    176  CA        67.5010  -33.5020   44.4000 C.3   348  LYS348      0.1561
    177  C         68.8830  -33.6670   45.0020 C.2   348  LYS348      0.2260
    178  O         69.7680  -34.2900   44.4130 O.2   348  LYS348     -0.2867
    179  CB        67.3820  -32.0960   43.7900 C.3   348  LYS348      0.0271
    180  CG        66.0970  -31.8900   43.0000 C.3   348  LYS348      0.0035
    181  CD        66.1030  -30.5730   42.2430 C.3   348  LYS348      0.0206
    182  CE        64.8560  -30.4340   41.3820 C.3   348  LYS348      0.1093
    183  NZ        64.8530  -29.1700   40.5940 N.3   348  LYS348     -0.1314
@<TRIPOS>BOND
     1    53    54    1
     2    53    50    1
     3    49    50    1
     4    49    45   am
     5    51    50    1
     6    51    52    2
     7    54    55    1
     8    44    45    1
     9    44    43    1
    10    44    47    1
    11    38    39    1
    12    38    37    1
    13    36    37    1
    14    36    33    1
    15    48    47    1
    16    35    34    2
    17    45    46    2
    18    31    28    1
    19    43    34   am
    20    34    33    1
    21    32    33    1
    22    32    29   am
    23    58    59    1
    24    55    56    1
    25    39    40    2
    26    28    29    1
    27    28    27    1
    28    29    30    2
    29    56    57    1
    30    80    81    1
    31    40    41    1
    32    40    42    1
    33    59    60    1
    34    59    62    1
    35    69    60   am
    36    69    70    1
    37    71    72    2
    38    71    70    1
    39    73    70    1
    40    73    74    1
    41    18    17    2
    42    60    61    2
    43    17    16    1
    44    62    63    1
    45    74    75    1
    46    82    81    1
    47    82    83    2
    48    81    84    1
    49    64    63   ar
    50    64    66   ar
    51    63    65   ar
    52    16    19    1
    53    16    15    1
    54    84    85    1
    55    85    86    1
    56    19    20    1
    57    75    76    1
    58    78    77    1
    59    76    77    2
    60    77    79    1
    61    66    68   ar
    62    87    86    1
    63    87    88    2
    64    65    67   ar
    65    20    21   ar
    66    20    22   ar
    67    90    88    1
    68    88    89    1
    69    68    67   ar
    70    10     9    2
    71    21    23   ar
    72    22    24   ar
    73    12    11    1
    74    12    13    1
    75     6     5    1
    76     9    11   am
    77     9     8    1
    78   170   171    1
    79   170   169    1
    80     2     3    1
    81     2     5    1
    82     2     1    1
    83     7     3   am
    84     7     8    1
    85   171   172    2
    86     3     4    2
    87    23    25   ar
    88    13    14    2
    89    24    25   ar
    90   168   169    1
    91   168   165    1
    92   172   174    1
    93   172   173    1
    94   163   161    1
    95    25    26    1
    96   166   167    2
    97   166   165    1
    98   162   161    1
    99   161   160    2
   100   112   111    1
   101   165   164    1
   102   129   128    1
   103   160   159    1
   104   121   122    1
   105   121   120    1
   106   108   111    1
   107   108   107    1
   108   108   109    1
   109   107   105   am
   110   157   154    1
   111   157   158    1
   112   130   128    1
   113   123   122    2
   114   105   104    1
   115   105   106    2
   116   104   103    1
   117   159   158    1
   118   154   153    1
   119   154   155    1
   120   128   125    1
   121   127   126    2
   122   120   115   am
   123   110   109    2
   124   126   125    1
   125   119   117    1
   126   156   155    2
   127   103    97   am
   128   125   124    1
   129   116   115    2
   130   115   114    1
   131   144   142   ar
   132    91    92    1
   133   118   117    1
   134   143   142   ar
   135   117   114    1
   136    97    98    2
   137    97    96    1
   138   142   141    1
   139    94    93    2
   140   114   113    1
   141   183   182    1
   142    92    93    1
   143    93    95   am
   144    95    96    1
   145   182   181    1
   146    96    99    1
   147    99   100    1
   148   135   132    1
   149   135   136    1
   150   132   133    1
   151   132   131    1
   152   141   138    1
   153   151   150   ar
   154   137   138    1
   155   181   180    1
   156   133   134    2
   157   138   139    1
   158   100   101   ar
   159   100   102   ar
   160   180   179    1
   161   150   152   ar
   162   150   149    1
   163   179   176    1
   164   149   146    1
   165   139   140    2
   166   176   177    1
   167   176   175    1
   168   178   177    2
   169   145   146    1
   170   146   147    1
   171   147   148    2
