@<TRIPOS>MOLECULE
tmp/3o8nA00.pdb
 132 125 0 0 0
SMALL
GASTEIGER

@<TRIPOS>ATOM
      1  N        -50.5590   37.0710   35.8990 N.3    15  SER15      -0.1202
      2  CA       -51.7230   36.6690   35.1350 C.3    15  SER15       0.2020
      3  C        -52.8090   37.6640   35.4700 C.2    15  SER15       0.2619
      4  O        -52.7820   38.2770   36.5290 O.2    15  SER15      -0.2717
      5  CB       -52.1810   35.2680   35.5290 C.3    15  SER15       0.2103
      6  OG       -53.4590   34.9760   34.9620 O.3    15  SER15      -0.2182
      7  N        -53.7920   37.8230   34.6020 N.am   16  GLY16      -0.1942
      8  CA       -54.7980   38.8100   34.9150 C.3    16  GLY16       0.2014
      9  C        -54.2210   40.1520   34.4920 C.2    16  GLY16       0.2639
     10  O        -53.2360   40.1920   33.7490 O.2    16  GLY16      -0.2714
     11  N        -54.7980   41.2440   34.9880 N.am   17  GLY17      -0.1954
     12  CA       -54.3460   42.5630   34.5870 C.3    17  GLY17       0.1869
     13  C        -53.3150   43.2260   35.4530 C.2    17  GLY17       0.2309
     14  O        -53.2870   43.0060   36.6540 O.2    17  GLY17      -0.2863
     15  N        -50.3540   32.8970   32.0340 N.3    47  TYR47      -0.1241
     16  CA       -50.5560   31.4710   31.7960 C.3    47  TYR47       0.1605
     17  C        -50.1830   31.0670   30.3750 C.2    47  TYR47       0.2264
     18  O        -49.9090   29.8900   30.1240 O.2    47  TYR47      -0.2867
     19  CB       -52.0040   31.0530   32.0470 C.3    47  TYR47       0.0534
     20  CG       -52.3600   30.7750   33.4920 C.ar   47  TYR47      -0.0201
     21  CD1      -53.3340   31.5330   34.1420 C.ar   47  TYR47      -0.0009
     22  CD2      -51.7190   29.7730   34.2190 C.ar   47  TYR47      -0.0009
     23  CE1      -53.6570   31.3090   35.4780 C.ar   47  TYR47       0.0417
     24  CE2      -52.0400   29.5420   35.5620 C.ar   47  TYR47       0.0417
     25  CZ       -53.0070   30.3190   36.1820 C.ar   47  TYR47       0.1957
     26  OH       -53.3160   30.1540   37.5160 O.3    47  TYR47      -0.2866
     27  N        -50.9600   38.2710   30.3300 N.3    79  ALA79      -0.1231
     28  CA       -51.7720   38.0150   29.1510 C.3    79  ALA79       0.1694
     29  C        -53.1310   37.5520   29.6420 C.2    79  ALA79       0.2592
     30  O        -53.4560   37.7180   30.8160 O.2    79  ALA79      -0.2718
     31  CB       -51.1260   36.9440   28.2880 C.3    79  ALA79       0.0304
     32  N        -53.9220   36.9620   28.7570 N.am   80  ARG80      -0.1966
     33  CA       -55.2390   36.5090   29.1570 C.3    80  ARG80       0.1729
     34  C        -55.4760   35.0500   28.8230 C.2    80  ARG80       0.2616
     35  O        -56.5420   34.5060   29.1110 O.2    80  ARG80      -0.2715
     36  CB       -56.3080   37.3760   28.4980 C.3    80  ARG80       0.0348
     37  CG       -56.2860   38.8140   28.9660 C.3    80  ARG80       0.0492
     38  CD       -57.4650   39.5950   28.4160 C.3    80  ARG80       0.2205
     39  NE       -57.7010   40.8120   29.1860 N.pl3  80  ARG80      -0.0865
     40  CZ       -57.9240   40.8290   30.4990 C.cat  80  ARG80       0.5346
     41  NH1      -57.9430   39.6960   31.1920 N.pl3  80  ARG80       0.1354
     42  NH2      -58.1290   41.9820   31.1220 N.pl3  80  ARG80       0.1354
     43  N        -54.4760   34.4260   28.2140 N.am   81  CYS81      -0.1968
     44  CA       -54.5270   33.0080   27.8220 C.3    81  CYS81       0.1712
     45  C        -55.8440   32.2340   27.9790 C.2    81  CYS81       0.2296
     46  O        -56.1530   31.7420   29.0720 O.2    81  CYS81      -0.2864
     47  CB       -53.4290   32.2350   28.5630 C.3    81  CYS81       0.0983
     48  SG       -53.3050   30.4720   28.1550 S.3    81  CYS81      -0.0798
     49  N        -55.5310   28.0280   28.5290 N.3    84  PHE84      -0.1227
     50  CA       -55.4280   27.4020   29.8560 C.3    84  PHE84       0.1736
     51  C        -56.7740   27.0170   30.4780 C.2    84  PHE84       0.2595
     52  O        -56.8120   26.2070   31.4170 O.2    84  PHE84      -0.2718
     53  CB       -54.6660   28.3460   30.8170 C.3    84  PHE84       0.0547
     54  CG       -54.0160   27.6440   32.0040 C.ar   84  PHE84      -0.0202
     55  CD1      -52.9770   26.7370   31.8160 C.ar   84  PHE84      -0.0042
     56  CD2      -54.4410   27.9020   33.3050 C.ar   84  PHE84      -0.0042
     57  CE1      -52.3860   26.1100   32.8920 C.ar   84  PHE84      -0.0003
     58  CE2      -53.8500   27.2740   34.3890 C.ar   84  PHE84      -0.0003
     59  CZ       -52.8250   26.3800   34.1800 C.ar   84  PHE84      -0.0000
     60  N        -57.8660   27.5950   29.9650 N.am   85  ARG85      -0.1980
     61  CA       -59.2060   27.3010   30.4850 C.3    85  ARG85       0.1597
     62  C        -59.6560   25.8730   30.1820 C.2    85  ARG85       0.2287
     63  O        -60.6150   25.3760   30.7850 O.2    85  ARG85      -0.2864
     64  CB       -60.2440   28.2870   29.9340 C.3    85  ARG85       0.0334
     65  CG       -60.2240   29.6650   30.5780 C.3    85  ARG85       0.0492
     66  CD       -61.5700   30.3790   30.4230 C.3    85  ARG85       0.2205
     67  NE       -61.5830   31.7270   31.0010 N.pl3  85  ARG85      -0.0865
     68  CZ       -60.8810   32.7640   30.5360 C.cat  85  ARG85       0.5346
     69  NH1      -60.0950   32.6260   29.4720 N.pl3  85  ARG85       0.1354
     70  NH2      -60.9600   33.9440   31.1390 N.pl3  85  ARG85       0.1354
     71  N        -53.6700   22.7260   29.6700 N.3    90  ARG90      -0.1245
     72  CA       -52.9350   22.2630   30.8260 C.3    90  ARG90       0.1563
     73  C        -52.0220   21.1220   30.3720 C.2    90  ARG90       0.2260
     74  O        -50.8010   21.2360   30.4870 O.2    90  ARG90      -0.2867
     75  CB       -53.9240   21.8290   31.8930 C.3    90  ARG90       0.0307
     76  CG       -54.8750   22.9560   32.2520 C.3    90  ARG90       0.0489
     77  CD       -56.0970   22.4210   32.9340 C.3    90  ARG90       0.2205
     78  NE       -57.1480   23.4240   33.0050 N.pl3  90  ARG90      -0.0865
     79  CZ       -58.4190   23.1330   33.2510 C.cat  90  ARG90       0.5346
     80  NH1      -58.7770   21.8640   33.4440 N.pl3  90  ARG90       0.1354
     81  NH2      -59.3260   24.1040   33.3070 N.pl3  90  ARG90       0.1354
     82  N        -55.5100   36.9000   40.0180 N.3   110  GLY110     -0.1210
     83  CA       -56.7330   37.2480   40.7170 C.3   110  GLY110      0.1956
     84  C        -57.8050   36.1680   40.7330 C.2   110  GLY110      0.2612
     85  O        -57.5590   35.0310   40.3310 O.2   110  GLY110     -0.2717
     86  N        -58.9910   36.5540   41.2120 N.am  111  ASP111     -0.1959
     87  CA       -60.1600   35.6910   41.3250 C.3   111  ASP111      0.1840
     88  C        -60.1840   34.6280   40.2470 C.2   111  ASP111      0.2623
     89  O        -60.5570   33.4820   40.5060 O.2   111  ASP111     -0.2715
     90  CB       -61.4200   36.5430   41.2650 C.3   111  ASP111      0.1450
     91  CG       -61.2460   37.7500   40.3770 C.2   111  ASP111      0.3671
     92  OD1      -61.4670   37.6340   39.1520 O.co2 111  ASP111     -0.2456
     93  OD2      -60.8570   38.8160   40.9040 O.co2 111  ASP111     -0.2456
     94  N        -59.7640   35.0010   39.0430 N.am  112  GLY112     -0.1940
     95  CA       -59.7460   34.0550   37.9440 C.3   112  GLY112      0.2014
     96  C        -58.4260   33.3310   37.8930 C.2   112  GLY112      0.2639
     97  O        -58.3480   32.1340   38.1520 O.2   112  GLY112     -0.2714
     98  N        -57.3750   34.0710   37.5800 N.am  113  SER113     -0.1949
     99  CA       -56.0480   33.4840   37.4870 C.3   113  SER113      0.1924
    100  C        -55.8550   32.5030   38.6420 C.2   113  SER113      0.2314
    101  O        -55.2480   31.4380   38.4810 O.2   113  SER113     -0.2863
    102  CB       -54.9890   34.5870   37.5500 C.3   113  SER113      0.2116
    103  OG       -55.4530   35.7940   36.9580 O.3   113  SER113     -0.2180
    104  N        -58.2950   30.8690   40.5110 N.3   115  THR115     -0.1203
    105  CA       -59.1100   29.6760   40.3560 C.3   115  THR115      0.1994
    106  C        -58.6050   28.7730   39.2360 C.2   115  THR115      0.2618
    107  O        -58.9330   27.5870   39.1750 O.2   115  THR115     -0.2717
    108  CB       -60.5830   30.0260   40.1180 C.3   115  THR115      0.1784
    109  OG1      -61.2520   28.8700   39.6080 O.3   115  THR115     -0.2211
    110  CG2      -60.7210   31.1750   39.1650 C.3   115  THR115      0.0376
    111  N        -57.7910   29.3440   38.3590 N.am  116  GLY116     -0.1956
    112  CA       -57.2330   28.5630   37.2720 C.3   116  GLY116      0.1869
    113  C        -56.2150   27.6320   37.8780 C.2   116  GLY116      0.2309
    114  O        -56.3490   26.4100   37.8200 O.2   116  GLY116     -0.2863
    115  N        -57.8110   25.0430   40.1390 N.3   119  THR119     -0.1218
    116  CA       -58.2600   23.8870   39.4140 C.3   119  THR119      0.1862
    117  C        -57.1930   23.3170   38.4690 C.2   119  THR119      0.2287
    118  O        -57.4970   22.9200   37.3520 O.2   119  THR119     -0.2866
    119  CB       -59.5000   24.2710   38.6500 C.3   119  THR119      0.1770
    120  OG1      -59.9920   23.1370   37.9370 O.3   119  THR119     -0.2211
    121  CG2      -59.1790   25.3830   37.6960 C.3   119  THR119      0.0375
    122  N        -66.1330   46.0360   38.8270 N.3   202  ARG202     -0.1245
    123  CA       -66.8580   44.9340   38.2170 C.3   202  ARG202      0.1563
    124  C        -68.0370   44.6910   39.1350 C.2   202  ARG202      0.2260
    125  O        -69.0750   45.3420   39.0130 O.2   202  ARG202     -0.2867
    126  CB       -65.9720   43.6870   38.1600 C.3   202  ARG202      0.0307
    127  CG       -64.5600   43.9540   37.6630 C.3   202  ARG202      0.0489
    128  CD       -63.7090   42.6950   37.7070 C.3   202  ARG202      0.2205
    129  NE       -62.3010   42.9710   37.4290 N.pl3 202  ARG202     -0.0865
    130  CZ       -61.8470   43.4850   36.2900 C.cat 202  ARG202      0.5346
    131  NH1      -62.6880   43.7820   35.3080 N.pl3 202  ARG202      0.1354
    132  NH2      -60.5480   43.7020   36.1320 N.pl3 202  ARG202      0.1354
@<TRIPOS>BOND
     1    44    45    1
     2    44    43    1
     3    44    47    1
     4    45    46    2
     5    48    47    1
     6    43    34   am
     7    31    28    1
     8    38    37    1
     9    38    39    1
    10    36    37    1
    11    36    33    1
    12    49    50    1
    13    32    33    1
    14    32    29   am
    15    34    35    2
    16    34    33    1
    17    28    29    1
    18    28    27    1
    19    39    40    2
    20    69    68    1
    21    29    30    2
    22    71    72    1
    23    50    51    1
    24    50    53    1
    25    64    61    1
    26    64    65    1
    27    60    51   am
    28    60    61    1
    29    18    17    2
    30    62    61    1
    31    62    63    2
    32    73    74    2
    33    73    72    1
    34    17    16    1
    35    66    65    1
    36    66    67    1
    37    51    52    2
    38    40    42    1
    39    40    41    1
    40    68    67    2
    41    68    70    1
    42    53    54    1
    43    72    75    1
    44    16    15    1
    45    16    19    1
    46    55    54   ar
    47    55    57   ar
    48    75    76    1
    49    54    56   ar
    50    19    20    1
    51    76    77    1
    52    57    59   ar
    53    77    78    1
    54    78    79    2
    55    79    81    1
    56    79    80    1
    57    56    58   ar
    58    20    21   ar
    59    20    22   ar
    60    10     9    2
    61    21    23   ar
    62    59    58   ar
    63    22    24   ar
    64     9     8    1
    65     9    11   am
    66    12    11    1
    67    12    13    1
    68     7     8    1
    69     7     3   am
    70     6     5    1
    71     2     3    1
    72     2     5    1
    73     2     1    1
    74   131   130    1
    75    13    14    2
    76     3     4    2
    77    23    25   ar
    78    24    25   ar
    79   132   130    1
    80    25    26    1
    81   130   129    2
    82   103   102    1
    83   112   113    1
    84   112   111    1
    85   118   117    2
    86   129   128    1
    87    99   102    1
    88    99    98    1
    89    99   100    1
    90    98    96   am
    91   127   128    1
    92   127   126    1
    93   121   119    1
    94   114   113    2
    95    96    95    1
    96    96    97    2
    97   120   119    1
    98    95    94    1
    99   126   123    1
   100   123   122    1
   101   123   124    1
   102   111   106   am
   103   117   116    1
   104   101   100    2
   105   119   116    1
   106   125   124    2
   107    94    88   am
   108    92    91   ar
   109   110   108    1
   110   107   106    2
   111   106   105    1
   112   116   115    1
   113   109   108    1
   114    82    83    1
   115   108   105    1
   116    88    89    2
   117    88    87    1
   118    85    84    2
   119   105   104    1
   120    91    93   ar
   121    91    90    1
   122    83    84    1
   123    84    86   am
   124    86    87    1
   125    90    87    1
