@<TRIPOS>MOLECULE
tmp/3o8nA02.pdb
 129 129 0 0 0
SMALL
GASTEIGER

@<TRIPOS>ATOM
      1  N        -70.5310   63.3090   47.1480 N.3   218  ASP218     -0.1225
      2  CA       -71.9280   63.6740   47.4010 C.3   218  ASP218      0.1805
      3  C        -72.8770   62.5420   47.2350 C.2   218  ASP218      0.2598
      4  O        -74.0200   62.6380   47.6650 O.2   218  ASP218     -0.2718
      5  CB       -72.4170   64.7460   46.4640 C.3   218  ASP218      0.1424
      6  CG       -71.8050   66.0540   46.7390 C.2   218  ASP218      0.3668
      7  OD1      -72.5720   67.0080   46.9720 O.co2 218  ASP218     -0.2456
      8  OD2      -70.5610   66.1350   46.7170 O.co2 218  ASP218     -0.2456
      9  N        -72.4310   61.4820   46.5870 N.am  219  TRP219     -0.1962
     10  CA       -73.3070   60.3540   46.3920 C.3   219  TRP219      0.1771
     11  C        -72.5200   59.2590   45.7500 C.2   219  TRP219      0.2619
     12  O        -71.5850   59.5490   45.0270 O.2   219  TRP219     -0.2715
     13  CB       -74.4500   60.7470   45.4950 C.3   219  TRP219      0.0590
     14  CG       -75.4230   59.7050   45.3940 C.ar  219  TRP219      0.0006
     15  CD1      -75.3510   58.5530   44.6470 C.ar  219  TRP219      0.0946
     16  CD2      -76.6330   59.6450   46.1120 C.ar  219  TRP219      0.0152
     17  NE1      -76.4620   57.7650   44.8600 N.ar  219  TRP219     -0.2442
     18  CE2      -77.2710   58.4150   45.7620 C.ar  219  TRP219      0.0810
     19  CE3      -77.2600   60.5090   47.0310 C.ar  219  TRP219      0.0012
     20  CZ2      -78.5060   58.0390   46.3060 C.ar  219  TRP219      0.0191
     21  CZ3      -78.4720   60.1370   47.5620 C.ar  219  TRP219      0.0001
     22  CH2      -79.0870   58.9060   47.1960 C.ar  219  TRP219      0.0015
     23  N        -72.8740   58.0070   46.0100 N.am  220  VAL220     -0.1977
     24  CA       -72.1370   56.9060   45.4150 C.3   220  VAL220      0.1596
     25  C        -73.0550   55.8690   44.8440 C.2   220  VAL220      0.2287
     26  O        -74.2860   55.9070   45.0180 O.2   220  VAL220     -0.2864
     27  CB       -71.2250   56.1790   46.4080 C.3   220  VAL220      0.0276
     28  CG1      -70.1510   55.4290   45.6420 C.3   220  VAL220      0.0022
     29  CG2      -70.6020   57.1550   47.3640 C.3   220  VAL220      0.0022
     30  N        -74.9270   47.3040   47.0810 N.3   225  CYS225     -0.1235
     31  CA       -76.0520   47.9310   47.7600 C.3   225  CYS225      0.1677
     32  C        -76.7830   48.9360   46.8780 C.2   225  CYS225      0.2270
     33  O        -76.6630   50.1410   47.0400 O.2   225  CYS225     -0.2867
     34  CB       -75.6040   48.5950   49.0610 C.3   225  CYS225      0.0956
     35  SG       -76.9870   48.8730   50.1900 S.3   225  CYS225     -0.0801
     36  N        -79.4690   51.3710   45.0350 N.3   227  PRO227     -0.2102
     37  CA       -80.3450   52.4410   45.5470 C.3   227  PRO227      0.1504
     38  C        -81.8220   52.1090   45.7890 C.2   227  PRO227      0.2575
     39  O        -82.5250   52.8290   46.5200 O.2   227  PRO227     -0.2718
     40  CB       -80.1900   53.5350   44.4990 C.3   227  PRO227      0.0282
     41  CG       -79.9940   52.7420   43.2410 C.3   227  PRO227      0.0208
     42  CD       -79.0030   51.6910   43.6750 C.3   227  PRO227      0.0893
     43  N        -82.3050   51.0400   45.1730 N.am  228  ASP228     -0.1974
     44  CA       -83.6990   50.6640   45.3460 C.3   228  ASP228      0.1708
     45  C        -84.5870   51.8570   44.9270 C.2   228  ASP228      0.2293
     46  O        -84.0740   52.9370   44.6200 O.2   228  ASP228     -0.2864
     47  CB       -83.9460   50.2580   46.8110 C.3   228  ASP228      0.1436
     48  CG       -82.9060   49.2510   47.3310 C.2   228  ASP228      0.3671
     49  OD1      -82.6360   48.2380   46.6450 O.co2 228  ASP228     -0.2456
     50  OD2      -82.3600   49.4710   48.4360 O.co2 228  ASP228     -0.2456
     51  N        -84.0700   61.8420   45.4320 N.3   234  HIS234     -0.1241
     52  CA       -83.1970   61.8300   46.5960 C.3   234  HIS234      0.1621
     53  C        -81.9560   62.6240   46.2050 C.2   234  HIS234      0.2264
     54  O        -81.6990   63.7060   46.7360 O.2   234  HIS234     -0.2867
     55  CB       -82.8140   60.3980   46.9710 C.3   234  HIS234      0.0745
     56  CG       -82.3140   60.2510   48.3810 C.ar  234  HIS234      0.0817
     57  ND1      -81.9170   61.3290   49.1500 N.ar  234  HIS234     -0.2268
     58  CD2      -82.1070   59.1490   49.1420 C.ar  234  HIS234      0.1154
     59  CE1      -81.4860   60.8980   50.3200 C.ar  234  HIS234      0.1986
     60  NE2      -81.5900   59.5790   50.3410 N.ar  234  HIS234     -0.2212
     61  N        -80.9310   66.2370   47.4140 N.3   238  ARG238     -0.1245
     62  CA       -79.5830   66.2420   47.9860 C.3   238  ARG238      0.1563
     63  C        -78.7320   67.3120   47.3340 C.2   238  ARG238      0.2260
     64  O        -78.4680   68.3610   47.9370 O.2   238  ARG238     -0.2867
     65  CB       -78.9210   64.8820   47.7820 C.3   238  ARG238      0.0307
     66  CG       -79.4920   63.7530   48.6310 C.3   238  ARG238      0.0489
     67  CD       -78.7220   63.5850   49.9230 C.3   238  ARG238      0.2205
     68  NE       -77.3050   63.8320   49.6960 N.pl3 238  ARG238     -0.0865
     69  CZ       -76.3180   63.3520   50.4410 C.cat 238  ARG238      0.5346
     70  NH1      -76.5750   62.5690   51.4880 N.pl3 238  ARG238      0.1354
     71  NH2      -75.0660   63.6740   50.1360 N.pl3 238  ARG238      0.1354
     72  N        -69.2230   52.0130   54.5460 N.3   374  TRP374     -0.1241
     73  CA       -70.5480   52.2960   54.0220 C.3   374  TRP374      0.1605
     74  C        -71.3170   53.1770   54.9900 C.2   374  TRP374      0.2264
     75  O        -71.5190   54.3620   54.7100 O.2   374  TRP374     -0.2867
     76  CB       -71.3040   51.0030   53.7660 C.3   374  TRP374      0.0550
     77  CG       -72.6000   51.1700   53.0510 C.ar  374  TRP374      0.0003
     78  CD1      -73.7500   50.5060   53.3130 C.ar  374  TRP374      0.0946
     79  CD2      -72.8790   52.0260   51.9330 C.ar  374  TRP374      0.0152
     80  NE1      -74.7340   50.8850   52.4440 N.ar  374  TRP374     -0.2442
     81  CE2      -74.2310   51.8190   51.5810 C.ar  374  TRP374      0.0810
     82  CE3      -72.1210   52.9460   51.1920 C.ar  374  TRP374      0.0012
     83  CZ2      -74.8480   52.4980   50.5220 C.ar  374  TRP374      0.0191
     84  CZ3      -72.7370   53.6190   50.1410 C.ar  374  TRP374      0.0001
     85  CH2      -74.0870   53.3900   49.8200 C.ar  374  TRP374      0.0015
     86  N        -69.6890   56.4650   55.8640 N.3   377  TYR377     -0.1227
     87  CA       -69.6640   57.3500   54.7050 C.3   377  TYR377      0.1736
     88  C        -70.9580   58.1040   54.5440 C.2   377  TYR377      0.2595
     89  O        -70.9540   59.3380   54.4560 O.2   377  TYR377     -0.2718
     90  CB       -69.4360   56.5820   53.4330 C.3   377  TYR377      0.0548
     91  CG       -69.8250   57.4070   52.2390 C.ar  377  TYR377     -0.0200
     92  CD1      -69.0540   58.5030   51.8450 C.ar  377  TYR377     -0.0009
     93  CD2      -71.0070   57.1410   51.5300 C.ar  377  TYR377     -0.0009
     94  CE1      -69.4490   59.3290   50.7640 C.ar  377  TYR377      0.0417
     95  CE2      -71.4170   57.9580   50.4510 C.ar  377  TYR377      0.0417
     96  CZ       -70.6320   59.0500   50.0740 C.ar  377  TYR377      0.1957
     97  OH       -71.0260   59.8610   49.0290 O.3   377  TYR377     -0.2866
     98  N        -72.0560   57.3470   54.4780 N.am  378  LYS378     -0.1980
     99  CA       -73.4040   57.9100   54.3360 C.3   378  LYS378      0.1596
    100  C        -73.6350   58.9230   55.4380 C.2   378  LYS378      0.2287
    101  O        -74.2170   59.9910   55.2450 O.2   378  LYS378     -0.2864
    102  CB       -74.4710   56.8120   54.4540 C.3   378  LYS378      0.0298
    103  CG       -74.5810   55.9420   53.2340 C.3   378  LYS378      0.0038
    104  CD       -74.5880   54.4540   53.5530 C.3   378  LYS378      0.0206
    105  CE       -75.9510   53.9740   54.0280 C.3   378  LYS378      0.1093
    106  NZ       -76.0680   52.4650   54.0350 N.3   378  LYS378     -0.1314
    107  N        -71.3680   62.1530   54.7980 N.3   381  ALA381     -0.1231
    108  CA       -71.7190   62.8980   53.5890 C.3   381  ALA381      0.1694
    109  C        -73.1350   63.3680   53.8270 C.2   381  ALA381      0.2592
    110  O        -73.6490   64.2730   53.1890 O.2   381  ALA381     -0.2718
    111  CB       -71.6510   61.9850   52.3740 C.3   381  ALA381      0.0304
    112  N        -73.7320   62.7310   54.8100 N.am  382  HIS382     -0.1962
    113  CA       -75.0920   62.9840   55.2220 C.3   382  HIS382      0.1787
    114  C        -75.7260   64.3310   54.9520 C.2   382  HIS382      0.2620
    115  O        -75.0910   65.3940   55.0160 O.2   382  HIS382     -0.2715
    116  CB       -75.2430   62.6950   56.7070 C.3   382  HIS382      0.0785
    117  CG       -76.6260   62.2990   57.0960 C.ar  382  HIS382      0.0821
    118  ND1      -77.0340   60.9840   57.1350 N.ar  382  HIS382     -0.2267
    119  CD2      -77.7110   63.0450   57.4010 C.ar  382  HIS382      0.1154
    120  CE1      -78.3160   60.9380   57.4480 C.ar  382  HIS382      0.1986
    121  NE2      -78.7500   62.1750   57.6140 N.ar  382  HIS382     -0.2212
    122  N        -77.0220   64.2200   54.6720 N.am  383  ILE383     -0.1977
    123  CA       -77.9270   65.3180   54.3890 C.3   383  ILE383      0.1596
    124  C        -77.5670   66.4280   55.3910 C.2   383  ILE383      0.2287
    125  O        -76.9200   67.4150   55.0260 O.2   383  ILE383     -0.2864
    126  CB       -79.4270   64.8060   54.5540 C.3   383  ILE383      0.0276
    127  CG1      -79.6640   63.5260   53.7050 C.3   383  ILE383      0.0022
    128  CG2      -80.4050   65.9340   54.2090 C.3   383  ILE383      0.0022
    129  CD1      -81.0030   62.8840   53.8530 C.3   383  ILE383      0.0001
@<TRIPOS>BOND
     1    41    42    1
     2    41    40    1
     3    42    36    1
     4    40    37    1
     5    46    45    2
     6    15    17   ar
     7    15    14   ar
     8    25    26    2
     9    25    24    1
    10    17    18   ar
    11    45    44    1
    12    12    11    2
    13    36    37    1
    14    43    44    1
    15    43    38   am
    16    44    47    1
    17    14    13    1
    18    14    16   ar
    19    24    23    1
    20    24    27    1
    21    51    52    1
    22    13    10    1
    23    37    38    1
    24    28    27    1
    25    11    23   am
    26    11    10    1
    27    18    16   ar
    28    18    20   ar
    29    38    39    2
    30    16    19   ar
    31    53    52    1
    32    53    54    2
    33    20    22   ar
    34    10     9    1
    35    27    29    1
    36     5     6    1
    37     5     2    1
    38     9     3   am
    39    52    55    1
    40    49    48   ar
    41     8     6   ar
    42     6     7   ar
    43    47    48    1
    44    32    33    2
    45    32    31    1
    46    55    56    1
    47    19    21   ar
    48    30    31    1
    49     1     2    1
    50    22    21   ar
    51     3     2    1
    52     3     4    2
    53    48    50   ar
    54    63    64    2
    55    63    62    1
    56    61    62    1
    57    31    34    1
    58    65    62    1
    59    65    66    1
    60    56    58   ar
    61    56    57   ar
    62    66    67    1
    63    97    96    1
    64    34    35    1
    65    58    60   ar
    66    57    59   ar
    67    68    67    1
    68    68    69    2
    69    85    84   ar
    70    85    83   ar
    71    96    95   ar
    72    96    94   ar
    73    71    69    1
    74    84    82   ar
    75    59    60   ar
    76    69    70    1
    77    95    93   ar
    78    83    81   ar
    79    94    92   ar
    80    82    79   ar
    81    93    91   ar
    82    81    79   ar
    83    81    80   ar
    84    92    91   ar
    85    79    77   ar
    86    91    90    1
    87   111   108    1
    88    80    78   ar
    89    77    78   ar
    90    77    76    1
    91   110   109    2
    92   103   104    1
    93   103   102    1
    94    90    87    1
    95   104   105    1
    96   108   109    1
    97   108   107    1
    98   127   129    1
    99   127   126    1
   100    76    73    1
   101   109   112   am
   102    73    72    1
   103    73    74    1
   104   105   106    1
   105   128   126    1
   106    99   102    1
   107    99    98    1
   108    99   100    1
   109   123   126    1
   110   123   122    1
   111   123   124    1
   112    89    88    2
   113    98    88   am
   114    88    87    1
   115   122   114   am
   116    87    86    1
   117    75    74    2
   118   112   113    1
   119   114   115    2
   120   114   113    1
   121   125   124    2
   122   113   116    1
   123   101   100    2
   124   116   117    1
   125   117   118   ar
   126   117   119   ar
   127   118   120   ar
   128   119   121   ar
   129   120   121   ar
