@<TRIPOS>MOLECULE
tmp/3o8oE01.pdb
 135 128 0 0 0
SMALL
GASTEIGER

@<TRIPOS>ATOM
      1  N        -11.9980    4.2350  127.4390 N.3   400  GLY400     -0.1210
      2  CA       -11.5980    3.5200  128.6480 C.3   400  GLY400      0.1956
      3  C        -11.7530    1.9980  128.6580 C.2   400  GLY400      0.2612
      4  O        -12.1270    1.3820  127.6640 O.2   400  GLY400     -0.2717
      5  N        -11.4390    1.3760  129.7890 N.am  401  ALA401     -0.1966
      6  CA       -11.6300   -0.0620  129.9050 C.3   401  ALA401      0.1713
      7  C        -13.1400   -0.2330  129.9340 C.2   401  ALA401      0.2458
      8  O        -13.8770    0.6750  130.3400 O.2   401  ALA401     -0.2730
      9  CB       -11.0150   -0.5820  131.1860 C.3   401  ALA401      0.0333
     10  N        -13.6310   -1.3960  129.5190 N.am  402  PRO402     -0.2727
     11  CA       -15.0880   -1.6570  129.4910 C.3   402  PRO402      0.1402
     12  C        -15.7920   -1.6160  130.8180 C.2   402  PRO402      0.2269
     13  O        -15.2590   -2.1080  131.7920 O.2   402  PRO402     -0.2865
     14  CB       -15.1900   -3.0230  128.8480 C.3   402  PRO402      0.0296
     15  CG       -13.8720   -3.1300  128.0160 C.3   402  PRO402      0.0237
     16  CD       -12.8520   -2.4680  128.8860 C.3   402  PRO402      0.0939
     17  N         -8.5430    2.5900  125.9320 N.3   463  ARG463     -0.1245
     18  CA        -7.9110    3.6980  126.6570 C.3   463  ARG463      0.1563
     19  C         -7.2740    4.8290  125.8590 C.2   463  ARG463      0.2260
     20  O         -6.9910    5.8890  126.4070 O.2   463  ARG463     -0.2867
     21  CB        -6.8770    3.1500  127.6570 C.3   463  ARG463      0.0307
     22  CG        -7.4390    2.3250  128.7770 C.3   463  ARG463      0.0489
     23  CD        -6.3100    1.7070  129.5970 C.3   463  ARG463      0.2205
     24  NE        -6.8320    0.8280  130.6490 N.pl3 463  ARG463     -0.0865
     25  CZ        -7.5060    1.2410  131.7220 C.cat 463  ARG463      0.5346
     26  NH1       -7.7450    2.5310  131.9270 N.pl3 463  ARG463      0.1354
     27  NH2       -7.9890    0.3570  132.5780 N.pl3 463  ARG463      0.1354
     28  N        -13.9640    6.4390  131.5400 N.3   490  GLY490     -0.1210
     29  CA       -13.3010    6.7680  132.7780 C.3   490  GLY490      0.1956
     30  C        -12.3230    7.9070  132.7350 C.2   490  GLY490      0.2612
     31  O        -12.5380    8.8720  132.0230 O.2   490  GLY490     -0.2717
     32  N        -11.2360    7.8020  133.4880 N.am  491  PHE491     -0.1962
     33  CA       -10.3020    8.9050  133.5270 C.3   491  PHE491      0.1771
     34  C         -9.8750    9.3230  132.1310 C.2   491  PHE491      0.2619
     35  O         -9.9760   10.5070  131.8220 O.2   491  PHE491     -0.2715
     36  CB        -9.0690    8.5810  134.3850 C.3   491  PHE491      0.0574
     37  CG        -8.2910    9.8050  134.7920 C.ar  491  PHE491     -0.0200
     38  CD1       -8.8050   10.6720  135.7520 C.ar  491  PHE491     -0.0042
     39  CD2       -7.0900   10.1270  134.1640 C.ar  491  PHE491     -0.0042
     40  CE1       -8.1580   11.8310  136.0840 C.ar  491  PHE491     -0.0003
     41  CE2       -6.4180   11.3030  134.4900 C.ar  491  PHE491     -0.0003
     42  CZ        -6.9590   12.1570  135.4570 C.ar  491  PHE491     -0.0000
     43  N         -9.4200    8.3740  131.2970 N.am  492  GLU492     -0.1977
     44  CA        -8.9890    8.6930  129.9320 C.3   492  GLU492      0.1602
     45  C        -10.0660    9.4680  129.2010 C.2   492  GLU492      0.2287
     46  O         -9.7640   10.2650  128.3230 O.2   492  GLU492     -0.2864
     47  CB        -8.6800    7.4410  129.1190 C.3   492  GLU492      0.0415
     48  CG        -7.2820    6.9040  129.2980 C.3   492  GLU492      0.1163
     49  CD        -7.0230    6.3540  130.6880 C.2   492  GLU492      0.3649
     50  OE1       -7.5420    5.2630  131.0130 O.co2 492  GLU492     -0.2457
     51  OE2       -6.3020    7.0260  131.4540 O.co2 492  GLU492     -0.2457
     52  N        -16.8820    3.7120  134.7810 N.3   520  THR520     -0.1203
     53  CA       -15.7320    2.9060  135.1490 C.3   520  THR520      0.1994
     54  C        -16.0470    2.2740  136.4820 C.2   520  THR520      0.2618
     55  O        -16.7040    2.8840  137.3000 O.2   520  THR520     -0.2717
     56  CB       -14.5010    3.7960  135.2790 C.3   520  THR520      0.1784
     57  OG1      -13.4100    3.0240  135.7970 O.3   520  THR520     -0.2211
     58  CG2      -14.8410    5.0370  136.1750 C.3   520  THR520      0.0376
     59  N        -15.5950    1.0460  136.6890 N.am  521  VAL521     -0.1965
     60  CA       -15.8420    0.3490  137.9440 C.3   521  VAL521      0.1727
     61  C        -15.1310    1.0980  139.0760 C.2   521  VAL521      0.2616
     62  O        -15.5870    1.1150  140.2130 O.2   521  VAL521     -0.2715
     63  CB       -15.2820   -1.0790  137.9140 C.3   521  VAL521      0.0290
     64  CG1      -15.8220   -1.8440  136.7380 C.3   521  VAL521      0.0023
     65  CG2      -13.7390   -1.0380  137.8450 C.3   521  VAL521      0.0023
     66  N        -14.0270    1.7420  138.7330 N.am  522  SER522     -0.1950
     67  CA       -13.2010    2.4730  139.6670 C.3   522  SER522      0.1924
     68  C        -13.7400    3.6820  140.3670 C.2   522  SER522      0.2314
     69  O        -13.2110    4.0740  141.4080 O.2   522  SER522     -0.2863
     70  CB       -11.9220    2.9000  138.9730 C.3   522  SER522      0.2116
     71  OG       -11.3030    1.7750  138.4070 O.3   522  SER522     -0.2180
     72  N        -13.2130    6.5510  139.7420 N.3   524  ASN524     -0.1240
     73  CA       -12.0810    7.4290  139.8800 C.3   524  ASN524      0.1653
     74  C        -12.1260    8.6070  138.9250 C.2   524  ASN524      0.2266
     75  O        -11.0620    9.0570  138.4720 O.2   524  ASN524     -0.2867
     76  CB       -10.7930    6.6760  139.6080 C.3   524  ASN524      0.1155
     77  CG       -10.6370    6.3350  138.1470 C.2   524  ASN524      0.2627
     78  OD1      -11.6110    6.3540  137.4100 O.2   524  ASN524     -0.2716
     79  ND2       -9.4190    6.0000  137.7210 N.am  524  ASN524     -0.0877
     80  N        -10.0890   -3.9630  142.2610 N.3   565  GLN565     -0.1231
     81  CA        -9.6510   -2.9620  141.2970 C.3   565  GLN565      0.1698
     82  C         -9.9250   -1.5290  141.7450 C.2   565  GLN565      0.2593
     83  O        -10.2420   -1.2950  142.9120 O.2   565  GLN565     -0.2718
     84  CB       -10.3130   -3.2170  139.9500 C.3   565  GLN565      0.0381
     85  CG        -9.6860   -4.3670  139.1860 C.3   565  GLN565      0.0905
     86  CD       -10.3190   -4.6220  137.8240 C.2   565  GLN565      0.2608
     87  OE1       -9.8860   -5.5040  137.0850 O.2   565  GLN565     -0.2717
     88  NE2      -11.3410   -3.8510  137.4890 N.am  565  GLN565     -0.0878
     89  N         -9.7890   -0.5730  140.8220 N.am  566  GLY566     -0.1942
     90  CA       -10.0390    0.8250  141.1480 C.3   566  GLY566      0.2014
     91  C         -8.8270    1.7340  141.0150 C.2   566  GLY566      0.2639
     92  O         -8.8620    2.8980  141.4300 O.2   566  GLY566     -0.2714
     93  N         -7.7540    1.2030  140.4380 N.am  567  GLY567     -0.1954
     94  CA        -6.5390    1.9790  140.2700 C.3   567  GLY567      0.1869
     95  C         -6.0240    2.5710  141.5750 C.2   567  GLY567      0.2309
     96  O         -5.8310    1.8590  142.5400 O.2   567  GLY567     -0.2863
     97  N         -5.8700   -2.6410  144.4240 N.3   625  GLU625     -0.1245
     98  CA        -4.9310   -2.8910  143.3350 C.3   625  GLU625      0.1567
     99  C         -3.5820   -2.1790  143.4000 C.2   625  GLU625      0.2260
    100  O         -2.5670   -2.7600  143.0580 O.2   625  GLU625     -0.2867
    101  CB        -5.6470   -2.5050  142.0460 C.3   625  GLU625      0.0388
    102  CG        -5.2600   -3.2090  140.7860 C.3   625  GLU625      0.1160
    103  CD        -6.2210   -2.8440  139.6700 C.2   625  GLU625      0.3649
    104  OE1       -6.5230   -1.6360  139.5200 O.co2 625  GLU625     -0.2457
    105  OE2       -6.6790   -3.7550  138.9460 O.co2 625  GLU625     -0.2457
    106  N        -10.7760   -9.0750  136.0520 N.3   657  HIS657     -0.1241
    107  CA       -11.6790   -8.5060  135.0730 C.3   657  HIS657      0.1621
    108  C        -13.1490   -8.8040  135.2100 C.2   657  HIS657      0.2264
    109  O        -13.9540   -8.1610  134.5420 O.2   657  HIS657     -0.2867
    110  CB       -11.1790   -8.8090  133.6500 C.3   657  HIS657      0.0745
    111  CG       -10.0130   -7.9590  133.2370 C.ar  657  HIS657      0.0817
    112  ND1       -8.7430   -8.1480  133.7400 N.ar  657  HIS657     -0.2268
    113  CD2       -9.9400   -6.8570  132.4470 C.ar  657  HIS657      0.1154
    114  CE1       -7.9400   -7.1980  133.2830 C.ar  657  HIS657      0.1986
    115  NE2       -8.6420   -6.4030  132.4960 N.ar  657  HIS657     -0.2212
    116  N        -15.6780   -6.0920  136.0030 N.3   660  GLN660     -0.1245
    117  CA       -16.2400   -5.2690  134.9390 C.3   660  GLN660      0.1566
    118  C        -17.6910   -5.6170  134.7590 C.2   660  GLN660      0.2260
    119  O        -18.4870   -4.7820  134.3450 O.2   660  GLN660     -0.2867
    120  CB       -15.5000   -5.4730  133.6370 C.3   660  GLN660      0.0367
    121  CG       -14.1920   -4.7150  133.5610 C.3   660  GLN660      0.0905
    122  CD       -13.4680   -4.9690  132.2650 C.2   660  GLN660      0.2608
    123  OE1      -12.3040   -4.5750  132.1030 O.2   660  GLN660     -0.2717
    124  NE2      -14.1490   -5.6450  131.3190 N.am  660  GLN660     -0.0878
    125  N         -4.3140    9.4780  138.4270 N.3   724  ARG724     -0.1245
    126  CA        -5.5310    9.4500  137.6250 C.3   724  ARG724      0.1563
    127  C         -6.8250    9.3660  138.4040 C.2   724  ARG724      0.2260
    128  O         -7.6290    8.5160  138.1180 O.2   724  ARG724     -0.2867
    129  CB        -5.4940    8.2390  136.6950 C.3   724  ARG724      0.0307
    130  CG        -4.3240    8.1840  135.7190 C.3   724  ARG724      0.0489
    131  CD        -4.2290    6.8100  135.0130 C.3   724  ARG724      0.2205
    132  NE        -5.4430    6.3900  134.2950 N.pl3 724  ARG724     -0.0865
    133  CZ        -6.3390    5.5200  134.7550 C.cat 724  ARG724      0.5346
    134  NH1       -6.1780    4.9700  135.9440 N.pl3 724  ARG724      0.1354
    135  NH2       -7.3740    5.1650  134.0180 N.pl3 724  ARG724      0.1354
@<TRIPOS>BOND
     1    19    20    2
     2    19    18    1
     3    17    18    1
     4    18    21    1
     5     1     2    1
     6    21    22    1
     7     4     3    2
     8    15    14    1
     9    15    16    1
    10    46    45    2
    11     2     3    1
    12     3     5   am
    13    22    23    1
    14    14    11    1
    15    16    10    1
    16    47    48    1
    17    47    44    1
    18    45    44    1
    19    48    49    1
    20    11    10    1
    21    11    12    1
    22    10     7   am
    23    23    24    1
    24     5     6    1
    25     6     7    1
    26     6     9    1
    27    44    43    1
    28     7     8    2
    29    24    25    2
    30    49    50   ar
    31    49    51   ar
    32    12    13    2
    33    43    34   am
    34   124   122   am
    35    28    29    1
    36    25    26    1
    37    25    27    1
    38    35    34    2
    39    31    30    2
    40   123   122    2
    41    34    33    1
    42   122   121    1
    43   113   115   ar
    44   113   111   ar
    45   115   114   ar
    46    30    29    1
    47    30    32   am
    48   111   110    1
    49   111   112   ar
    50   114   112   ar
    51    32    33    1
    52    33    36    1
    53   121   120    1
    54   120   117    1
    55   110   107    1
    56   135   133    1
    57    39    41   ar
    58    39    37   ar
    59   132   133    2
    60   132   131    1
    61   119   118    2
    62    36    37    1
    63    41    42   ar
    64   109   108    2
    65   133   134    1
    66   118   117    1
    67    52    53    1
    68    37    38   ar
    69   117   116    1
    70   131   130    1
    71   107   108    1
    72   107   106    1
    73    53    56    1
    74    53    54    1
    75    56    57    1
    76    56    58    1
    77    42    40   ar
    78   130   129    1
    79    38    40   ar
    80    54    59   am
    81    54    55    2
    82    59    60    1
    83   129   126    1
    84    64    63    1
    85    87    86    2
    86    78    77    2
    87    88    86   am
    88   126   127    1
    89   126   125    1
    90    79    77   am
    91    86    85    1
    92    65    63    1
    93    63    60    1
    94    60    61    1
    95   128   127    2
    96    77    76    1
    97    71    70    1
    98    75    74    2
    99    66    61   am
   100    66    67    1
   101    74    73    1
   102   105   103   ar
   103    70    67    1
   104    61    62    2
   105    85    84    1
   106   104   103   ar
   107    76    73    1
   108    67    68    1
   109   103   102    1
   110    72    73    1
   111    84    81    1
   112    94    93    1
   113    94    95    1
   114    68    69    2
   115    93    91   am
   116   102   101    1
   117    89    90    1
   118    89    82   am
   119    91    90    1
   120    91    92    2
   121    81    82    1
   122    81    80    1
   123    95    96    2
   124    82    83    2
   125   101    98    1
   126   100    99    2
   127    98    99    1
   128    98    97    1
