@<TRIPOS>MOLECULE
tmp/3o8oD01.pdb
 114 108 0 0 0
SMALL
GASTEIGER

@<TRIPOS>ATOM
      1  N          7.5940   90.9050  121.1630 N.3   402  ALA402     -0.1231
      2  CA         7.4000   89.8750  122.1940 C.3   402  ALA402      0.1679
      3  C          7.6290   90.4450  123.5570 C.2   402  ALA402      0.2434
      4  O          8.3720   91.4030  123.7200 O.2   402  ALA402     -0.2733
      5  CB         8.3650   88.7180  122.0050 C.3   402  ALA402      0.0304
      6  N          6.9960   89.8650  124.5700 N.am  403  PRO403     -0.2729
      7  CA         7.2270   90.4150  125.8970 C.3   403  PRO403      0.1401
      8  C          8.6740   90.1550  126.2500 C.2   403  PRO403      0.2269
      9  O          9.3120   89.3580  125.6110 O.2   403  PRO403     -0.2865
     10  CB         6.2530   89.6360  126.7600 C.3   403  PRO403      0.0296
     11  CG         6.0520   88.3620  126.0060 C.3   403  PRO403      0.0237
     12  CD         5.9440   88.8420  124.6060 C.3   403  PRO403      0.0939
     13  N          2.7200   92.1460  117.6170 N.3   464  ARG464     -0.1245
     14  CA         3.7030   92.4110  116.5910 C.3   464  ARG464      0.1563
     15  C          3.1340   93.2060  115.4500 C.2   464  ARG464      0.2260
     16  O          3.7690   93.3300  114.3970 O.2   464  ARG464     -0.2867
     17  CB         4.2980   91.0920  116.0670 C.3   464  ARG464      0.0307
     18  CG         5.2170   90.3550  117.0540 C.3   464  ARG464      0.0489
     19  CD         5.6970   89.0650  116.4660 C.3   464  ARG464      0.2205
     20  NE         6.3630   88.2100  117.4460 N.pl3 464  ARG464     -0.0865
     21  CZ         7.6300   88.3320  117.8420 C.cat 464  ARG464      0.5346
     22  NH1        8.4030   89.2910  117.3470 N.pl3 464  ARG464      0.1354
     23  NH2        8.1330   87.4730  118.7240 N.pl3 464  ARG464      0.1354
     24  N         10.9090   95.0460  120.5600 N.3   492  GLY492     -0.1210
     25  CA        11.9190   94.4410  119.7050 C.3   492  GLY492      0.1956
     26  C         12.0100   94.9440  118.2800 C.2   492  GLY492      0.2611
     27  O         11.7660   96.1200  118.0150 O.2   492  GLY492     -0.2717
     28  N         12.3400   94.0510  117.3530 N.am  493  PHE493     -0.1976
     29  CA        12.4840   94.4850  115.9820 C.3   493  PHE493      0.1639
     30  C         11.2440   95.0290  115.3460 C.2   493  PHE493      0.2290
     31  O         11.3640   95.7540  114.3560 O.2   493  PHE493     -0.2864
     32  CB        12.9980   93.3950  115.0790 C.3   493  PHE493      0.0560
     33  CG        13.5950   93.9170  113.8280 C.ar  493  PHE493     -0.0200
     34  CD1       14.8730   94.4650  113.8460 C.ar  493  PHE493     -0.0042
     35  CD2       12.9000   93.8480  112.6230 C.ar  493  PHE493     -0.0042
     36  CE1       15.4750   94.9390  112.6640 C.ar  493  PHE493     -0.0003
     37  CE2       13.4760   94.3150  111.4270 C.ar  493  PHE493     -0.0003
     38  CZ        14.7720   94.8600  111.4450 C.ar  493  PHE493     -0.0000
     39  N         14.0990   92.6550  123.7590 N.3   522  THR522     -0.1203
     40  CA        13.8540   91.3470  123.1970 C.3   522  THR522      0.1994
     41  C         14.9650   90.4630  123.7520 C.2   522  THR522      0.2618
     42  O         16.1310   90.8470  123.7300 O.2   522  THR522     -0.2717
     43  CB        13.9220   91.3680  121.6540 C.3   522  THR522      0.1784
     44  OG1       14.3320   90.0810  121.1760 O.3   522  THR522     -0.2211
     45  CG2       14.9160   92.3780  121.1800 C.3   522  THR522      0.0376
     46  N         14.6120   89.2880  124.2580 N.am  523  LEU523     -0.1965
     47  CA        15.6200   88.4180  124.8040 C.3   523  LEU523      0.1728
     48  C         16.6240   88.0480  123.7460 C.2   523  LEU523      0.2616
     49  O         17.7000   87.5640  124.0670 O.2   523  LEU523     -0.2715
     50  CB        14.9740   87.1680  125.3850 C.3   523  LEU523      0.0311
     51  CG        14.1410   86.3210  124.4510 C.3   523  LEU523      0.0022
     52  CD1       15.0620   85.4460  123.6410 C.3   523  LEU523      0.0001
     53  CD2       13.1650   85.4770  125.2720 C.3   523  LEU523      0.0001
     54  N         16.2980   88.3140  122.4880 N.am  524  SER524     -0.1950
     55  CA        17.1950   87.9820  121.3950 C.3   524  SER524      0.1924
     56  C         18.3370   88.9260  121.1740 C.2   524  SER524      0.2314
     57  O         19.3490   88.5420  120.6010 O.2   524  SER524     -0.2863
     58  CB        16.4290   87.8850  120.0990 C.3   524  SER524      0.2116
     59  OG        15.2900   87.1110  120.3140 O.3   524  SER524     -0.2180
     60  N         18.5100   91.4230  119.0850 N.3   526  ASN526     -0.1240
     61  CA        18.6390   91.5730  117.6350 C.3   526  ASN526      0.1653
     62  C         18.2800   92.9680  117.1110 C.2   526  ASN526      0.2266
     63  O         18.2230   93.1850  115.8910 O.2   526  ASN526     -0.2867
     64  CB        17.7430   90.5680  116.9170 C.3   526  ASN526      0.1155
     65  CG        16.2790   90.8120  117.1860 C.2   526  ASN526      0.2627
     66  OD1       15.8830   91.1670  118.2950 O.2   526  ASN526     -0.2716
     67  ND2       15.4640   90.6080  116.1820 N.am  526  ASN526     -0.0877
     68  N         16.4720   80.1720  121.6650 N.3   567  GLN567     -0.1231
     69  CA        15.7710   81.2350  120.9560 C.3   567  GLN567      0.1698
     70  C         16.7380   82.2960  120.4660 C.2   567  GLN567      0.2593
     71  O         17.9660   82.1260  120.5520 O.2   567  GLN567     -0.2718
     72  CB        14.7050   81.8870  121.8380 C.3   567  GLN567      0.0381
     73  CG        13.4380   81.0700  121.9050 C.3   567  GLN567      0.0905
     74  CD        12.2940   81.7640  122.5980 C.2   567  GLN567      0.2608
     75  OE1       11.2110   81.1970  122.7370 O.2   567  GLN567     -0.2717
     76  NE2       12.5170   82.9930  123.0360 N.am  567  GLN567     -0.0878
     77  N         16.1860   83.3830  119.9310 N.am  568  GLY568     -0.1942
     78  CA        17.0200   84.4570  119.4340 C.3   568  GLY568      0.2014
     79  C         16.9190   84.6910  117.9410 C.2   568  GLY568      0.2639
     80  O         17.7420   85.4080  117.3620 O.2   568  GLY568     -0.2714
     81  N         15.9220   84.0960  117.2990 N.am  569  GLY569     -0.1954
     82  CA        15.7770   84.2930  115.8730 C.3   569  GLY569      0.1869
     83  C         17.0650   84.0910  115.0860 C.2   569  GLY569      0.2309
     84  O         17.6050   82.9880  115.0650 O.2   569  GLY569     -0.2863
     85  N          9.3460   78.6450  125.6160 N.3   659  HIS659     -0.1241
     86  CA         9.0330   79.9560  126.1400 C.3   659  HIS659      0.1621
     87  C          9.4980   80.2570  127.5310 C.2   659  HIS659      0.2264
     88  O          9.4350   81.3990  127.9310 O.2   659  HIS659     -0.2867
     89  CB         7.5470   80.2450  126.0220 C.3   659  HIS659      0.0745
     90  CG         7.1350   80.6900  124.6510 C.ar  659  HIS659      0.0817
     91  ND1        6.8200   79.8070  123.6410 N.ar  659  HIS659     -0.2268
     92  CD2        7.0150   81.9290  124.1130 C.ar  659  HIS659      0.1154
     93  CE1        6.5190   80.4830  122.5430 C.ar  659  HIS659      0.1986
     94  NE2        6.6300   81.7710  122.8030 N.ar  659  HIS659     -0.2212
     95  N         11.7320   83.2950  128.2990 N.3   662  GLN662     -0.1245
     96  CA        11.3850   84.6600  128.5780 C.3   662  GLN662      0.1566
     97  C         11.5330   84.8790  130.0530 C.2   662  GLN662      0.2260
     98  O         11.4390   85.9990  130.5200 O.2   662  GLN662     -0.2867
     99  CB         9.9750   84.9500  128.1270 C.3   662  GLN662      0.0367
    100  CG         9.8780   84.9930  126.6360 C.3   662  GLN662      0.0905
    101  CD         8.4860   85.2980  126.1430 C.2   662  GLN662      0.2608
    102  OE1        7.6030   85.5980  126.9280 O.2   662  GLN662     -0.2717
    103  NE2        8.2830   85.2310  124.8360 N.am  662  GLN662     -0.0878
    104  N         15.4120   90.6640  110.1710 N.3   741  ARG741     -0.1245
    105  CA        15.2180   91.2420  111.4770 C.3   741  ARG741      0.1563
    106  C         16.4340   91.3070  112.3950 C.2   741  ARG741      0.2260
    107  O         16.3680   90.8510  113.5260 O.2   741  ARG741     -0.2867
    108  CB        14.0810   90.5180  112.1980 C.3   741  ARG741      0.0307
    109  CG        12.7330   90.5390  111.4700 C.3   741  ARG741      0.0489
    110  CD        11.5850   90.4020  112.4670 C.3   741  ARG741      0.2205
    111  NE        11.9380   89.4200  113.4740 N.pl3 741  ARG741     -0.0865
    112  CZ        11.7060   89.5510  114.7770 C.cat 741  ARG741      0.5346
    113  NH1       12.0830   88.5890  115.6120 N.pl3 741  ARG741      0.1354
    114  NH2       11.0880   90.6230  115.2460 N.pl3 741  ARG741      0.1354
@<TRIPOS>BOND
     1   104   105    1
     2    37    38   ar
     3    37    35   ar
     4    38    36   ar
     5   109   108    1
     6   109   110    1
     7   105   108    1
     8   105   106    1
     9   106   107    2
    10   110   111    1
    11    35    33   ar
    12    36    34   ar
    13   111   112    2
    14    33    34   ar
    15    33    32    1
    16    31    30    2
    17    16    15    2
    18   112   114    1
    19   112   113    1
    20    84    83    2
    21    32    29    1
    22    83    82    1
    23    30    29    1
    24    15    14    1
    25    82    81    1
    26    63    62    2
    27    29    28    1
    28    17    14    1
    29    17    18    1
    30    67    65   am
    31    19    18    1
    32    19    20    1
    33    14    13    1
    34    64    65    1
    35    64    61    1
    36    62    61    1
    37    65    66    2
    38    81    79   am
    39    22    21    1
    40    28    26   am
    41    80    79    2
    42    20    21    2
    43    61    60    1
    44    21    23    1
    45    79    78    1
    46    27    26    2
    47    26    25    1
    48    78    77    1
    49    25    24    1
    50    77    70   am
    51    58    59    1
    52    58    55    1
    53    70    71    2
    54    70    69    1
    55    57    56    2
    56    69    68    1
    57    69    72    1
    58     1     2    1
    59    56    55    1
    60    44    43    1
    61    45    43    1
    62    55    54    1
    63    43    40    1
    64    72    73    1
    65    73    74    1
    66     5     2    1
    67     2     3    1
    68    54    48   am
    69    93    94   ar
    70    93    91   ar
    71    74    75    2
    72    74    76   am
    73    94    92   ar
    74    40    41    1
    75    40    39    1
    76     3     4    2
    77     3     6   am
    78    52    51    1
    79    91    90   ar
    80    42    41    2
    81    48    49    2
    82    48    47    1
    83    41    46   am
    84    92    90   ar
    85    46    47    1
    86    51    53    1
    87    51    50    1
    88     6    12    1
    89     6     7    1
    90    12    11    1
    91    90    89    1
    92    47    50    1
    93   103   101   am
    94     9     8    2
    95    85    86    1
    96     7     8    1
    97     7    10    1
    98    11    10    1
    99    89    86    1
   100    86    87    1
   101   101   100    1
   102   101   102    2
   103   100    99    1
   104    87    88    2
   105    99    96    1
   106    95    96    1
   107    96    97    1
   108    97    98    2
