@<TRIPOS>MOLECULE
tmp/3o8oD00.pdb
 79 74 0 0 0
SMALL
GASTEIGER

@<TRIPOS>ATOM
      1  N         36.4660   86.8790  151.8150 N.3    12  GLY12      -0.1225
      2  CA        35.1000   86.3930  151.7450 C.3    12  GLY12       0.1811
      3  C         34.8240   85.8140  150.3740 C.2    12  GLY12       0.2280
      4  O         35.1890   86.4190  149.3490 O.2    12  GLY12      -0.2866
      5  N         33.9290   89.8240  145.0620 N.3   152  SER152     -0.1202
      6  CA        33.2920   90.3230  146.2680 C.3   152  SER152      0.2020
      7  C         31.8510   90.6830  145.9540 C.2   152  SER152      0.2619
      8  O         31.5620   91.1040  144.8460 O.2   152  SER152     -0.2717
      9  CB        34.0390   91.5440  146.7520 C.3   152  SER152      0.2103
     10  OG        33.3970   92.0700  147.8800 O.3   152  SER152     -0.2182
     11  N         30.9350   90.5120  146.8960 N.am  153  ILE153     -0.1965
     12  CA        29.5570   90.8610  146.5820 C.3   153  ILE153      0.1727
     13  C         29.3040   92.3460  146.8240 C.2   153  ILE153      0.2616
     14  O         28.2590   92.8770  146.4300 O.2   153  ILE153     -0.2715
     15  CB        28.5030   90.0560  147.4330 C.3   153  ILE153      0.0290
     16  CG1       28.7400   90.2620  148.9250 C.3   153  ILE153      0.0022
     17  CG2       28.5650   88.5890  147.1100 C.3   153  ILE153      0.0023
     18  CD1       27.6220   89.7140  149.7890 C.3   153  ILE153      0.0001
     19  N         30.2640   93.0190  147.4570 N.am  154  ASP154     -0.1971
     20  CA        30.0900   94.4270  147.8000 C.3   154  ASP154      0.1709
     21  C         30.2090   95.4420  146.6770 C.2   154  ASP154      0.2293
     22  O         29.5960   96.5020  146.7360 O.2   154  ASP154     -0.2864
     23  CB        31.0530   94.8200  148.9140 C.3   154  ASP154      0.1436
     24  CG        30.9520   93.9180  150.1460 C.2   154  ASP154      0.3671
     25  OD1       29.8400   93.4420  150.4930 O.co2 154  ASP154     -0.2456
     26  OD2       32.0110   93.7130  150.7860 O.co2 154  ASP154     -0.2456
     27  N         23.6330   93.5730  152.9820 N.3   196  MET196     -0.1230
     28  CA        25.1010   93.5850  153.1400 C.3   196  MET196      0.1702
     29  C         25.7740   94.6870  152.3260 C.2   196  MET196      0.2593
     30  O         25.1170   95.6180  151.8680 O.2   196  MET196     -0.2718
     31  CB        25.7270   92.2580  152.7140 C.3   196  MET196      0.0401
     32  CG        25.4660   91.0710  153.6090 C.3   196  MET196      0.0596
     33  SD        26.7630   89.7900  153.3900 S.3   196  MET196     -0.1393
     34  CE        26.4210   88.7510  154.8510 C.3   196  MET196      0.0692
     35  N         27.0840   94.5690  152.1260 N.am  197  GLY197     -0.1942
     36  CA        27.7970   95.5730  151.3630 C.3   197  GLY197      0.2014
     37  C         28.9220   96.2340  152.1430 C.2   197  GLY197      0.2638
     38  O         29.6290   97.1000  151.6140 O.2   197  GLY197     -0.2714
     39  N         29.1010   95.8260  153.3970 N.am  198  ARG198     -0.1977
     40  CA        30.1420   96.3850  154.2460 C.3   198  ARG198      0.1597
     41  C         30.0020   97.9100  154.3180 C.2   198  ARG198      0.2287
     42  O         29.0900   98.4290  154.9590 O.2   198  ARG198     -0.2864
     43  CB        31.5000   95.9990  153.6880 C.3   198  ARG198      0.0334
     44  CG        32.6650   96.3520  154.5850 C.3   198  ARG198      0.0492
     45  CD        33.9570   95.9270  153.9610 C.3   198  ARG198      0.2205
     46  NE        33.9730   94.4840  153.7860 N.pl3 198  ARG198     -0.0865
     47  CZ        34.3270   93.6390  154.7460 C.cat 198  ARG198      0.5346
     48  NH1       34.6970   94.1250  155.9240 N.pl3 198  ARG198      0.1354
     49  NH2       34.2910   92.3220  154.5450 N.pl3 198  ARG198      0.1354
     50  N         23.9200   97.8330  155.3580 N.3   253  GLU253     -0.1245
     51  CA        24.3890   97.4390  156.6750 C.3   253  GLU253      0.1567
     52  C         25.3090   98.4980  157.2460 C.2   253  GLU253      0.2260
     53  O         25.3230   98.7100  158.4490 O.2   253  GLU253     -0.2867
     54  CB        25.0950   96.0720  156.6350 C.3   253  GLU253      0.0388
     55  CG        26.4690   96.0450  155.9900 C.3   253  GLU253      0.1160
     56  CD        27.0610   94.6480  155.9820 C.2   253  GLU253      0.3649
     57  OE1       26.6060   93.7980  156.7780 O.co2 253  GLU253     -0.2457
     58  OE2       27.9910   94.3980  155.1940 O.co2 253  GLU253     -0.2457
     59  N         24.0040   86.1110  155.3400 N.3   287  HIS287     -0.1241
     60  CA        24.7340   85.4380  154.2730 C.3   287  HIS287      0.1621
     61  C         24.0120   84.8150  153.0660 C.2   287  HIS287      0.2264
     62  O         24.6700   84.3710  152.1190 O.2   287  HIS287     -0.2867
     63  CB        25.6770   84.4230  154.8930 C.3   287  HIS287      0.0745
     64  CG        26.6670   85.0460  155.8120 C.ar  287  HIS287      0.0817
     65  ND1       26.3090   85.5690  157.0330 N.ar  287  HIS287     -0.2268
     66  CD2       27.9930   85.2820  155.6750 C.ar  287  HIS287      0.1154
     67  CE1       27.3740   86.0970  157.6120 C.ar  287  HIS287      0.1986
     68  NE2       28.4080   85.9360  156.8090 N.ar  287  HIS287     -0.2212
     69  N         25.5180   85.7980  150.2390 N.3   290  ARG290     -0.1245
     70  CA        26.8160   85.2980  149.8350 C.3   290  ARG290      0.1563
     71  C         26.7160   83.9810  149.1210 C.2   290  ARG290      0.2260
     72  O         27.6520   83.5820  148.4390 O.2   290  ARG290     -0.2867
     73  CB        27.7160   85.1280  151.0490 C.3   290  ARG290      0.0307
     74  CG        28.1350   86.4340  151.6420 C.3   290  ARG290      0.0489
     75  CD        29.3530   86.9690  150.9460 C.3   290  ARG290      0.2205
     76  NE        30.5250   86.2230  151.3770 N.pl3 290  ARG290     -0.0865
     77  CZ        31.0760   86.3440  152.5810 C.cat 290  ARG290      0.5346
     78  NH1       30.5600   87.1880  153.4620 N.pl3 290  ARG290      0.1354
     79  NH2       32.1330   85.6080  152.9120 N.pl3 290  ARG290      0.1354
@<TRIPOS>BOND
     1     8     7    2
     2     5     6    1
     3     7     6    1
     4     7    11   am
     5     6     9    1
     6    14    13    2
     7    12    13    1
     8    12    11    1
     9    12    15    1
    10    21    22    2
    11    21    20    1
    12     9    10    1
    13    13    19   am
    14    17    15    1
    15    15    16    1
    16    19    20    1
    17    20    23    1
    18    72    71    2
    19    23    24    1
    20    16    18    1
    21    71    70    1
    22     4     3    2
    23    70    69    1
    24    70    73    1
    25    24    25   ar
    26    24    26   ar
    27     3     2    1
    28    75    76    1
    29    75    74    1
    30    73    74    1
    31    36    35    1
    32    36    37    1
    33    76    77    2
    34    38    37    2
    35     2     1    1
    36    30    29    2
    37    62    61    2
    38    35    29   am
    39    37    39   am
    40    29    28    1
    41    77    79    1
    42    77    78    1
    43    31    28    1
    44    31    32    1
    45    27    28    1
    46    61    60    1
    47    33    32    1
    48    33    34    1
    49    39    40    1
    50    43    40    1
    51    43    44    1
    52    46    45    1
    53    46    47    2
    54    45    44    1
    55    40    41    1
    56    60    63    1
    57    60    59    1
    58    41    42    2
    59    49    47    1
    60    47    48    1
    61    63    64    1
    62    58    56   ar
    63    50    51    1
    64    66    64   ar
    65    66    68   ar
    66    64    65   ar
    67    56    55    1
    68    56    57   ar
    69    55    54    1
    70    54    51    1
    71    51    52    1
    72    68    67   ar
    73    65    67   ar
    74    52    53    2
