@<TRIPOS>MOLECULE
tmp/3o8oE00.pdb
 90 84 0 0 0
SMALL
GASTEIGER

@<TRIPOS>ATOM
      1  N        -43.2430   -7.9700  156.6550 N.3    13  GLY13      -0.1225
      2  CA       -42.6940   -8.8050  155.6060 C.3    13  GLY13       0.1811
      3  C        -41.1940   -8.6500  155.6910 C.2    13  GLY13       0.2280
      4  O        -40.7040   -7.5580  155.9360 O.2    13  GLY13      -0.2866
      5  N        -46.6960  -12.7060  162.9420 N.3    76  ARG76      -0.1245
      6  CA       -47.7700  -11.7470  163.2010 C.3    76  ARG76       0.1563
      7  C        -48.3500  -12.1140  164.5590 C.2    76  ARG76       0.2260
      8  O        -48.4650  -13.2950  164.8800 O.2    76  ARG76      -0.2867
      9  CB       -48.8250  -11.8290  162.0970 C.3    76  ARG76       0.0307
     10  CG       -48.3120  -11.3480  160.7430 C.3    76  ARG76       0.0489
     11  CD       -48.7930   -9.9410  160.4250 C.3    76  ARG76       0.2205
     12  NE       -50.2070   -9.9380  160.0680 N.pl3  76  ARG76      -0.0865
     13  CZ       -50.7070  -10.5700  159.0100 C.cat  76  ARG76       0.5346
     14  NH1      -49.9060  -11.2530  158.2040 N.pl3  76  ARG76       0.1354
     15  NH2      -52.0090  -10.5300  158.7640 N.pl3  76  ARG76       0.1354
     16  N        -38.2370   -3.0360  153.6360 N.3   152  SER152     -0.1202
     17  CA       -39.3090   -3.3320  152.7020 C.3   152  SER152      0.2020
     18  C        -38.8110   -3.3050  151.2800 C.2   152  SER152      0.2619
     19  O        -37.9270   -2.5270  150.9400 O.2   152  SER152     -0.2717
     20  CB       -40.4150   -2.3050  152.8710 C.3   152  SER152      0.2103
     21  OG       -41.4430   -2.4930  151.9320 O.3   152  SER152     -0.2182
     22  N        -39.3740   -4.1540  150.4340 N.am  153  ILE153     -0.1965
     23  CA       -38.9380   -4.1860  149.0470 C.3   153  ILE153      0.1727
     24  C        -39.7430   -3.2250  148.2010 C.2   153  ILE153      0.2616
     25  O        -39.4080   -3.0040  147.0340 O.2   153  ILE153     -0.2715
     26  CB       -39.0820   -5.6010  148.4280 C.3   153  ILE153      0.0290
     27  CG1      -40.5680   -6.0150  148.3510 C.3   153  ILE153      0.0022
     28  CG2      -38.2580   -6.6090  149.2370 C.3   153  ILE153      0.0023
     29  CD1      -40.8030   -7.3430  147.6280 C.3   153  ILE153      0.0001
     30  N        -40.7950   -2.6590  148.8000 N.am  154  ASP154     -0.1971
     31  CA       -41.6840   -1.7330  148.1090 C.3   154  ASP154      0.1709
     32  C        -41.2090   -0.2990  148.0080 C.2   154  ASP154      0.2293
     33  O        -41.7060    0.4450  147.1650 O.2   154  ASP154     -0.2864
     34  CB       -43.0590   -1.6890  148.7610 C.3   154  ASP154      0.1436
     35  CG       -43.6770   -3.0490  148.9400 C.2   154  ASP154      0.3671
     36  OD1      -43.5550   -3.8980  148.0290 O.co2 154  ASP154     -0.2456
     37  OD2      -44.3120   -3.2480  150.0000 O.co2 154  ASP154     -0.2456
     38  N        -44.2420   -7.2580  142.4750 N.3   196  MET196     -0.1230
     39  CA       -44.6920   -6.8360  143.7680 C.3   196  MET196      0.1702
     40  C        -44.5010   -5.3560  143.8820 C.2   196  MET196      0.2593
     41  O        -43.9180   -4.7430  142.9940 O.2   196  MET196     -0.2718
     42  CB       -43.8980   -7.5290  144.8530 C.3   196  MET196      0.0401
     43  CG       -44.0860   -8.9880  144.8500 C.3   196  MET196      0.0596
     44  SD       -43.5790   -9.6440  146.3840 S.3   196  MET196     -0.1393
     45  CE       -44.1640  -11.3580  146.1900 C.3   196  MET196      0.0692
     46  N        -44.9900   -4.7990  144.9880 N.am  197  GLY197     -0.1942
     47  CA       -44.8790   -3.3870  145.2260 C.3   197  GLY197      0.2014
     48  C        -46.0360   -2.9240  146.0650 C.2   197  GLY197      0.2638
     49  O        -46.1040   -1.7530  146.4020 O.2   197  GLY197     -0.2714
     50  N        -46.9490   -3.8200  146.4230 N.am  198  ARG198     -0.1977
     51  CA       -48.0900   -3.4170  147.2430 C.3   198  ARG198      0.1597
     52  C        -48.8270   -2.3250  146.4560 C.2   198  ARG198      0.2287
     53  O        -49.3150   -2.5690  145.3560 O.2   198  ARG198     -0.2864
     54  CB       -47.5780   -2.8940  148.5810 C.3   198  ARG198      0.0334
     55  CG       -48.6170   -2.3350  149.5190 C.3   198  ARG198      0.0492
     56  CD       -49.5250   -3.3950  150.1200 C.3   198  ARG198      0.2205
     57  NE       -48.8450   -4.4330  150.9150 N.pl3 198  ARG198     -0.0865
     58  CZ       -47.9980   -4.2280  151.9300 C.cat 198  ARG198      0.5346
     59  NH1      -47.6800   -2.9970  152.3260 N.pl3 198  ARG198      0.1354
     60  NH2      -47.4660   -5.2750  152.5520 N.pl3 198  ARG198      0.1354
     61  N        -48.5920   -4.6670  140.9680 N.3   253  GLU253     -0.1245
     62  CA       -49.6920   -5.2960  141.6910 C.3   253  GLU253      0.1567
     63  C        -50.7570   -4.2570  141.9160 C.2   253  GLU253      0.2260
     64  O        -51.9240   -4.5170  141.7250 O.2   253  GLU253     -0.2867
     65  CB       -49.2770   -5.7620  143.0790 C.3   253  GLU253      0.0388
     66  CG       -48.4130   -6.9630  143.1920 C.3   253  GLU253      0.1160
     67  CD       -48.0510   -7.1800  144.6410 C.2   253  GLU253      0.3649
     68  OE1      -47.8710   -6.1650  145.3440 O.co2 253  GLU253     -0.2457
     69  OE2      -47.9420   -8.3480  145.0730 O.co2 253  GLU253     -0.2457
     70  N        -42.9760  -14.3430  145.1430 N.3   286  HIS286     -0.1241
     71  CA       -41.9340  -14.1450  146.1620 C.3   286  HIS286      0.1621
     72  C        -40.4470  -14.2320  145.8430 C.2   286  HIS286      0.2264
     73  O        -39.6230  -13.9530  146.7060 O.2   286  HIS286     -0.2867
     74  CB       -42.2560  -15.0080  147.3870 C.3   286  HIS286      0.0745
     75  CG       -43.5450  -14.6310  148.0360 C.ar  286  HIS286      0.0817
     76  ND1      -44.7670  -14.9930  147.5140 N.ar  286  HIS286     -0.2268
     77  CD2      -43.8090  -13.8340  149.1020 C.ar  286  HIS286      0.1154
     78  CE1      -45.7270  -14.4320  148.2320 C.ar  286  HIS286      0.1986
     79  NE2      -45.1730  -13.7240  149.2000 N.ar  286  HIS286     -0.2212
     80  N        -38.6350  -11.5960  147.1660 N.3   289  ARG289     -0.1245
     81  CA       -38.4070  -11.3980  148.5900 C.3   289  ARG289      0.1563
     82  C        -37.1750  -12.1240  149.1260 C.2   289  ARG289      0.2260
     83  O        -36.6200  -11.7340  150.1480 O.2   289  ARG289     -0.2867
     84  CB       -39.6470  -11.8400  149.3510 C.3   289  ARG289      0.0307
     85  CG       -40.8370  -10.9450  149.1490 C.3   289  ARG289      0.0489
     86  CD       -40.8000   -9.7840  150.1200 C.3   289  ARG289      0.2205
     87  NE       -41.0280  -10.2190  151.4930 N.pl3 289  ARG289     -0.0865
     88  CZ       -42.1850  -10.6960  151.9470 C.cat 289  ARG289      0.5346
     89  NH1      -43.2460  -10.8000  151.1480 N.pl3 289  ARG289      0.1354
     90  NH2      -42.2770  -11.1050  153.2040 N.pl3 289  ARG289      0.1354
@<TRIPOS>BOND
     1    61    62    1
     2    62    63    1
     3    62    65    1
     4    64    63    2
     5    38    39    1
     6    41    40    2
     7    65    66    1
     8    66    67    1
     9    39    40    1
    10    39    42    1
    11    40    46   am
    12    67    69   ar
    13    67    68   ar
    14    43    42    1
    15    43    44    1
    16    46    47    1
    17    70    71    1
    18    47    48    1
    19    53    52    2
    20    72    71    1
    21    72    73    2
    22    48    49    2
    23    48    50   am
    24    71    74    1
    25    45    44    1
    26    50    51    1
    27    52    51    1
    28    25    24    2
    29    33    32    2
    30    80    81    1
    31    51    54    1
    32    74    75    1
    33    76    75   ar
    34    76    78   ar
    35    29    27    1
    36    32    31    1
    37    36    35   ar
    38    75    77   ar
    39    31    34    1
    40    31    30    1
    41    24    30   am
    42    24    23    1
    43    78    79   ar
    44    27    26    1
    45    26    23    1
    46    26    28    1
    47    54    55    1
    48    81    82    1
    49    81    84    1
    50    34    35    1
    51    35    37   ar
    52    23    22    1
    53    77    79   ar
    54    82    83    2
    55    85    84    1
    56    85    86    1
    57    55    56    1
    58    86    87    1
    59    56    57    1
    60    22    18   am
    61    57    58    2
    62    19    18    2
    63    89    88    1
    64    18    17    1
    65    87    88    2
    66    58    59    1
    67    58    60    1
    68    21    20    1
    69    88    90    1
    70    17    20    1
    71    17    16    1
    72     2     3    1
    73     2     1    1
    74     3     4    2
    75    14    13    1
    76    15    13    1
    77    13    12    2
    78    12    11    1
    79    11    10    1
    80    10     9    1
    81     9     6    1
    82     5     6    1
    83     6     7    1
    84     7     8    2
