@<TRIPOS>MOLECULE
tmp/3o94B00.pdb
 106 100 0 0 0
SMALL
GASTEIGER

@<TRIPOS>ATOM
      1  N        -57.1140   19.6400   13.4250 N.3     9  ASP9       -0.1239
      2  CA       -56.5860   20.7630   14.2120 C.3     9  ASP9        0.1674
      3  C        -57.5960   21.5590   15.0480 C.2     9  ASP9        0.2266
      4  O        -57.4050   22.7580   15.2680 O.2     9  ASP9       -0.2867
      5  CB       -55.7990   21.7230   13.3020 C.3     9  ASP9        0.1410
      6  CG       -54.4770   21.1420   12.8380 C.2     9  ASP9        0.3668
      7  OD1      -53.8910   20.3270   13.5770 O.co2   9  ASP9       -0.2456
      8  OD2      -54.0190   21.5120   11.7340 O.co2   9  ASP9       -0.2456
      9  N        -55.8470   26.8920   18.0390 N.3    14  PHE14      -0.1241
     10  CA       -56.5330   27.3390   16.8240 C.3    14  PHE14       0.1605
     11  C        -57.9390   27.8880   17.0700 C.2    14  PHE14       0.2264
     12  O        -58.5030   28.5590   16.2010 O.2    14  PHE14      -0.2867
     13  CB       -56.6050   26.2040   15.7960 C.3    14  PHE14       0.0534
     14  CG       -55.2680   25.7860   15.2590 C.ar   14  PHE14      -0.0203
     15  CD1      -54.5300   26.6440   14.4470 C.ar   14  PHE14      -0.0042
     16  CD2      -54.7520   24.5290   15.5500 C.ar   14  PHE14      -0.0042
     17  CE1      -53.2900   26.2580   13.9480 C.ar   14  PHE14      -0.0003
     18  CE2      -53.5160   24.1320   15.0540 C.ar   14  PHE14      -0.0003
     19  CZ       -52.7840   24.9980   14.2510 C.ar   14  PHE14      -0.0000
     20  N        -52.4640   30.6610   17.9720 N.3    21  LEU21      -0.1245
     21  CA       -52.7030   30.9250   16.5530 C.3    21  LEU21       0.1561
     22  C        -54.2010   30.8330   16.2710 C.2    21  LEU21       0.2260
     23  O        -54.6440   30.1800   15.3220 O.2    21  LEU21      -0.2867
     24  CB       -51.8990   29.9480   15.6800 C.3    21  LEU21       0.0270
     25  CG       -51.7720   30.2340   14.1770 C.3    21  LEU21       0.0019
     26  CD1      -51.2930   31.6530   13.9080 C.3    21  LEU21       0.0001
     27  CD2      -50.8480   29.2240   13.5150 C.3    21  LEU21       0.0001
     28  N        -51.7210   19.0290   14.5910 N.3    53  ASP53      -0.1239
     29  CA       -50.4130   19.6850   14.5950 C.3    53  ASP53       0.1674
     30  C        -49.6280   19.3270   15.8480 C.2    53  ASP53       0.2266
     31  O        -50.1470   19.4330   16.9600 O.2    53  ASP53      -0.2867
     32  CB       -50.5830   21.2050   14.5490 C.3    53  ASP53       0.1410
     33  CG       -50.3360   21.7920   13.1750 C.2    53  ASP53       0.3668
     34  OD1      -50.1260   21.0350   12.2020 O.co2  53  ASP53      -0.2456
     35  OD2      -50.3430   23.0400   13.0760 O.co2  53  ASP53      -0.2456
     36  N        -42.2670   26.0890    8.3200 N.3    64  GLU64      -0.1245
     37  CA       -43.4400   26.6930    8.9560 C.3    64  GLU64       0.1567
     38  C        -43.0720   27.5780   10.1530 C.2    64  GLU64       0.2260
     39  O        -43.8150   28.4990   10.4980 O.2    64  GLU64      -0.2867
     40  CB       -44.4420   25.6160    9.3770 C.3    64  GLU64       0.0388
     41  CG       -45.8450   26.1400    9.6490 C.3    64  GLU64       0.1160
     42  CD       -46.7560   25.0970   10.2590 C.2    64  GLU64       0.3649
     43  OE1      -47.5470   25.4620   11.1500 O.co2  64  GLU64      -0.2457
     44  OE2      -46.6860   23.9160    9.8550 O.co2  64  GLU64      -0.2457
     45  N        -45.4410   31.2860   11.0170 N.3    68  PHE68      -0.1241
     46  CA       -46.4180   31.4660   12.0850 C.3    68  PHE68       0.1605
     47  C        -45.7260   31.4240   13.4440 C.2    68  PHE68       0.2264
     48  O        -44.6890   30.7700   13.5840 O.2    68  PHE68      -0.2867
     49  CB       -47.5000   30.3790   12.0120 C.3    68  PHE68       0.0534
     50  CG       -48.2980   30.3950   10.7350 C.ar   68  PHE68      -0.0203
     51  CD1      -49.3110   31.3310   10.5400 C.ar   68  PHE68      -0.0042
     52  CD2      -48.0380   29.4700    9.7290 C.ar   68  PHE68      -0.0042
     53  CE1      -50.0510   31.3480    9.3560 C.ar   68  PHE68      -0.0003
     54  CE2      -48.7700   29.4790    8.5420 C.ar   68  PHE68      -0.0003
     55  CZ       -49.7790   30.4180    8.3570 C.ar   68  PHE68      -0.0000
     56  N        -47.0980   27.3220   17.9430 N.3    71  HIS71      -0.1241
     57  CA       -48.4580   26.8400   18.1820 C.3    71  HIS71       0.1621
     58  C        -48.4970   25.3180   18.2200 C.2    71  HIS71       0.2264
     59  O        -47.6450   24.6550   17.6230 O.2    71  HIS71      -0.2867
     60  CB       -49.4170   27.3600   17.1060 C.3    71  HIS71       0.0745
     61  CG       -49.0990   26.8710   15.7260 C.ar   71  HIS71       0.0817
     62  ND1      -48.1320   27.4530   14.9360 N.ar   71  HIS71      -0.2268
     63  CD2      -49.6200   25.8560   14.9970 C.ar   71  HIS71       0.1154
     64  CE1      -48.0710   26.8180   13.7790 C.ar   71  HIS71       0.1986
     65  NE2      -48.9650   25.8440   13.7900 N.ar   71  HIS71      -0.2212
     66  N        -49.4320   20.9240    7.1600 N.3   106  TYR106     -0.1241
     67  CA       -50.8450   21.2830    7.2210 C.3   106  TYR106      0.1605
     68  C        -51.7270   20.0830    6.8900 C.2   106  TYR106      0.2264
     69  O        -52.6760   19.7850    7.6200 O.2   106  TYR106     -0.2867
     70  CB       -51.1450   22.4570    6.2870 C.3   106  TYR106      0.0534
     71  CG       -50.1800   23.6190    6.4210 C.ar  106  TYR106     -0.0201
     72  CD1      -50.1220   24.3770    7.5900 C.ar  106  TYR106     -0.0009
     73  CD2      -49.3320   23.9630    5.3710 C.ar  106  TYR106     -0.0009
     74  CE1      -49.2410   25.4500    7.7100 C.ar  106  TYR106      0.0417
     75  CE2      -48.4460   25.0320    5.4810 C.ar  106  TYR106      0.0417
     76  CZ       -48.4090   25.7720    6.6510 C.ar  106  TYR106      0.1957
     77  OH       -47.5370   26.8300    6.7570 O.3   106  TYR106     -0.2866
     78  N        -60.2390   23.0640   11.2360 N.3   131  VAL131     -0.1231
     79  CA       -59.7280   24.3990   10.9150 C.3   131  VAL131      0.1692
     80  C        -58.2540   24.3160   10.4960 C.2   131  VAL131      0.2591
     81  O        -57.5700   23.3690   10.8800 O.2   131  VAL131     -0.2718
     82  CB       -59.8790   25.3760   12.1260 C.3   131  VAL131      0.0266
     83  CG1      -61.3480   25.5880   12.4790 C.3   131  VAL131      0.0020
     84  CG2      -59.1010   24.8780   13.3460 C.3   131  VAL131      0.0020
     85  N        -57.7570   25.2590    9.6900 N.am  132  LEU132     -0.1980
     86  CA       -58.5460   26.2910    9.0190 C.3   132  LEU132      0.1596
     87  C        -58.9830   25.7780    7.6530 C.2   132  LEU132      0.2287
     88  O        -58.2700   24.9950    7.0270 O.2   132  LEU132     -0.2864
     89  CB       -57.7190   27.5730    8.8510 C.3   132  LEU132      0.0297
     90  CG       -57.5680   28.5520   10.0240 C.3   132  LEU132      0.0022
     91  CD1      -56.7390   27.9690   11.1700 C.3   132  LEU132      0.0001
     92  CD2      -56.9500   29.8550    9.5300 C.3   132  LEU132      0.0001
     93  N        -56.3680   26.2350    4.9480 N.3   135  ILE135     -0.1231
     94  CA       -55.0010   25.7720    5.2020 C.3   135  ILE135      0.1692
     95  C        -54.9650   24.2560    5.4570 C.2   135  ILE135      0.2592
     96  O        -54.8810   23.4840    4.5030 O.2   135  ILE135     -0.2718
     97  CB       -54.2740   26.6260    6.2860 C.3   135  ILE135      0.0266
     98  CG1      -54.2200   28.0980    5.8510 C.3   135  ILE135      0.0019
     99  CG2      -52.8580   26.1190    6.5150 C.3   135  ILE135      0.0020
    100  CD1      -53.7180   29.0720    6.9140 C.3   135  ILE135      0.0001
    101  N        -55.0570   23.8230    6.7120 N.am  136  SER136     -0.1952
    102  CA       -54.9940   22.3870    7.0040 C.3   136  SER136      0.1924
    103  C        -56.1100   21.5930    6.3230 C.2   136  SER136      0.2314
    104  O        -55.8660   20.5130    5.7860 O.2   136  SER136     -0.2863
    105  CB       -54.9760   22.1240    8.5100 C.3   136  SER136      0.2116
    106  OG       -53.7410   22.5300    9.0710 O.3   136  SER136     -0.2180
@<TRIPOS>BOND
     1    96    95    2
     2    93    94    1
     3    94    95    1
     4    94    97    1
     5    73    75   ar
     6    73    71   ar
     7    95   101   am
     8    75    76   ar
     9   104   103    2
    10    98    97    1
    11    98   100    1
    12    97    99    1
    13    70    71    1
    14    70    67    1
    15   103   102    1
    16    71    72   ar
    17    76    77    1
    18    76    74   ar
    19   101   102    1
    20    68    67    1
    21    68    69    2
    22   102   105    1
    23    88    87    2
    24    66    67    1
    25    72    74   ar
    26    87    86    1
    27    36    37    1
    28    55    54   ar
    29    55    53   ar
    30   105   106    1
    31    54    52   ar
    32    89    86    1
    33    89    90    1
    34    37    40    1
    35    37    38    1
    36    86    85    1
    37    53    51   ar
    38    40    41    1
    39    92    90    1
    40    41    42    1
    41    85    80   am
    42    52    50   ar
    43    44    42   ar
    44    90    91    1
    45    38    39    2
    46    42    43   ar
    47    80    81    2
    48    80    79    1
    49    51    50   ar
    50    50    49    1
    51    79    78    1
    52    79    82    1
    53    45    46    1
    54     8     6   ar
    55    49    46    1
    56    46    47    1
    57    82    83    1
    58    82    84    1
    59    34    33   ar
    60     6     5    1
    61     6     7   ar
    62    35    33   ar
    63    33    32    1
    64     5     2    1
    65     1     2    1
    66    47    48    2
    67    27    25    1
    68    64    65   ar
    69    64    62   ar
    70    65    63   ar
    71    26    25    1
    72    17    19   ar
    73    17    15   ar
    74    25    24    1
    75     2     3    1
    76    19    18   ar
    77    15    14   ar
    78    32    29    1
    79    28    29    1
    80    29    30    1
    81    62    61   ar
    82    63    61   ar
    83     3     4    2
    84    18    16   ar
    85    14    16   ar
    86    14    13    1
    87    23    22    2
    88    24    21    1
    89    61    60    1
    90    13    10    1
    91    30    31    2
    92    12    11    2
    93    22    21    1
    94    21    20    1
    95    10    11    1
    96    10     9    1
    97    60    57    1
    98    59    58    2
    99    56    57    1
   100    57    58    1
