@<TRIPOS>MOLECULE
tmp/3o95D04.pdb
 199 197 0 0 0
SMALL
GASTEIGER

@<TRIPOS>ATOM
      1  N         18.2490   29.5840   41.4800 N.3    86  ARG86      -0.1231
      2  CA        19.0680   28.7580   40.5970 C.3    86  ARG86       0.1694
      3  C         20.3620   28.3130   41.2560 C.2    86  ARG86       0.2592
      4  O         20.7790   27.1590   41.0940 O.2    86  ARG86      -0.2718
      5  CB        19.4010   29.4990   39.3010 C.3    86  ARG86       0.0321
      6  CG        19.7530   28.5550   38.1730 C.3    86  ARG86       0.0489
      7  CD        20.3960   29.2540   37.0260 C.3    86  ARG86       0.2205
      8  NE        19.4460   29.9360   36.1470 N.pl3  86  ARG86      -0.0865
      9  CZ        18.5910   29.3320   35.3160 C.cat  86  ARG86       0.5346
     10  NH1       18.5070   28.0080   35.2680 N.pl3  86  ARG86       0.1354
     11  NH2       17.7970   30.0600   34.5410 N.pl3  86  ARG86       0.1354
     12  N         20.9870   29.2460   41.9820 N.am   87  HIS87      -0.1976
     13  CA        22.2490   29.0140   42.6700 C.3    87  HIS87       0.1656
     14  C         22.0900   29.1580   44.1800 C.2    87  HIS87       0.2291
     15  O         22.6540   28.3620   44.9430 O.2    87  HIS87      -0.2864
     16  CB        23.3220   29.9930   42.1770 C.3    87  HIS87       0.0771
     17  CG        23.3280   30.1830   40.6990 C.ar   87  HIS87       0.0820
     18  ND1       23.7900   29.2210   39.8290 N.ar   87  HIS87      -0.2267
     19  CD2       22.9140   31.2160   39.9320 C.ar   87  HIS87       0.1154
     20  CE1       23.6650   29.6540   38.5870 C.ar   87  HIS87       0.1986
     21  NE2       23.1350   30.8630   38.6210 N.ar   87  HIS87      -0.2212
     22  N         20.4970   35.4530   39.0860 N.3   166  GLU166     -0.1231
     23  CA        20.1190   34.7910   37.8580 C.3   166  GLU166      0.1699
     24  C         20.8870   35.3370   36.6730 C.2   166  GLU166      0.2592
     25  O         21.3620   34.5710   35.8440 O.2   166  GLU166     -0.2718
     26  CB        18.6130   34.9450   37.6240 C.3   166  GLU166      0.0402
     27  CG        18.1130   34.5270   36.2410 C.3   166  GLU166      0.1161
     28  CD        18.1250   33.0210   36.0320 C.2   166  GLU166      0.3649
     29  OE1       18.4870   32.2750   36.9770 O.co2 166  GLU166     -0.2457
     30  OE2       17.7590   32.5830   34.9140 O.co2 166  GLU166     -0.2457
     31  N         21.0320   36.6530   36.6170 N.am  167  GLU167     -0.1966
     32  CA        21.3180   37.3210   35.3540 C.3   167  GLU167      0.1733
     33  C         22.6910   37.9040   35.1940 C.2   167  GLU167      0.2616
     34  O         23.1590   38.0450   34.0770 O.2   167  GLU167     -0.2715
     35  CB        20.2900   38.4160   35.0800 C.3   167  GLU167      0.0429
     36  CG        18.8640   37.9180   34.8400 C.3   167  GLU167      0.1163
     37  CD        18.7340   36.9200   33.6790 C.2   167  GLU167      0.3649
     38  OE1       19.7410   36.6510   32.9690 O.co2 167  GLU167     -0.2457
     39  OE2       17.6070   36.4080   33.4840 O.co2 167  GLU167     -0.2457
     40  N         23.3290   38.2800   36.2920 N.am  168  VAL168     -0.1977
     41  CA        24.5980   38.9840   36.1930 C.3   168  VAL168      0.1596
     42  C         25.7330   38.0860   36.6500 C.2   168  VAL168      0.2287
     43  O         26.6670   37.8130   35.8820 O.2   168  VAL168     -0.2864
     44  CB        24.6030   40.3150   36.9810 C.3   168  VAL168      0.0276
     45  CG1       25.9410   41.0360   36.7990 C.3   168  VAL168      0.0022
     46  CG2       23.4530   41.2090   36.5360 C.3   168  VAL168      0.0022
     47  N         25.4330   34.8520   37.9390 N.3   170  SER170     -0.1217
     48  CA        25.1360   33.4310   37.9200 C.3   170  SER170      0.1889
     49  C         25.6870   32.8210   39.1910 C.2   170  SER170      0.2288
     50  O         26.3490   31.7840   39.1620 O.2   170  SER170     -0.2866
     51  CB        25.7090   32.7560   36.6690 C.3   170  SER170      0.2089
     52  OG        25.1340   33.2940   35.4860 O.3   170  SER170     -0.2183
     53  N         26.5700   37.6270   27.2450 N.3   318  PHE318     -0.1227
     54  CA        25.5030   37.9120   28.2010 C.3   318  PHE318      0.1736
     55  C         25.9600   38.9720   29.1980 C.2   318  PHE318      0.2595
     56  O         25.1460   39.6360   29.8370 O.2   318  PHE318     -0.2718
     57  CB        25.1180   36.6550   28.9660 C.3   318  PHE318      0.0547
     58  CG        24.5800   35.5560   28.1080 C.ar  318  PHE318     -0.0202
     59  CD1       23.2110   35.4480   27.8720 C.ar  318  PHE318     -0.0042
     60  CD2       25.4320   34.6100   27.5530 C.ar  318  PHE318     -0.0042
     61  CE1       22.6900   34.4060   27.0770 C.ar  318  PHE318     -0.0003
     62  CE2       24.9340   33.5850   26.7660 C.ar  318  PHE318     -0.0003
     63  CZ        23.5480   33.4800   26.5280 C.ar  318  PHE318     -0.0000
     64  N         27.2700   39.0960   29.3560 N.am  319  ARG319     -0.1980
     65  CA        27.8710   40.1340   30.1900 C.3   319  ARG319      0.1597
     66  C         29.1900   40.5000   29.5310 C.2   319  ARG319      0.2287
     67  O         29.7360   39.6950   28.7700 O.2   319  ARG319     -0.2864
     68  CB        28.0730   39.6600   31.6480 C.3   319  ARG319      0.0334
     69  CG        28.8240   38.3250   31.8520 C.3   319  ARG319      0.0492
     70  CD        28.5050   37.6450   33.2090 C.3   319  ARG319      0.2205
     71  NE        29.2710   38.1850   34.3490 N.pl3 319  ARG319     -0.0865
     72  CZ        30.0780   37.4870   35.1700 C.cat 319  ARG319      0.5346
     73  NH1       30.7040   38.1150   36.1560 N.pl3 319  ARG319      0.1354
     74  NH2       30.2630   36.1720   35.0370 N.pl3 319  ARG319      0.1354
     75  N         15.2410   26.3190   21.2130 N.3   508  TYR508     -0.1241
     76  CA        15.5530   27.3350   22.2030 C.3   508  TYR508      0.1605
     77  C         15.4940   28.7050   21.5410 C.2   508  TYR508      0.2264
     78  O         14.5570   29.4710   21.7690 O.2   508  TYR508     -0.2867
     79  CB        16.8910   27.1150   22.9340 C.3   508  TYR508      0.0534
     80  CG        16.9180   28.0040   24.1430 C.ar  508  TYR508     -0.0201
     81  CD1       17.6290   29.2110   24.1440 C.ar  508  TYR508     -0.0009
     82  CD2       16.1250   27.6870   25.2650 C.ar  508  TYR508     -0.0009
     83  CE1       17.5900   30.0600   25.2490 C.ar  508  TYR508      0.0417
     84  CE2       16.0770   28.5210   26.3780 C.ar  508  TYR508      0.0417
     85  CZ        16.8050   29.7060   26.3630 C.ar  508  TYR508      0.1957
     86  OH        16.7280   30.5160   27.4770 O.3   508  TYR508     -0.2866
     87  N         11.1730   25.2960   25.8610 N.3   590  TRP590     -0.1227
     88  CA        11.1160   25.7050   27.2590 C.3   590  TRP590      0.1737
     89  C         11.6960   27.1140   27.3840 C.2   590  TRP590      0.2596
     90  O         12.5240   27.4900   26.5730 O.2   590  TRP590     -0.2718
     91  CB        11.9740   24.7420   28.0390 C.3   590  TRP590      0.0564
     92  CG        11.6430   24.5900   29.4560 C.ar  590  TRP590      0.0003
     93  CD1       11.6680   25.5620   30.4220 C.ar  590  TRP590      0.0946
     94  CD2       11.3040   23.3740   30.1130 C.ar  590  TRP590      0.0152
     95  NE1       11.3370   25.0240   31.6350 N.ar  590  TRP590     -0.2442
     96  CE2       11.1130   23.6800   31.4800 C.ar  590  TRP590      0.0810
     97  CE3       11.1390   22.0520   29.6830 C.ar  590  TRP590      0.0012
     98  CZ2       10.7630   22.7060   32.4290 C.ar  590  TRP590      0.0191
     99  CZ3       10.7810   21.0810   30.6250 C.ar  590  TRP590      0.0001
    100  CH2       10.5930   21.4230   31.9860 C.ar  590  TRP590      0.0015
    101  N         11.2890   27.8810   28.3950 N.am  591  SER591     -0.1938
    102  CA        11.7770   29.2620   28.5720 C.3   591  SER591      0.2055
    103  C         11.5670   30.0380   27.2920 C.2   591  SER591      0.2643
    104  O         10.4550   30.0870   26.7600 O.2   591  SER591     -0.2714
    105  CB        13.2820   29.3210   28.8930 C.3   591  SER591      0.2130
    106  OG        13.5680   29.0160   30.2440 O.3   591  SER591     -0.2179
    107  N         12.6620   30.6200   26.7980 N.am  592  TYR592     -0.1973
    108  CA        12.6830   31.3460   25.5410 C.3   592  TYR592      0.1639
    109  C         12.1320   30.4790   24.4200 C.2   592  TYR592      0.2290
    110  O         11.4070   30.9590   23.5390 O.2   592  TYR592     -0.2864
    111  CB        14.1110   31.7750   25.1990 C.3   592  TYR592      0.0560
    112  CG        14.1630   32.9460   24.2450 C.ar  592  TYR592     -0.0198
    113  CD1       14.4180   34.2340   24.7110 C.ar  592  TYR592     -0.0009
    114  CD2       13.9290   32.7730   22.8820 C.ar  592  TYR592     -0.0009
    115  CE1       14.4540   35.3140   23.8500 C.ar  592  TYR592      0.0417
    116  CE2       13.9630   33.8540   22.0060 C.ar  592  TYR592      0.0417
    117  CZ        14.2240   35.1190   22.4980 C.ar  592  TYR592      0.1957
    118  OH        14.2540   36.1900   21.6370 O.3   592  TYR592     -0.2866
    119  N          7.8510   32.6310   28.0840 N.3   617  VAL617     -0.1245
    120  CA         7.5930   34.0550   28.1570 C.3   617  VAL617      0.1561
    121  C          6.4120   34.3410   27.2210 C.2   617  VAL617      0.2260
    122  O          6.3040   33.7310   26.1470 O.2   617  VAL617     -0.2867
    123  CB         8.8300   34.8600   27.7480 C.3   617  VAL617      0.0252
    124  CG1        8.5060   36.3410   27.5870 C.3   617  VAL617      0.0019
    125  CG2        9.9040   34.6760   28.7890 C.3   617  VAL617      0.0019
    126  N          7.3940   40.4660   26.8910 N.3   620  TRP620     -0.1241
    127  CA         8.6870   40.7910   27.4780 C.3   620  TRP620      0.1605
    128  C          8.6320   41.7460   28.6510 C.2   620  TRP620      0.2264
    129  O          9.6030   41.8470   29.3890 O.2   620  TRP620     -0.2867
    130  CB         9.6800   41.2590   26.4080 C.3   620  TRP620      0.0550
    131  CG        10.1200   40.1220   25.5860 C.ar  620  TRP620      0.0003
    132  CD1        9.7950   39.8790   24.2890 C.ar  620  TRP620      0.0946
    133  CD2       10.9240   39.0120   26.0200 C.ar  620  TRP620      0.0152
    134  NE1       10.3680   38.6940   23.8750 N.ar  620  TRP620     -0.2442
    135  CE2       11.0660   38.1450   24.9190 C.ar  620  TRP620      0.0810
    136  CE3       11.5440   38.6700   27.2320 C.ar  620  TRP620      0.0012
    137  CZ2       11.8020   36.9610   24.9920 C.ar  620  TRP620      0.0191
    138  CZ3       12.2700   37.4900   27.3030 C.ar  620  TRP620      0.0001
    139  CH2       12.3960   36.6560   26.1930 C.ar  620  TRP620      0.0015
    140  N          9.1840   39.6650   31.9400 N.3   623  TYR623     -0.1241
    141  CA        10.4370   39.0530   32.3320 C.3   623  TYR623      0.1605
    142  C         11.3490   40.0770   33.0150 C.2   623  TYR623      0.2264
    143  O         11.0690   41.2900   32.9500 O.2   623  TYR623     -0.2867
    144  CB        11.1060   38.3350   31.1620 C.3   623  TYR623      0.0534
    145  CG        12.0630   37.2740   31.6430 C.ar  623  TYR623     -0.0201
    146  CD1       11.6140   36.2200   32.4470 C.ar  623  TYR623     -0.0009
    147  CD2       13.4150   37.3390   31.3260 C.ar  623  TYR623     -0.0009
    148  CE1       12.4810   35.2630   32.9150 C.ar  623  TYR623      0.0417
    149  CE2       14.2910   36.3830   31.7860 C.ar  623  TYR623      0.0417
    150  CZ        13.8250   35.3480   32.5830 C.ar  623  TYR623      0.1957
    151  OH        14.7090   34.3910   33.0340 O.3   623  TYR623     -0.2866
    152  N         17.9880   40.8270   31.7310 N.3   627  TYR627     -0.1241
    153  CA        18.0070   39.9450   30.5840 C.3   627  TYR627      0.1605
    154  C         17.2670   40.6270   29.4290 C.2   627  TYR627      0.2264
    155  O         17.8340   40.8560   28.3580 O.2   627  TYR627     -0.2867
    156  CB        17.3760   38.6000   30.9340 C.3   627  TYR627      0.0534
    157  CG        17.3210   37.6560   29.7650 C.ar  627  TYR627     -0.0201
    158  CD1       18.3340   36.7270   29.5480 C.ar  627  TYR627     -0.0009
    159  CD2       16.2540   37.6980   28.8550 C.ar  627  TYR627     -0.0009
    160  CE1       18.2830   35.8680   28.4610 C.ar  627  TYR627      0.0417
    161  CE2       16.1990   36.8430   27.7680 C.ar  627  TYR627      0.0417
    162  CZ        17.2080   35.9410   27.5820 C.ar  627  TYR627      0.1957
    163  OH        17.1440   35.0940   26.5180 O.3   627  TYR627     -0.2866
    164  N         18.5270   43.9410   27.8920 N.3   630  ARG630     -0.1245
    165  CA        19.7480   43.7350   27.1360 C.3   630  ARG630      0.1563
    166  C         19.3950   43.6550   25.6600 C.2   630  ARG630      0.2260
    167  O         20.1150   44.1690   24.8010 O.2   630  ARG630     -0.2867
    168  CB        20.4580   42.4540   27.5820 C.3   630  ARG630      0.0307
    169  CG        21.8290   42.2280   26.9190 C.3   630  ARG630      0.0489
    170  CD        22.5200   40.9410   27.3630 C.3   630  ARG630      0.2205
    171  NE        22.6150   40.8490   28.8160 N.pl3 630  ARG630     -0.0865
    172  CZ        22.2170   39.8100   29.5400 C.cat 630  ARG630      0.5346
    173  NH1       22.3390   39.8450   30.8570 N.pl3 630  ARG630      0.1354
    174  NH2       21.7230   38.7310   28.9500 N.pl3 630  ARG630      0.1354
    175  N         11.0310   32.5690   38.1530 N.3   671  ASN671     -0.1225
    176  CA        11.8080   33.0950   37.0250 C.3   671  ASN671      0.1785
    177  C         10.9230   33.7020   35.9410 C.2   671  ASN671      0.2597
    178  O         10.7230   34.9260   35.9070 O.2   671  ASN671     -0.2718
    179  CB        12.7360   32.0210   36.4360 C.3   671  ASN671      0.1169
    180  CG        13.8940   32.6170   35.6440 C.2   671  ASN671      0.2627
    181  OD1       13.7620   33.8650   35.2530 O.2   671  ASN671     -0.2716
    182  ND2       14.8950   31.9590   35.3980 N.am  671  ASN671     -0.0877
    183  N         10.4350   32.8570   35.0340 N.am  672  VAL672     -0.1980
    184  CA         9.3570   33.2710   34.1420 C.3   672  VAL672      0.1595
    185  C          8.0740   32.9020   34.8730 C.2   672  VAL672      0.2287
    186  O          7.7160   31.7300   34.9980 O.2   672  VAL672     -0.2864
    187  CB         9.4970   32.7550   32.6300 C.3   672  VAL672      0.0276
    188  CG1       10.4480   31.5870   32.4970 C.3   672  VAL672      0.0022
    189  CG2        8.1430   32.4780   31.9570 C.3   672  VAL672      0.0022
    190  N         10.8760   26.9840   37.6980 N.3   701  HIS701     -0.1241
    191  CA        11.1630   27.0490   36.2770 C.3   701  HIS701      0.1621
    192  C         11.6960   25.7500   35.6820 C.2   701  HIS701      0.2264
    193  O         11.5060   25.4980   34.4960 O.2   701  HIS701     -0.2867
    194  CB        12.1090   28.1910   35.9710 C.3   701  HIS701      0.0745
    195  CG        12.1770   28.5260   34.5210 C.ar  701  HIS701      0.0817
    196  ND1       11.0700   28.9130   33.7980 N.ar  701  HIS701     -0.2268
    197  CD2       13.2150   28.5320   33.6550 C.ar  701  HIS701      0.1154
    198  CE1       11.4240   29.1390   32.5450 C.ar  701  HIS701      0.1986
    199  NE2       12.7220   28.9220   32.4350 N.ar  701  HIS701     -0.2212
@<TRIPOS>BOND
     1    75    76    1
     2    77    78    2
     3    77    76    1
     4   118   117    1
     5   116   117   ar
     6   116   114   ar
     7    76    79    1
     8   117   115   ar
     9   114   112   ar
    10    79    80    1
    11   110   109    2
    12   115   113   ar
    13   134   132   ar
    14   134   135   ar
    15    80    81   ar
    16    80    82   ar
    17    81    83   ar
    18   112   113   ar
    19   112   111    1
    20   132   131   ar
    21   109   108    1
    22   167   166    2
    23   135   137   ar
    24   135   133   ar
    25   137   139   ar
    26   111   108    1
    27    83    85   ar
    28    82    84   ar
    29   108   107    1
    30   131   133   ar
    31   131   130    1
    32   166   165    1
    33    87    88    1
    34   133   136   ar
    35   122   121    2
    36   139   138   ar
    37    85    84   ar
    38    85    86    1
    39   130   127    1
    40   163   162    1
    41    63    62   ar
    42    63    61   ar
    43    90    89    2
    44   104   103    2
    45    62    60   ar
    46   107   103   am
    47   126   127    1
    48   169   170    1
    49   169   168    1
    50    61    59   ar
    51   165   168    1
    52   165   164    1
    53   121   120    1
    54   136   138   ar
    55    53    54    1
    56    88    89    1
    57    88    91    1
    58   103   102    1
    59   170   171    1
    60    89   101   am
    61   127   128    1
    62    60    58   ar
    63   162   161   ar
    64   162   160   ar
    65   124   123    1
    66   123   120    1
    67   123   125    1
    68   161   159   ar
    69    59    58   ar
    70    91    92    1
    71   119   120    1
    72    58    57    1
    73    54    57    1
    74    54    55    1
    75   155   154    2
    76   101   102    1
    77   160   158   ar
    78   102   105    1
    79   128   129    2
    80    67    66    2
    81   171   172    2
    82   159   157   ar
    83   105   106    1
    84   174   172    1
    85    55    64   am
    86    55    56    2
    87    64    65    1
    88   154   153    1
    89    92    94   ar
    90    92    93   ar
    91    66    65    1
    92   172   173    1
    93   158   157   ar
    94    97    94   ar
    95    97    99   ar
    96   157   156    1
    97    94    96   ar
    98    65    68    1
    99    93    95   ar
   100   153   156    1
   101   153   152    1
   102    99   100   ar
   103   144   145    1
   104   144   141    1
   105   147   145   ar
   106   147   149   ar
   107    96    95   ar
   108    96    98   ar
   109   145   146   ar
   110    68    69    1
   111   149   150   ar
   112    69    70    1
   113   140   141    1
   114   189   187    1
   115   100    98   ar
   116   141   142    1
   117   199   198   ar
   118   199   197   ar
   119   146   148   ar
   120   188   187    1
   121   198   196   ar
   122   150   148   ar
   123   150   151    1
   124   187   184    1
   125   143   142    2
   126    38    37   ar
   127    70    71    1
   128    39    37   ar
   129   197   195   ar
   130    37    36    1
   131   196   195   ar
   132    34    33    2
   133   184   185    1
   134   184   183    1
   135    71    72    2
   136   193   192    2
   137   195   194    1
   138    11     9    1
   139    36    35    1
   140   185   186    2
   141    30    28   ar
   142   183   177   am
   143    74    72    1
   144    35    32    1
   145    72    73    1
   146    33    32    1
   147    33    40   am
   148   181   180    2
   149    10     9    1
   150     9     8    2
   151    32    31    1
   152   182   180   am
   153    52    51    1
   154   180   179    1
   155   192   191    1
   156    25    24    2
   157    43    42    2
   158   178   177    2
   159   177   176    1
   160   194   191    1
   161    28    27    1
   162    28    29   ar
   163     8     7    1
   164    41    40    1
   165    41    42    1
   166    41    44    1
   167    27    26    1
   168   191   190    1
   169   179   176    1
   170    46    44    1
   171    31    24   am
   172    51    48    1
   173    24    23    1
   174    45    44    1
   175   176   175    1
   176     7     6    1
   177    26    23    1
   178    23    22    1
   179    48    47    1
   180    48    49    1
   181     6     5    1
   182    20    21   ar
   183    20    18   ar
   184    21    19   ar
   185    50    49    2
   186     5     2    1
   187    18    17   ar
   188    19    17   ar
   189     2     3    1
   190     2     1    1
   191    17    16    1
   192     4     3    2
   193     3    12   am
   194    12    13    1
   195    16    13    1
   196    13    14    1
   197    14    15    2
