@<TRIPOS>MOLECULE
tmp/3o97A03.pdb
 108 108 0 0 0
SMALL
GASTEIGER

@<TRIPOS>ATOM
      1  N         18.3220   16.4750   10.9090 N.3    89  THR89      -0.1203
      2  CA        17.8920   15.1160   10.6560 C.3    89  THR89       0.1994
      3  C         16.4190   15.0780   10.1060 C.2    89  THR89       0.2618
      4  O         15.5420   15.7840   10.6170 O.2    89  THR89      -0.2717
      5  CB        18.1340   14.2660   11.9350 C.3    89  THR89       0.1784
      6  OG1       17.3150   14.7340   13.0110 O.3    89  THR89      -0.2211
      7  CG2       19.5820   14.3820   12.3810 C.3    89  THR89       0.0376
      8  N         16.1670   14.2850    9.0500 N.am   90  GLU90      -0.1965
      9  CA        14.8020   14.1370    8.5040 C.3    90  GLU90       0.1733
     10  C         13.8650   13.3150    9.3850 C.2    90  GLU90       0.2616
     11  O         12.7430   13.7400    9.6560 O.2    90  GLU90      -0.2715
     12  CB        14.8090   13.5560    7.0860 C.3    90  GLU90       0.0429
     13  CG        14.7690   14.6240    5.9630 C.3    90  GLU90       0.1163
     14  CD        15.6720   14.2610    4.7740 C.2    90  GLU90       0.3649
     15  OE1       16.9010   14.1160    4.9860 O.co2  90  GLU90      -0.2457
     16  OE2       15.1600   14.1160    3.6360 O.co2  90  GLU90      -0.2457
     17  N         14.3210   12.1530    9.8410 N.am   91  GLY91      -0.1955
     18  CA        13.4400   11.2080   10.5070 C.3    91  GLY91       0.1869
     19  C         13.2110   10.0830    9.5310 C.2    91  GLY91       0.2309
     20  O         13.1350   10.3150    8.3300 O.2    91  GLY91      -0.2863
     21  N          6.4060    8.8830   10.8740 N.3   250  VAL250     -0.1231
     22  CA         7.7920    9.2920   10.7000 C.3   250  VAL250      0.1692
     23  C          8.4480    9.2740   12.0880 C.2   250  VAL250      0.2592
     24  O          7.8550    9.7180   13.0590 O.2   250  VAL250     -0.2718
     25  CB         7.9100   10.6970   10.0090 C.3   250  VAL250      0.0266
     26  CG1        6.8880   11.7130   10.6050 C.3   250  VAL250      0.0020
     27  CG2        9.3300   11.2340   10.0960 C.3   250  VAL250      0.0020
     28  N          9.6490    8.7160   12.1680 N.am  251  ALA251     -0.1966
     29  CA        10.3140    8.4030   13.4280 C.3   251  ALA251      0.1713
     30  C         11.5820    9.2460   13.6190 C.2   251  ALA251      0.2458
     31  O         12.3070    9.5100   12.6500 O.2   251  ALA251     -0.2730
     32  CB        10.6630    6.9140   13.4700 C.3   251  ALA251      0.0333
     33  N         11.8930    9.6230   14.8820 N.am  252  PRO252     -0.2716
     34  CA        13.1190   10.3790   15.0730 C.3   252  PRO252      0.1536
     35  C         14.3510    9.4550   14.9550 C.2   252  PRO252      0.2598
     36  O         14.3450    8.3080   15.4450 O.2   252  PRO252     -0.2715
     37  CB        12.9780   10.9510   16.4880 C.3   252  PRO252      0.0310
     38  CG        12.0000   10.1360   17.1710 C.3   252  PRO252      0.0237
     39  CD        11.2260    9.3190   16.1630 C.3   252  PRO252      0.0939
     40  N         15.3760    9.9440   14.2650 N.am  253  ASN253     -0.1973
     41  CA        16.6200    9.1960   14.1080 C.3   253  ASN253      0.1688
     42  C         17.2110    8.6800   15.3960 C.2   253  ASN253      0.2292
     43  O         17.1780    9.3480   16.4660 O.2   253  ASN253     -0.2864
     44  CB        17.6800   10.0410   13.4110 C.3   253  ASN253      0.1181
     45  CG        17.2610   10.4440   12.0460 C.2   253  ASN253      0.2629
     46  OD1       16.2790    9.9560   11.5030 O.2   253  ASN253     -0.2716
     47  ND2       18.0000   11.3400   11.4690 N.am  253  ASN253     -0.0877
     48  N         11.9950   17.0740   23.6220 N.3   318  GLU318     -0.1231
     49  CA        12.0830   17.9440   22.4570 C.3   318  GLU318      0.1699
     50  C         12.6530   17.1870   21.3030 C.2   318  GLU318      0.2592
     51  O         12.1730   17.3170   20.1950 O.2   318  GLU318     -0.2718
     52  CB        12.9690   19.1600   22.7200 C.3   318  GLU318      0.0402
     53  CG        12.2990   20.2450   23.4920 C.3   318  GLU318      0.1161
     54  CD        13.2810   21.2590   23.9600 C.2   318  GLU318      0.3649
     55  OE1       14.3920   20.8640   24.3980 O.co2 318  GLU318     -0.2457
     56  OE2       12.9420   22.4640   23.8900 O.co2 318  GLU318     -0.2457
     57  N         13.6990   16.4060   21.5680 N.am  319  TYR319     -0.1962
     58  CA        14.2840   15.5580   20.5280 C.3   319  TYR319      0.1771
     59  C         13.2830   14.5600   19.9640 C.2   319  TYR319      0.2619
     60  O         13.2430   14.3820   18.7550 O.2   319  TYR319     -0.2715
     61  CB        15.5750   14.8340   20.9610 C.3   319  TYR319      0.0574
     62  CG        16.1260   14.0320   19.8230 C.ar  319  TYR319     -0.0198
     63  CD1       16.8490   14.6540   18.8160 C.ar  319  TYR319     -0.0009
     64  CD2       15.8520   12.6630   19.7030 C.ar  319  TYR319     -0.0009
     65  CE1       17.3300   13.9350   17.7260 C.ar  319  TYR319      0.0417
     66  CE2       16.2990   11.9480   18.6230 C.ar  319  TYR319      0.0417
     67  CZ        17.0280   12.5980   17.6270 C.ar  319  TYR319      0.1957
     68  OH        17.5020   11.9180   16.5510 O.3   319  TYR319     -0.2866
     69  N         12.5100   13.8890   20.8100 N.am  320  LEU320     -0.1963
     70  CA        11.5820   12.8750   20.3130 C.3   320  LEU320      0.1728
     71  C         10.3500   13.5490   19.7080 C.2   320  LEU320      0.2617
     72  O          9.7440   13.0150   18.7590 O.2   320  LEU320     -0.2715
     73  CB        11.1870   11.8480   21.3980 C.3   320  LEU320      0.0311
     74  CG        12.2580   10.9070   21.9990 C.3   320  LEU320      0.0022
     75  CD1       11.6520   10.0480   23.1000 C.3   320  LEU320      0.0001
     76  CD2       12.9540   10.0170   20.9750 C.3   320  LEU320      0.0001
     77  N         10.0110   14.7300   20.2430 N.am  321  GLY321     -0.1940
     78  CA         8.8700   15.5200   19.7800 C.3   321  GLY321      0.2014
     79  C          7.6280   15.0650   20.4960 C.2   321  GLY321      0.2640
     80  O          7.5190   13.8980   20.8800 O.2   321  GLY321     -0.2714
     81  N          6.6750   15.9890   20.6550 N.am  322  THR322     -0.1936
     82  CA         5.4170   15.7600   21.4200 C.3   322  THR322      0.2028
     83  C          4.4980   14.6790   20.8630 C.2   322  THR322      0.2642
     84  O          3.9480   13.8850   21.6340 O.2   322  THR322     -0.2714
     85  CB         4.5660   17.0540   21.6020 C.3   322  THR322      0.1808
     86  OG1        5.0730   18.1000   20.7570 O.3   322  THR322     -0.2208
     87  CG2        4.5980   17.5210   23.0470 C.3   322  THR322      0.0379
     88  N          4.3030   14.6330   19.5460 N.am  323  GLU323     -0.1963
     89  CA         3.4170   13.5950   19.0170 C.3   323  GLU323      0.1733
     90  C          3.9550   12.1920   19.4130 C.2   323  GLU323      0.2616
     91  O          3.2440   11.4070   20.0450 O.2   323  GLU323     -0.2715
     92  CB         3.1580   13.7690   17.5060 C.3   323  GLU323      0.0429
     93  CG         4.3950   13.5510   16.6370 C.3   323  GLU323      0.1163
     94  CD         4.1570   13.7150   15.1310 C.2   323  GLU323      0.3649
     95  OE1        4.9900   14.4240   14.4740 O.co2 323  GLU323     -0.2457
     96  OE2        3.1660   13.1240   14.6130 O.co2 323  GLU323     -0.2457
     97  N          5.2230   11.9110   19.1160 N.am  324  TYR324     -0.1974
     98  CA         5.8110   10.6330   19.5320 C.3   324  TYR324      0.1639
     99  C          5.7530   10.3300   21.0470 C.2   324  TYR324      0.2290
    100  O          5.4270    9.2060   21.4430 O.2   324  TYR324     -0.2864
    101  CB         7.2300   10.4590   19.0000 C.3   324  TYR324      0.0560
    102  CG         7.7670    9.0660   19.1860 C.ar  324  TYR324     -0.0198
    103  CD1        6.9900    7.9430   18.8930 C.ar  324  TYR324     -0.0009
    104  CD2        9.0580    8.8630   19.6370 C.ar  324  TYR324     -0.0009
    105  CE1        7.4920    6.6430   19.0680 C.ar  324  TYR324      0.0417
    106  CE2        9.5700    7.5710   19.8110 C.ar  324  TYR324      0.0417
    107  CZ         8.7850    6.4750   19.5250 C.ar  324  TYR324      0.1957
    108  OH         9.3030    5.2220   19.7080 O.3   324  TYR324     -0.2866
@<TRIPOS>BOND
     1    16    14   ar
     2    14    15   ar
     3    14    13    1
     4    13    12    1
     5    12     9    1
     6    20    19    2
     7     9     8    1
     8     9    10    1
     9     8     3   am
    10    10    11    2
    11    10    17   am
    12    19    18    1
    13    17    18    1
    14    25    27    1
    15    25    26    1
    16    25    22    1
    17     3     4    2
    18     3     2    1
    19     2     1    1
    20     2     5    1
    21    22    21    1
    22    22    23    1
    23    47    45   am
    24    46    45    2
    25     5     7    1
    26     5     6    1
    27    45    44    1
    28    23    28   am
    29    23    24    2
    30    28    29    1
    31    31    30    2
    32    44    41    1
    33    29    32    1
    34    29    30    1
    35    30    33   am
    36    41    40    1
    37    41    42    1
    38    40    35   am
    39    95    94   ar
    40    96    94   ar
    41    33    34    1
    42    33    39    1
    43    35    34    1
    44    35    36    2
    45    34    37    1
    46    94    93    1
    47    42    43    2
    48    39    38    1
    49    37    38    1
    50    68    67    1
    51    93    92    1
    52    92    89    1
    53    67    65   ar
    54    67    66   ar
    55    65    63   ar
    56    66    64   ar
    57    60    59    2
    58    72    71    2
    59    63    62   ar
    60   103   105   ar
    61   103   102   ar
    62   101   102    1
    63   101    98    1
    64    89    90    1
    65    89    88    1
    66   105   107   ar
    67    97    90   am
    68    97    98    1
    69   102   104   ar
    70    90    91    2
    71   107   108    1
    72   107   106   ar
    73    98    99    1
    74    88    83   am
    75   104   106   ar
    76    64    62   ar
    77    71    77   am
    78    71    70    1
    79    78    77    1
    80    78    79    1
    81    62    61    1
    82    59    58    1
    83    59    69   am
    84    51    50    2
    85    70    69    1
    86    70    73    1
    87    79    81   am
    88    79    80    2
    89    58    61    1
    90    58    57    1
    91    81    82    1
    92    86    85    1
    93    83    82    1
    94    83    84    2
    95    76    74    1
    96    99   100    2
    97    50    57   am
    98    50    49    1
    99    73    74    1
   100    82    85    1
   101    85    87    1
   102    74    75    1
   103    49    52    1
   104    49    48    1
   105    52    53    1
   106    53    54    1
   107    56    54   ar
   108    54    55   ar
