@<TRIPOS>MOLECULE
tmp/3o9cB00.pdb
 121 113 0 0 0
SMALL
GASTEIGER

@<TRIPOS>ATOM
      1  N         19.2480   16.7600   15.3020 N.3     8  ARG8       -0.1245
      2  CA        18.5530   17.9870   15.6870 C.3     8  ARG8        0.1563
      3  C         17.5190   17.6460   16.7500 C.2     8  ARG8        0.2260
      4  O         16.7570   16.6750   16.5820 O.2     8  ARG8       -0.2867
      5  CB        17.8480   18.6260   14.5040 C.3     8  ARG8        0.0307
      6  CG        18.7870   19.1450   13.4380 C.3     8  ARG8        0.0489
      7  CD        18.0080   19.9180   12.3570 C.3     8  ARG8        0.2205
      8  NE        18.9080   20.6340   11.4520 N.pl3   8  ARG8       -0.0865
      9  CZ        18.5220   21.5100   10.5260 C.cat   8  ARG8        0.5346
     10  NH1       17.2380   21.8150   10.3590 N.pl3   8  ARG8        0.1354
     11  NH2       19.4310   22.0890    9.7570 N.pl3   8  ARG8        0.1354
     12  N         12.3740   22.7970   17.0030 N.3    23  LEU23      -0.1245
     13  CA        13.6970   22.6270   17.5840 C.3    23  LEU23       0.1561
     14  C         13.7030   23.1770   18.9860 C.2    23  LEU23       0.2260
     15  O         13.2430   24.3000   19.1590 O.2    23  LEU23      -0.2867
     16  CB        14.7360   23.4620   16.8530 C.3    23  LEU23       0.0270
     17  CG        15.3340   23.0390   15.5320 C.3    23  LEU23       0.0019
     18  CD1       16.2040   24.2040   15.0420 C.3    23  LEU23       0.0001
     19  CD2       16.1080   21.7490   15.7270 C.3    23  LEU23       0.0001
     20  N         15.8170   25.1430   21.0820 N.3    25  ASP25      -0.1239
     21  CA        16.9600   25.9410   20.6280 C.3    25  ASP25       0.1674
     22  C         17.4820   26.9390   21.6640 C.2    25  ASP25       0.2266
     23  O         16.9420   28.0440   21.8140 O.2    25  ASP25      -0.2867
     24  CB        16.5710   26.6460   19.3240 C.3    25  ASP25       0.1410
     25  CG        17.7480   27.3240   18.6400 C.2    25  ASP25       0.3668
     26  OD1       17.5240   27.8550   17.5380 O.co2  25  ASP25      -0.2456
     27  OD2       18.8840   27.3100   19.1810 O.co2  25  ASP25      -0.2456
     28  N         20.0280   28.6870   21.4620 N.3    27  GLY27      -0.1210
     29  CA        20.5840   29.8660   20.8130 C.3    27  GLY27       0.1956
     30  C         19.5600   30.9270   20.4230 C.2    27  GLY27       0.2612
     31  O         19.9480   31.9920   19.9370 O.2    27  GLY27      -0.2717
     32  N         18.2730   30.6050   20.5890 N.am   28  ALA28      -0.1965
     33  CA        17.1370   31.4580   20.2390 C.3    28  ALA28       0.1728
     34  C         16.5880   32.1570   21.4830 C.2    28  ALA28       0.2616
     35  O         16.0710   31.4890   22.3900 O.2    28  ALA28      -0.2715
     36  CB        16.0210   30.6150   19.6020 C.3    28  ALA28       0.0334
     37  N         16.6450   33.4890   21.5050 N.am   29  ASP29      -0.1957
     38  CA        16.0620   34.2670   22.6280 C.3    29  ASP29       0.1840
     39  C         14.5620   34.1040   22.6490 C.2    29  ASP29       0.2622
     40  O         13.9310   34.0120   23.7170 O.2    29  ASP29      -0.2715
     41  CB        16.3080   35.7570   22.4700 C.3    29  ASP29       0.1450
     42  CG        17.7630   36.1220   22.5030 C.2    29  ASP29       0.3671
     43  OD1       18.5770   35.3040   22.9570 O.co2  29  ASP29      -0.2456
     44  OD2       18.0650   37.2510   22.0640 O.co2  29  ASP29      -0.2456
     45  N         14.0170   34.0780   21.4310 N.am   30  ASP30      -0.1971
     46  CA        12.5840   34.0840   21.1780 C.3    30  ASP30       0.1709
     47  C         12.1590   32.8150   20.4210 C.2    30  ASP30       0.2293
     48  O         12.9620   32.1310   19.7920 O.2    30  ASP30      -0.2864
     49  CB        12.2220   35.3070   20.3330 C.3    30  ASP30       0.1436
     50  CG        12.6810   36.6110   20.9560 C.2    30  ASP30       0.3671
     51  OD1       12.5760   36.7340   22.1880 O.co2  30  ASP30      -0.2456
     52  OD2       13.1350   37.5120   20.2060 O.co2  30  ASP30      -0.2456
     53  N         10.1280   31.2140   17.3770 N.3    32  VAL32      -0.1245
     54  CA         9.7690   31.6180   16.0180 C.3    32  VAL32       0.1561
     55  C          9.1340   30.4260   15.3010 C.2    32  VAL32       0.2260
     56  O          9.7540   29.3700   15.1360 O.2    32  VAL32      -0.2867
     57  CB        10.9980   32.0750   15.2150 C.3    32  VAL32       0.0252
     58  CG1       10.5620   32.7620   13.8930 C.3    32  VAL32       0.0019
     59  CG2       11.9000   32.9970   16.0710 C.3    32  VAL32       0.0019
     60  N          7.8680   42.8790   13.9430 N.3    45  LYS45      -0.1245
     61  CA         9.2080   42.7630   14.4920 C.3    45  LYS45       0.1561
     62  C         10.1660   42.2270   13.4270 C.2    45  LYS45       0.2260
     63  O          9.7490   41.5850   12.4610 O.2    45  LYS45      -0.2867
     64  CB         9.2020   41.8210   15.6920 C.3    45  LYS45       0.0271
     65  CG        10.4790   41.8400   16.5430 C.3    45  LYS45       0.0035
     66  CD        10.3520   40.9150   17.7330 C.3    45  LYS45       0.0206
     67  CE        11.6650   40.8600   18.4800 C.3    45  LYS45       0.1093
     68  NZ        11.5030   40.4510   19.8820 N.3    45  LYS45      -0.1314
     69  N         13.8350   39.9840   13.3070 N.3    47  ILE47      -0.1231
     70  CA        14.8280   39.2320   14.0830 C.3    47  ILE47       0.1692
     71  C         15.9570   38.8210   13.1510 C.2    47  ILE47       0.2593
     72  O         15.7360   38.5330   11.9780 O.2    47  ILE47      -0.2718
     73  CB        14.2060   38.0380   14.8380 C.3    47  ILE47       0.0266
     74  CG1       13.5620   37.0510   13.8720 C.3    47  ILE47       0.0019
     75  CG2       13.1890   38.5700   15.8330 C.3    47  ILE47       0.0020
     76  CD1       13.1260   35.7300   14.5190 C.3    47  ILE47       0.0001
     77  N         17.1650   38.8460   13.6990 N.am   48  GLY48      -0.1942
     78  CA        18.3620   38.5950   12.9340 C.3    48  GLY48       0.2014
     79  C         19.0210   37.2680   13.2530 C.2    48  GLY48       0.2639
     80  O         19.0660   36.8100   14.3960 O.2    48  GLY48      -0.2714
     81  N         19.5810   36.6800   12.2110 N.am   49  GLY49      -0.1939
     82  CA        20.3730   35.4800   12.3360 C.3    49  GLY49       0.2014
     83  C         21.4120   35.3770   11.2340 C.2    49  GLY49       0.2638
     84  O         21.7260   36.3420   10.5550 O.2    49  GLY49      -0.2714
     85  N         21.9550   34.1850   11.0750 N.am   50  ILE50      -0.1977
     86  CA        22.8520   33.9160    9.9650 C.3    50  ILE50       0.1596
     87  C         22.0990   34.1810    8.6490 C.2    50  ILE50       0.2287
     88  O         20.9750   33.7030    8.4540 O.2    50  ILE50      -0.2864
     89  CB        23.4240   32.4940   10.0360 C.3    50  ILE50       0.0276
     90  CG1       24.6010   32.4760   11.0200 C.3    50  ILE50       0.0022
     91  CG2       23.9400   32.0220    8.6720 C.3    50  ILE50       0.0022
     92  CD1       25.0840   31.0620   11.3790 C.3    50  ILE50       0.0001
     93  N         10.3950   31.5750    8.6910 N.3    80  THR80      -0.1204
     94  CA        11.5000   30.7250    9.1220 C.3    80  THR80       0.1979
     95  C         11.3630   29.3480    8.4650 C.2    80  THR80       0.2460
     96  O         10.2470   28.8810    8.2260 O.2    80  THR80      -0.2732
     97  CB        11.5510   30.5850   10.6610 C.3    80  THR80       0.1783
     98  OG1       12.5760   29.6580   11.0410 O.3    80  THR80      -0.2211
     99  CG2       10.2110   30.1240   11.2410 C.3    80  THR80       0.0376
    100  N         12.4960   28.7180    8.1250 N.am   81  PRO81      -0.2717
    101  CA        12.5190   27.3660    7.5530 C.3    81  PRO81       0.1535
    102  C         12.2290   26.2440    8.5390 C.2    81  PRO81       0.2598
    103  O         11.9790   25.1060    8.1280 O.2    81  PRO81      -0.2715
    104  CB        13.9530   27.2300    7.0550 C.3    81  PRO81       0.0310
    105  CG        14.7390   28.1370    7.8980 C.3    81  PRO81       0.0237
    106  CD        13.8510   29.3000    8.1990 C.3    81  PRO81       0.0939
    107  N         12.2790   26.5640    9.8250 N.am   82  VAL82      -0.1978
    108  CA        12.0860   25.5880   10.8740 C.3    82  VAL82       0.1596
    109  C         11.3780   26.2520   12.0460 C.2    82  VAL82       0.2287
    110  O         11.5600   27.4460   12.3120 O.2    82  VAL82      -0.2864
    111  CB        13.4490   25.0250   11.3310 C.3    82  VAL82       0.0276
    112  CG1       14.1590   24.3460   10.1680 C.3    82  VAL82       0.0022
    113  CG2       14.3100   26.1510   11.8970 C.3    82  VAL82       0.0022
    114  N         11.1450   27.0210   15.7920 N.3    84  ILE84      -0.1245
    115  CA        12.1700   27.2260   16.8140 C.3    84  ILE84       0.1561
    116  C         11.5330   27.5230   18.1890 C.2    84  ILE84       0.2260
    117  O         10.7600   28.4940   18.3400 O.2    84  ILE84      -0.2867
    118  CB        13.1100   28.3750   16.4070 C.3    84  ILE84       0.0252
    119  CG1       13.8650   28.0100   15.1350 C.3    84  ILE84       0.0019
    120  CG2       14.0890   28.7210   17.5360 C.3    84  ILE84       0.0019
    121  CD1       14.4940   29.1760   14.4610 C.3    84  ILE84       0.0001
@<TRIPOS>BOND
     1   104   101    1
     2   104   105    1
     3   101   100    1
     4   101   102    1
     5   105   106    1
     6   100   106    1
     7   100    95   am
     8   103   102    2
     9    96    95    2
    10    88    87    2
    11    95    94    1
    12   102   107   am
    13    87    86    1
    14    91    89    1
    15    93    94    1
    16    94    97    1
    17    11     9    1
    18   107   108    1
    19    86    89    1
    20    86    85    1
    21    89    90    1
    22   112   111    1
    23    10     9    1
    24     9     8    2
    25    84    83    2
    26    97    98    1
    27    97    99    1
    28   108   111    1
    29   108   109    1
    30    90    92    1
    31    85    83   am
    32    83    82    1
    33   111   113    1
    34     8     7    1
    35    72    71    2
    36   109   110    2
    37    81    82    1
    38    81    79   am
    39     7     6    1
    40    63    62    2
    41    78    79    1
    42    78    77    1
    43    71    77   am
    44    71    70    1
    45    79    80    2
    46    69    70    1
    47    62    61    1
    48     6     5    1
    49    74    76    1
    50    74    73    1
    51    58    57    1
    52    60    61    1
    53    70    73    1
    54   121   119    1
    55    61    64    1
    56     5     2    1
    57    73    75    1
    58    18    17    1
    59   119   118    1
    60    56    55    2
    61    57    54    1
    62    57    59    1
    63    55    54    1
    64     1     2    1
    65    17    19    1
    66    17    16    1
    67     2     3    1
    68    64    65    1
    69   114   115    1
    70    54    53    1
    71   118   115    1
    72   118   120    1
    73    65    66    1
    74     4     3    2
    75   115   116    1
    76    16    13    1
    77    12    13    1
    78    26    25   ar
    79    13    14    1
    80    66    67    1
    81   116   117    2
    82    67    68    1
    83    25    27   ar
    84    25    24    1
    85    14    15    2
    86    24    21    1
    87    36    33    1
    88    48    47    2
    89    31    30    2
    90    52    50   ar
    91    33    32    1
    92    33    34    1
    93    49    50    1
    94    49    46    1
    95    47    46    1
    96    30    32   am
    97    30    29    1
    98    21    20    1
    99    21    22    1
   100    29    28    1
   101    50    51   ar
   102    46    45    1
   103    45    39   am
   104    34    37   am
   105    34    35    2
   106    37    38    1
   107    22    23    2
   108    44    42   ar
   109    41    42    1
   110    41    38    1
   111    42    43   ar
   112    38    39    1
   113    39    40    2
