@<TRIPOS>MOLECULE
tmp/3o9fA00.pdb
 112 105 0 0 0
SMALL
GASTEIGER

@<TRIPOS>ATOM
      1  N         20.9920   34.0810   28.2180 N.3     8  ARG8       -0.1245
      2  CA        21.7110   33.4220   27.1150 C.3     8  ARG8        0.1563
      3  C         22.8340   32.5250   27.6530 C.2     8  ARG8        0.2260
      4  O         23.6210   32.9590   28.5060 O.2     8  ARG8       -0.2867
      5  CB        22.3310   34.4370   26.1590 C.3     8  ARG8        0.0307
      6  CG        21.3330   35.1020   25.2350 C.3     8  ARG8        0.0489
      7  CD        21.9220   36.3360   24.6080 C.3     8  ARG8        0.2205
      8  NE        20.9540   37.0010   23.7390 N.pl3   8  ARG8       -0.0865
      9  CZ        21.1060   38.2190   23.2220 C.cat   8  ARG8        0.5346
     10  NH1       22.1900   38.9530   23.4810 N.pl3   8  ARG8        0.1354
     11  NH2       20.1640   38.7020   22.4230 N.pl3   8  ARG8        0.1354
     12  N         28.0630   31.3750   22.2170 N.3    23  LEU23      -0.1245
     13  CA        26.7350   30.9710   22.6300 C.3    23  LEU23       0.1561
     14  C         26.5240   29.4840   22.3560 C.2    23  LEU23       0.2260
     15  O         26.6840   29.0190   21.2200 O.2    23  LEU23      -0.2867
     16  CB        25.7130   31.7880   21.8430 C.3    23  LEU23       0.0270
     17  CG        24.2240   31.5300   22.0710 C.3    23  LEU23       0.0019
     18  CD1       23.7390   32.0200   23.4170 C.3    23  LEU23       0.0001
     19  CD2       23.4970   32.2330   20.9130 C.3    23  LEU23       0.0001
     20  N         24.4860   26.7320   21.2810 N.3    25  ASP25      -0.1239
     21  CA        23.3760   26.9150   20.3440 C.3    25  ASP25       0.1674
     22  C         22.8890   25.5660   19.8150 C.2    25  ASP25       0.2266
     23  O         23.3210   25.0840   18.7590 O.2    25  ASP25      -0.2867
     24  CB        23.8410   27.8540   19.2120 C.3    25  ASP25       0.1410
     25  CG        22.7150   28.2530   18.2640 C.2    25  ASP25       0.3668
     26  OD1       21.5870   27.7070   18.4050 O.co2  25  ASP25      -0.2456
     27  OD2       22.9610   29.1300   17.4020 O.co2  25  ASP25      -0.2456
     28  N         20.2470   24.8110   18.2910 N.3    27  GLY27      -0.1210
     29  CA        19.6100   24.9540   16.9890 C.3    27  GLY27       0.1956
     30  C         20.5880   25.1300   15.8380 C.2    27  GLY27       0.2612
     31  O         20.1640   25.2670   14.6960 O.2    27  GLY27      -0.2717
     32  N         21.8880   25.1330   16.1380 N.am   28  ALA28      -0.1965
     33  CA        22.9270   25.2120   15.1170 C.3    28  ALA28       0.1728
     34  C         23.5500   23.8300   14.8910 C.2    28  ALA28       0.2616
     35  O         24.0260   23.2010   15.8320 O.2    28  ALA28      -0.2715
     36  CB        23.9950   26.2130   15.5260 C.3    28  ALA28       0.0334
     37  N         23.5360   23.3620   13.6480 N.am   29  ASP29      -0.1957
     38  CA        24.2640   22.1460   13.2700 C.3    29  ASP29       0.1840
     39  C         25.7730   22.3640   13.4250 C.2    29  ASP29       0.2622
     40  O         26.5130   21.4580   13.8320 O.2    29  ASP29      -0.2715
     41  CB        24.0120   21.7870   11.7970 C.3    29  ASP29       0.1450
     42  CG        22.5530   21.5060   11.4720 C.2    29  ASP29       0.3671
     43  OD1       21.7060   21.3640   12.3860 O.co2  29  ASP29      -0.2456
     44  OD2       22.2610   21.3910   10.2530 O.co2  29  ASP29      -0.2456
     45  N         26.2030   23.5780   13.0820 N.am   30  ASP30      -0.1971
     46  CA        27.6050   23.9240   12.8990 C.3    30  ASP30       0.1709
     47  C         28.0530   24.9780   13.8990 C.2    30  ASP30       0.2293
     48  O         27.2630   25.8220   14.3250 O.2    30  ASP30      -0.2864
     49  CB        27.8130   24.4890   11.4820 C.3    30  ASP30       0.1436
     50  CG        27.3360   23.5450   10.3990 C.2    30  ASP30       0.3671
     51  OD1       27.6280   22.3320   10.4940 O.co2  30  ASP30      -0.2456
     52  OD2       26.6780   24.0260    9.4490 O.co2  30  ASP30      -0.2456
     53  N         30.0820   28.3100   14.3480 N.3    32  VAL32      -0.1245
     54  CA        30.3860   29.4400   13.4880 C.3    32  VAL32       0.1561
     55  C         30.9110   30.5830   14.3580 C.2    32  VAL32       0.2260
     56  O         30.2260   31.0520   15.2630 O.2    32  VAL32      -0.2867
     57  CB        29.1480   29.9180   12.6850 C.3    32  VAL32       0.0252
     58  CG1       29.5870   30.9070   11.5970 C.3    32  VAL32       0.0019
     59  CG2       28.3730   28.7450   12.0990 C.3    32  VAL32       0.0019
     60  N         26.6590   28.4840    4.0990 N.3    47  ILE47      -0.1231
     61  CA        25.6660   27.9970    5.0390 C.3    47  ILE47       0.1692
     62  C         24.4810   28.9510    5.1290 C.2    47  ILE47       0.2593
     63  O         24.6280   30.1630    4.9270 O.2    47  ILE47      -0.2718
     64  CB        26.2380   27.7440    6.4470 C.3    47  ILE47       0.0266
     65  CG1       26.7770   29.0190    7.1100 C.3    47  ILE47       0.0019
     66  CG2       27.3320   26.6800    6.3930 C.3    47  ILE47       0.0020
     67  CD1       27.0710   28.8280    8.5720 C.3    47  ILE47       0.0001
     68  N         23.3290   28.3790    5.4670 N.am   48  GLY48      -0.1942
     69  CA        22.0870   29.1400    5.5890 C.3    48  GLY48       0.2014
     70  C         21.5790   29.2020    7.0190 C.2    48  GLY48       0.2639
     71  O         21.6500   28.2160    7.7550 O.2    48  GLY48      -0.2714
     72  N         21.0650   30.3650    7.3950 N.am   49  GLY49      -0.1939
     73  CA        20.4070   30.5900    8.6820 C.3    49  GLY49       0.2014
     74  C         19.0160   31.1570    8.4320 C.2    49  GLY49       0.2638
     75  O         18.4520   31.0330    7.3240 O.2    49  GLY49      -0.2714
     76  N         18.4860   31.8110    9.4570 N.am   50  ILE50      -0.1977
     77  CA        17.1320   32.3260    9.4200 C.3    50  ILE50       0.1596
     78  C         16.9900   33.4260    8.3800 C.2    50  ILE50       0.2287
     79  O         15.9160   33.5800    7.8020 O.2    50  ILE50      -0.2864
     80  CB        16.6510   32.8240   10.8190 C.3    50  ILE50       0.0276
     81  CG1       15.1370   32.5990   10.9810 C.3    50  ILE50       0.0022
     82  CG2       17.0230   34.2830   11.0280 C.3    50  ILE50       0.0022
     83  CD1       14.5950   32.9870   12.3590 C.3    50  ILE50       0.0001
     84  N         28.6160   35.5990   11.1250 N.3    80  THR80      -0.1204
     85  CA        27.5500   35.2800   12.0730 C.3    80  THR80       0.1979
     86  C         27.3120   36.4890   12.9960 C.2    80  THR80       0.2460
     87  O         28.2660   37.2130   13.3400 O.2    80  THR80      -0.2732
     88  CB        27.9040   34.0170   12.8810 C.3    80  THR80       0.1783
     89  OG1       26.8890   33.7820   13.8580 O.3    80  THR80      -0.2211
     90  CG2       29.2670   34.1430   13.5550 C.3    80  THR80       0.0376
     91  N         26.0550   36.7210   13.4290 N.am   81  PRO81      -0.2717
     92  CA        25.8140   37.7880   14.4260 C.3    81  PRO81       0.1535
     93  C         26.5220   37.6410   15.7820 C.2    81  PRO81       0.2598
     94  O         26.7700   38.6370   16.4580 O.2    81  PRO81      -0.2715
     95  CB        24.2950   37.7630   14.6580 C.3    81  PRO81       0.0310
     96  CG        23.7790   36.5560   13.9800 C.3    81  PRO81       0.0237
     97  CD        24.8120   36.0370   13.0230 C.3    81  PRO81       0.0939
     98  N         26.8220   36.4060   16.1700 N.am   82  VAL82      -0.1978
     99  CA        27.4970   36.1180   17.4270 C.3    82  VAL82       0.1596
    100  C         28.2220   34.7870   17.2530 C.2    82  VAL82       0.2287
    101  O         27.7970   33.9490   16.4500 O.2    82  VAL82      -0.2864
    102  CB        26.4990   36.0180   18.6050 C.3    82  VAL82       0.0276
    103  CG1       27.2380   36.0260   19.9450 C.3    82  VAL82       0.0022
    104  CG2       25.4660   37.1480   18.5630 C.3    82  VAL82       0.0022
    105  N         28.9380   31.1280   17.8160 N.3    84  ILE84      -0.1245
    106  CA        28.0490   30.0460   18.2320 C.3    84  ILE84       0.1561
    107  C         28.7590   28.7040   18.2530 C.2    84  ILE84       0.2260
    108  O         29.5340   28.3790   17.3480 O.2    84  ILE84      -0.2867
    109  CB        26.7460   29.9390   17.3960 C.3    84  ILE84       0.0252
    110  CG1       27.0460   29.7210   15.8980 C.3    84  ILE84       0.0019
    111  CG2       25.8590   31.1850   17.6330 C.3    84  ILE84       0.0019
    112  CD1       25.8400   29.4800   15.0240 C.3    84  ILE84       0.0001
@<TRIPOS>BOND
     1    60    61    1
     2    63    62    2
     3    61    62    1
     4    61    64    1
     5    62    68   am
     6    68    69    1
     7    69    70    1
     8    66    64    1
     9    64    65    1
    10    70    72   am
    11    70    71    2
    12    65    67    1
    13    75    74    2
    14    72    73    1
    15    79    78    2
    16    78    77    1
    17    74    73    1
    18    74    76   am
    19    77    76    1
    20    77    80    1
    21    52    50   ar
    22    44    42   ar
    23    50    51   ar
    24    50    49    1
    25    80    81    1
    26    80    82    1
    27    81    83    1
    28    84    85    1
    29    42    41    1
    30    42    43   ar
    31    49    46    1
    32    58    57    1
    33    41    38    1
    34    85    88    1
    35    85    86    1
    36    59    57    1
    37    57    54    1
    38    88    90    1
    39    88    89    1
    40    46    45    1
    41    46    47    1
    42    86    87    2
    43    86    91   am
    44    97    91    1
    45    97    96    1
    46    45    39   am
    47    38    39    1
    48    38    37    1
    49    39    40    2
    50    91    92    1
    51    54    53    1
    52    54    55    1
    53    37    34   am
    54    47    48    2
    55    96    95    1
    56    55    56    2
    57    92    95    1
    58    92    93    1
    59    31    30    2
    60    34    33    1
    61    34    35    2
    62   112   110    1
    63    33    36    1
    64    33    32    1
    65    93    98   am
    66    93    94    2
    67    30    32   am
    68    30    29    1
    69   110   109    1
    70    98    99    1
    71   101   100    2
    72    29    28    1
    73   100    99    1
    74   108   107    2
    75   109   111    1
    76   109   106    1
    77    27    25   ar
    78    99   102    1
    79   105   106    1
    80   106   107    1
    81    25    26   ar
    82    25    24    1
    83   104   102    1
    84   102   103    1
    85    23    22    2
    86    24    21    1
    87    22    21    1
    88    21    20    1
    89    19    17    1
    90    15    14    2
    91    16    17    1
    92    16    13    1
    93    17    18    1
    94    12    13    1
    95    14    13    1
    96    11     9    1
    97     9    10    1
    98     9     8    2
    99     8     7    1
   100     7     6    1
   101     6     5    1
   102     5     2    1
   103     2     3    1
   104     2     1    1
   105     3     4    2
