@<TRIPOS>MOLECULE
tmp/3o9iA00.pdb
 101 95 0 0 0
SMALL
GASTEIGER

@<TRIPOS>ATOM
      1  N         28.1980   31.2180   22.0790 N.3    23  LEU23      -0.1245
      2  CA        26.8670   30.8220   22.4820 C.3    23  LEU23       0.1561
      3  C         26.6520   29.3350   22.2500 C.2    23  LEU23       0.2260
      4  O         26.8460   28.8430   21.1390 O.2    23  LEU23      -0.2867
      5  CB        25.8680   31.6260   21.6500 C.3    23  LEU23       0.0270
      6  CG        24.3760   31.4370   21.8410 C.3    23  LEU23       0.0019
      7  CD1       23.9910   31.9890   23.1890 C.3    23  LEU23       0.0001
      8  CD2       23.6190   32.1460   20.7260 C.3    23  LEU23       0.0001
      9  N         24.5540   26.5400   21.2530 N.3    25  ASP25      -0.1239
     10  CA        23.4290   26.6900   20.3370 C.3    25  ASP25       0.1674
     11  C         22.9390   25.3290   19.8440 C.2    25  ASP25       0.2266
     12  O         23.3970   24.8090   18.8180 O.2    25  ASP25      -0.2867
     13  CB        23.8660   27.5950   19.1730 C.3    25  ASP25       0.1410
     14  CG        22.7270   27.9930   18.2550 C.2    25  ASP25       0.3668
     15  OD1       21.6080   27.4450   18.4480 O.co2  25  ASP25      -0.2456
     16  OD2       22.9530   28.8220   17.3490 O.co2  25  ASP25      -0.2456
     17  N         20.2570   24.5850   18.4000 N.3    27  GLY27      -0.1210
     18  CA        19.6240   24.7270   17.0980 C.3    27  GLY27       0.1956
     19  C         20.5820   24.8500   15.9280 C.2    27  GLY27       0.2612
     20  O         20.1290   24.9740   14.7860 O.2    27  GLY27      -0.2717
     21  N         21.8870   24.8450   16.1970 N.am   28  ALA28      -0.1965
     22  CA        22.9030   24.9020   15.1490 C.3    28  ALA28       0.1728
     23  C         23.5110   23.5240   14.9310 C.2    28  ALA28       0.2616
     24  O         24.0240   22.9250   15.8710 O.2    28  ALA28      -0.2715
     25  CB        23.9800   25.8930   15.5470 C.3    28  ALA28       0.0334
     26  N         23.4780   23.0230   13.6990 N.am   29  ASP29      -0.1957
     27  CA        24.1570   21.7860   13.3570 C.3    29  ASP29       0.1840
     28  C         25.6570   21.9940   13.5150 C.2    29  ASP29       0.2622
     29  O         26.3870   21.0720   13.8920 O.2    29  ASP29      -0.2715
     30  CB        23.9010   21.3700   11.9060 C.3    29  ASP29       0.1450
     31  CG        22.4480   21.1420   11.5740 C.2    29  ASP29       0.3671
     32  OD1       21.6000   20.9750   12.4710 O.co2  29  ASP29      -0.2456
     33  OD2       22.1610   21.0880   10.3610 O.co2  29  ASP29      -0.2456
     34  N         26.1060   23.1820   13.1190 N.am   30  ASP30      -0.1971
     35  CA        27.5220   23.4770   12.9440 C.3    30  ASP30       0.1709
     36  C         27.9940   24.5640   13.8810 C.2    30  ASP30       0.2293
     37  O         27.2210   25.4180   14.2930 O.2    30  ASP30      -0.2864
     38  CB        27.7950   23.9700   11.5250 C.3    30  ASP30       0.1436
     39  CG        27.2640   23.0400   10.4610 C.2    30  ASP30       0.3671
     40  OD1       27.4970   21.8150   10.5410 O.co2  30  ASP30      -0.2456
     41  OD2       26.6480   23.5680    9.5070 O.co2  30  ASP30      -0.2456
     42  N         30.0540   27.9330   14.2070 N.3    32  VAL32      -0.1245
     43  CA        30.3510   29.0530   13.3190 C.3    32  VAL32       0.1561
     44  C         30.9000   30.1980   14.1580 C.2    32  VAL32       0.2260
     45  O         30.2460   30.6470   15.1020 O.2    32  VAL32      -0.2867
     46  CB        29.1010   29.5450   12.5400 C.3    32  VAL32       0.0252
     47  CG1       29.5350   30.4870   11.4310 C.3    32  VAL32       0.0019
     48  CG2       28.3230   28.3670   11.9440 C.3    32  VAL32       0.0019
     49  N         26.5860   28.0100    4.1450 N.3    47  ILE47      -0.1231
     50  CA        25.5720   27.4940    5.0510 C.3    47  ILE47       0.1692
     51  C         24.4060   28.4700    5.1350 C.2    47  ILE47       0.2593
     52  O         24.5750   29.6760    4.9400 O.2    47  ILE47      -0.2718
     53  CB        26.1190   27.2460    6.4640 C.3    47  ILE47       0.0266
     54  CG1       26.6580   28.5320    7.0910 C.3    47  ILE47       0.0019
     55  CG2       27.1770   26.1320    6.4550 C.3    47  ILE47       0.0020
     56  CD1       26.9670   28.3590    8.5530 C.3    47  ILE47       0.0001
     57  N         23.2500   27.9330    5.5110 N.am   48  GLY48      -0.1942
     58  CA        22.0130   28.7060    5.6010 C.3    48  GLY48       0.2014
     59  C         21.4910   28.7840    7.0160 C.2    48  GLY48       0.2639
     60  O         21.5750   27.8300    7.7780 O.2    48  GLY48      -0.2714
     61  N         20.8930   29.9190    7.3340 N.am   49  GLY49      -0.1939
     62  CA        20.3050   30.1600    8.6390 C.3    49  GLY49       0.2014
     63  C         18.9290   30.7650    8.4370 C.2    49  GLY49       0.2638
     64  O         18.3130   30.6420    7.3740 O.2    49  GLY49      -0.2714
     65  N         18.4200   31.4240    9.4660 N.am   50  ILE50      -0.1977
     66  CA        17.0560   31.8890    9.4270 C.3    50  ILE50       0.1596
     67  C         16.8570   32.9380    8.3470 C.2    50  ILE50       0.2287
     68  O         15.7570   33.0660    7.8090 O.2    50  ILE50      -0.2864
     69  CB        16.6070   32.4260   10.8080 C.3    50  ILE50       0.0276
     70  CG1       15.0980   32.2760   10.9670 C.3    50  ILE50       0.0022
     71  CG2       17.0360   33.8790   10.9820 C.3    50  ILE50       0.0022
     72  CD1       14.6060   32.6430   12.3560 C.3    50  ILE50       0.0001
     73  N         28.6330   35.1240   10.8480 N.3    80  THR80      -0.1204
     74  CA        27.5660   34.8260   11.7940 C.3    80  THR80       0.1979
     75  C         27.3340   36.0440   12.7090 C.2    80  THR80       0.2464
     76  O         28.2960   36.7650   13.0060 O.2    80  THR80      -0.2732
     77  CB        27.9410   33.6000   12.6320 C.3    80  THR80       0.1783
     78  OG1       26.9200   33.3900   13.6010 O.3    80  THR80      -0.2211
     79  CG2       29.2800   33.7930   13.3660 C.3    80  THR80       0.0376
     80  N         26.0870   36.2860   13.1700 N.am   81  PRO81      -0.2642
     81  CA        25.8290   37.3840   14.1100 C.3    81  PRO81       0.1762
     82  C         26.5690   37.2690   15.4440 C.2    81  PRO81       0.2641
     83  O         26.8190   38.2720   16.0990 O.2    81  PRO81      -0.2712
     84  CB        24.3160   37.3250   14.3730 C.2    81  PRO81      -0.0003
     85  CG        23.7730   36.2300   13.5650 C.2    81  PRO81      -0.0071
     86  CD        24.8590   35.5680   12.7760 C.3    81  PRO81       0.1204
     87  N         26.8600   36.0430   15.8700 N.am   82  VAL82      -0.1975
     88  CA        27.5650   35.7910   17.1280 C.3    82  VAL82       0.1596
     89  C         28.3030   34.4680   16.9860 C.2    82  VAL82       0.2287
     90  O         27.8820   33.6040   16.2280 O.2    82  VAL82      -0.2864
     91  CB        26.5820   35.7430   18.3180 C.3    82  VAL82       0.0276
     92  CG1       25.6500   34.5600   18.2130 C.3    82  VAL82       0.0022
     93  CG2       27.3180   35.6770   19.6500 C.3    82  VAL82       0.0022
     94  N         28.9660   30.8300   17.6560 N.3    84  ILE84      -0.1245
     95  CA        28.0830   29.7500   18.0940 C.3    84  ILE84       0.1561
     96  C         28.8000   28.4120   18.1230 C.2    84  ILE84       0.2260
     97  O         29.5330   28.0550   17.1980 O.2    84  ILE84      -0.2867
     98  CB        26.7870   29.6380   17.2500 C.3    84  ILE84       0.0252
     99  CG1       27.0890   29.4130   15.7680 C.3    84  ILE84       0.0019
    100  CG2       25.9260   30.8750   17.4490 C.3    84  ILE84       0.0019
    101  CD1       25.8830   29.1100   14.9050 C.3    84  ILE84       0.0001
@<TRIPOS>BOND
     1    49    50    1
     2    52    51    2
     3    50    51    1
     4    50    53    1
     5    51    57   am
     6    57    58    1
     7    58    59    1
     8    55    53    1
     9    53    54    1
    10    59    61   am
    11    59    60    2
    12    54    56    1
    13    61    62    1
    14    64    63    2
    15    68    67    2
    16    67    66    1
    17    63    62    1
    18    63    65   am
    19    66    65    1
    20    66    69    1
    21    41    39   ar
    22    33    31   ar
    23    39    40   ar
    24    39    38    1
    25    69    70    1
    26    69    71    1
    27    73    74    1
    28    70    72    1
    29    47    46    1
    30    38    35    1
    31    31    30    1
    32    31    32   ar
    33    74    77    1
    34    74    75    1
    35    30    27    1
    36    48    46    1
    37    46    43    1
    38    77    79    1
    39    77    78    1
    40    75    76    2
    41    75    80   am
    42    86    80    1
    43    86    85    1
    44    35    34    1
    45    35    36    1
    46    34    28   am
    47    80    81    1
    48    43    44    1
    49    43    42    1
    50    27    28    1
    51    27    26    1
    52    28    29    2
    53    85    84    2
    54    26    23   am
    55    36    37    2
    56    81    84    1
    57    81    82    1
    58    44    45    2
    59    20    19    2
    60   101    99    1
    61    23    22    1
    62    23    24    2
    63    22    25    1
    64    22    21    1
    65    82    87   am
    66    82    83    2
    67    99    98    1
    68    87    88    1
    69    19    21   am
    70    19    18    1
    71    90    89    2
    72    89    88    1
    73    18    17    1
    74    88    91    1
    75    97    96    2
    76    98   100    1
    77    98    95    1
    78    16    14   ar
    79    94    95    1
    80    95    96    1
    81    92    91    1
    82    14    15   ar
    83    14    13    1
    84    91    93    1
    85    12    11    2
    86    13    10    1
    87    11    10    1
    88    10     9    1
    89     8     6    1
    90     4     3    2
    91     5     6    1
    92     5     2    1
    93     6     7    1
    94     1     2    1
    95     3     2    1
