@<TRIPOS>MOLECULE
tmp/3o9jA00.pdb
 183 172 0 0 0
SMALL
GASTEIGER

@<TRIPOS>ATOM
      1  N        -14.0060  -14.5290   -9.6580 N.3    36  ARG36      -0.1231
      2  CA       -15.3330  -14.9730   -9.4300 C.3    36  ARG36       0.1694
      3  C        -15.4890  -14.9070   -7.9300 C.2    36  ARG36       0.2591
      4  O        -14.4680  -14.7130   -7.2130 O.2    36  ARG36      -0.2718
      5  CB       -15.5980  -16.3920   -9.9350 C.3    36  ARG36       0.0321
      6  CG       -15.7370  -16.5730  -11.5070 C.3    36  ARG36       0.0489
      7  CD       -16.8660  -15.7090  -12.0620 C.3    36  ARG36       0.2205
      8  NE       -18.1060  -16.0480  -11.3350 N.pl3  36  ARG36      -0.0865
      9  CZ       -18.9590  -16.9970  -11.6880 C.cat  36  ARG36       0.5346
     10  NH1      -20.0360  -17.2230  -10.9390 N.pl3  36  ARG36       0.1354
     11  NH2      -18.7320  -17.7140  -12.7880 N.pl3  36  ARG36       0.1354
     12  N        -16.7720  -15.0430   -7.5310 N.am   37  GLU37      -0.1979
     13  CA       -17.2820  -15.0660   -6.1940 C.3    37  GLU37       0.1602
     14  C        -16.7050  -14.0200   -5.2790 C.2    37  GLU37       0.2287
     15  O        -15.8970  -14.3660   -4.4450 O.2    37  GLU37      -0.2864
     16  CB       -17.2110  -16.4830   -5.5750 C.3    37  GLU37       0.0415
     17  CG       -15.9650  -17.2590   -5.8300 C.3    37  GLU37       0.1163
     18  CD       -16.0570  -18.6320   -5.2410 C.2    37  GLU37       0.3649
     19  OE1      -15.6360  -18.8070   -4.0370 O.co2  37  GLU37      -0.2457
     20  OE2      -16.5610  -19.5150   -5.9990 O.co2  37  GLU37      -0.2457
     21  N        -11.8110  -15.4230   -6.0040 N.3    52  LEU52      -0.1245
     22  CA       -10.8280  -16.3170   -6.6020 C.3    52  LEU52       0.1561
     23  C        -10.3270  -15.6980   -7.8840 C.2    52  LEU52       0.2260
     24  O        -11.0350  -14.9270   -8.5510 O.2    52  LEU52      -0.2867
     25  CB       -11.4110  -17.7210   -6.7960 C.3    52  LEU52       0.0270
     26  CG       -12.1280  -18.4820   -5.6680 C.3    52  LEU52       0.0019
     27  CD1      -12.9970  -19.6660   -6.2270 C.3    52  LEU52       0.0001
     28  CD2      -11.0830  -19.0230   -4.6560 C.3    52  LEU52       0.0001
     29  N        -12.0350  -24.2820  -14.5580 N.3    69  ASP69      -0.1225
     30  CA       -12.4270  -23.6590  -13.2880 C.3    69  ASP69       0.1805
     31  C        -11.4500  -24.1260  -12.2380 C.2    69  ASP69       0.2597
     32  O        -10.7890  -23.3390  -11.5620 O.2    69  ASP69      -0.2718
     33  CB       -13.8110  -24.1520  -12.8350 C.3    69  ASP69       0.1424
     34  CG       -14.8250  -24.3060  -13.9970 C.2    69  ASP69       0.3668
     35  OD1      -15.4120  -23.2630  -14.4090 O.co2  69  ASP69      -0.2456
     36  OD2      -15.0670  -25.4750  -14.4460 O.co2  69  ASP69      -0.2456
     37  N        -11.3580  -25.4370  -12.1120 N.am   70  ARG70      -0.1979
     38  CA       -10.6010  -26.0350  -11.0640 C.3    70  ARG70       0.1597
     39  C         -9.1320  -26.3180  -11.5090 C.2    70  ARG70       0.2287
     40  O         -8.6970  -27.4670  -11.6510 O.2    70  ARG70      -0.2864
     41  CB       -11.3550  -27.2570  -10.5520 C.3    70  ARG70       0.0334
     42  CG       -12.6610  -26.9150   -9.8470 C.3    70  ARG70       0.0492
     43  CD       -13.2380  -28.1750   -9.1330 C.3    70  ARG70       0.2205
     44  NE       -13.3690  -29.2530  -10.1250 N.pl3  70  ARG70      -0.0865
     45  CZ       -14.4360  -29.3890  -10.9100 C.cat  70  ARG70       0.5346
     46  NH1      -14.4340  -30.3500  -11.8020 N.pl3  70  ARG70       0.1354
     47  NH2      -15.5050  -28.5630  -10.7940 N.pl3  70  ARG70       0.1354
     48  N         -5.5480  -21.3660   -9.4610 N.3    74  ARG74      -0.1245
     49  CA        -6.6140  -20.6690   -8.7850 C.3    74  ARG74       0.1563
     50  C         -6.1920  -20.4380   -7.3050 C.2    74  ARG74       0.2260
     51  O         -5.7450  -21.3390   -6.6530 O.2    74  ARG74      -0.2867
     52  CB        -7.8930  -21.5160   -8.8970 C.3    74  ARG74       0.0307
     53  CG        -9.1950  -20.6940   -8.9780 C.3    74  ARG74       0.0489
     54  CD        -9.6060  -20.4150  -10.4410 C.3    74  ARG74       0.2205
     55  NE       -10.6430  -19.3860  -10.4560 N.pl3  74  ARG74      -0.0865
     56  CZ       -11.9270  -19.6780  -10.4120 C.cat  74  ARG74       0.5346
     57  NH1      -12.8290  -18.7170  -10.3730 N.pl3  74  ARG74       0.1354
     58  NH2      -12.3010  -20.9610  -10.3950 N.pl3  74  ARG74       0.1354
     59  N         -9.8070  -23.3600   -5.3290 N.3    97  TRP97      -0.1227
     60  CA       -10.7890  -23.2140   -6.3760 C.3    97  TRP97       0.1737
     61  C        -12.1500  -23.3480   -5.6870 C.2    97  TRP97       0.2596
     62  O        -13.1600  -23.3320   -6.3070 O.2    97  TRP97      -0.2718
     63  CB       -10.5560  -24.1640   -7.5820 C.3    97  TRP97       0.0564
     64  CG       -10.1660  -25.6790   -7.2830 C.ar   97  TRP97       0.0003
     65  CD1       -8.9980  -26.3190   -7.6490 C.ar   97  TRP97       0.0946
     66  CD2      -10.9610  -26.6890   -6.6200 C.ar   97  TRP97       0.0152
     67  NE1       -9.0330  -27.6400   -7.2580 N.ar   97  TRP97      -0.2442
     68  CE2      -10.2140  -27.8940   -6.6290 C.ar   97  TRP97       0.0810
     69  CE3      -12.2130  -26.6910   -6.0180 C.ar   97  TRP97       0.0012
     70  CZ2      -10.6850  -29.0760   -6.0480 C.ar   97  TRP97       0.0191
     71  CZ3      -12.6720  -27.8600   -5.4430 C.ar   97  TRP97       0.0001
     72  CH2      -11.9050  -29.0350   -5.4540 C.ar   97  TRP97       0.0015
     73  N        -12.1380  -23.3980   -4.3610 N.am   98  SER98      -0.1952
     74  CA       -13.3060  -23.3480   -3.5470 C.3    98  SER98       0.1924
     75  C        -12.8570  -22.8250   -2.1160 C.2    98  SER98       0.2314
     76  O        -11.8790  -23.3270   -1.5860 O.2    98  SER98      -0.2863
     77  CB       -13.8960  -24.7560   -3.4350 C.3    98  SER98       0.2116
     78  OG       -15.2080  -24.6390   -2.9760 O.3    98  SER98      -0.2180
     79  N        -14.8210  -34.0320   -5.8470 N.3   141  ILE141     -0.1245
     80  CA       -14.7690  -32.5510   -5.7920 C.3   141  ILE141      0.1561
     81  C        -15.1500  -32.0380   -4.4230 C.2   141  ILE141      0.2260
     82  O        -16.1660  -31.3960   -4.2950 O.2   141  ILE141     -0.2867
     83  CB       -15.6590  -31.8660   -6.9100 C.3   141  ILE141      0.0252
     84  CG1      -15.3890  -32.4980   -8.3110 C.3   141  ILE141      0.0019
     85  CG2      -15.4900  -30.3430   -6.8950 C.3   141  ILE141      0.0019
     86  CD1      -16.2630  -32.0270   -9.3860 C.3   141  ILE141      0.0001
     87  N        -15.6860  -29.6320   -1.7370 N.3   143  ARG143     -0.1245
     88  CA       -15.9700  -28.1980   -1.9510 C.3   143  ARG143      0.1563
     89  C        -16.7530  -27.5450   -0.7960 C.2   143  ARG143      0.2260
     90  O        -17.2730  -28.2640    0.0770 O.2   143  ARG143     -0.2867
     91  CB       -16.7470  -28.0100   -3.2520 C.3   143  ARG143      0.0307
     92  CG       -17.9590  -28.9680   -3.3850 C.3   143  ARG143      0.0489
     93  CD       -18.5110  -28.9370   -4.7700 C.3   143  ARG143      0.2205
     94  NE       -19.7890  -29.6590   -4.8600 N.pl3 143  ARG143     -0.0865
     95  CZ       -19.8760  -30.9680   -5.0990 C.cat 143  ARG143      0.5346
     96  NH1      -21.0530  -31.5730   -5.1690 N.pl3 143  ARG143      0.1354
     97  NH2      -18.7750  -31.6770   -5.2440 N.pl3 143  ARG143      0.1354
     98  N        -18.1680  -20.8290   -0.6040 N.3   146  GLU146     -0.1245
     99  CA       -17.9320  -19.6480   -1.4380 C.3   146  GLU146      0.1567
    100  C        -18.5940  -18.4280   -0.8510 C.2   146  GLU146      0.2260
    101  O        -19.1320  -17.6060   -1.5700 O.2   146  GLU146     -0.2867
    102  CB       -18.3880  -19.8700   -2.8840 C.3   146  GLU146      0.0388
    103  CG       -18.2400  -21.3160   -3.4330 C.3   146  GLU146      0.1160
    104  CD       -16.8060  -21.8850   -3.4800 C.2   146  GLU146      0.3649
    105  OE1      -15.8050  -21.1780   -3.1720 O.co2 146  GLU146     -0.2457
    106  OE2      -16.6660  -23.0920   -3.8230 O.co2 146  GLU146     -0.2457
    107  N        -22.3030  -33.4370   -8.4670 N.3   165  ALA165     -0.1245
    108  CA       -23.0860  -32.1820   -8.7480 C.3   165  ALA165      0.1562
    109  C        -24.6120  -32.4400   -8.7410 C.2   165  ALA165      0.2260
    110  O        -25.4150  -31.5320   -8.5180 O.2   165  ALA165     -0.2867
    111  CB       -22.7110  -31.6930  -10.1360 C.3   165  ALA165      0.0290
    112  N        -25.0330  -27.5780   -1.1940 N.3   195  GLU195     -0.1231
    113  CA       -23.8610  -26.9880   -1.7750 C.3   195  GLU195      0.1699
    114  C        -23.8510  -25.5140   -1.4310 C.2   195  GLU195      0.2592
    115  O        -24.9220  -24.9020   -1.1910 O.2   195  GLU195     -0.2718
    116  CB       -23.9200  -27.0530   -3.2950 C.3   195  GLU195      0.0402
    117  CG       -23.6580  -28.4230   -3.8800 C.3   195  GLU195      0.1161
    118  CD       -23.5590  -28.4460   -5.3910 C.2   195  GLU195      0.3649
    119  OE1      -24.1610  -27.5590   -6.0690 O.co2 195  GLU195     -0.2457
    120  OE2      -22.8930  -29.3970   -5.9030 O.co2 195  GLU195     -0.2457
    121  N        -22.6470  -24.9240   -1.4370 N.am  196  GLU196     -0.1979
    122  CA       -22.4760  -23.4460   -1.4280 C.3   196  GLU196      0.1602
    123  C        -23.2800  -22.7440   -0.3410 C.2   196  GLU196      0.2287
    124  O        -23.9670  -21.7830   -0.5780 O.2   196  GLU196     -0.2864
    125  CB       -22.7630  -22.8380   -2.8330 C.3   196  GLU196      0.0415
    126  CG       -21.8910  -23.4900   -3.9000 C.3   196  GLU196      0.1163
    127  CD       -22.0890  -22.9810   -5.3370 C.2   196  GLU196      0.3649
    128  OE1      -23.2280  -22.5740   -5.7170 O.co2 196  GLU196     -0.2457
    129  OE2      -21.0840  -23.0160   -6.1190 O.co2 196  GLU196     -0.2457
    130  N        -27.7190  -24.3510   -1.5250 N.3   211  ARG211     -0.1245
    131  CA       -28.0920  -24.6240   -2.8810 C.3   211  ARG211      0.1563
    132  C        -28.3000  -26.1260   -3.0520 C.2   211  ARG211      0.2260
    133  O        -27.3910  -26.9030   -2.7880 O.2   211  ARG211     -0.2867
    134  CB       -26.9910  -24.0960   -3.7960 C.3   211  ARG211      0.0307
    135  CG       -27.1160  -24.4550   -5.3020 C.3   211  ARG211      0.0489
    136  CD       -25.7550  -24.1970   -5.9560 C.3   211  ARG211      0.2205
    137  NE       -25.7660  -24.6980   -7.3560 N.pl3 211  ARG211     -0.0865
    138  CZ       -24.9480  -24.3010   -8.3150 C.cat 211  ARG211      0.5346
    139  NH1      -25.0610  -24.8600   -9.5230 N.pl3 211  ARG211      0.1354
    140  NH2      -24.0960  -23.2790   -8.1290 N.pl3 211  ARG211      0.1354
    141  N        -28.5620  -28.7360   -5.8060 N.3   213  ASN213     -0.1296
    142  CA       -28.2640  -28.7950   -7.2390 C.3   213  ASN213      0.1339
    143  C        -28.8750  -29.9870   -8.0300 C.3   213  ASN213      0.2014
    144  O        -28.6290  -30.1460   -9.3080 O.3   213  ASN213     -0.2188
    145  CB       -26.7420  -28.7810   -7.4390 C.3   213  ASN213      0.1102
    146  CG       -26.3360  -28.1630   -8.7630 C.2   213  ASN213      0.2623
    147  OD1      -26.6680  -26.9980   -9.0590 O.2   213  ASN213     -0.2716
    148  ND2      -25.5700  -28.9120   -9.5520 N.am  213  ASN213     -0.0877
    149  N        -29.7340  -28.3190  -11.3980 N.3   264  TYR264     -0.1241
    150  CA       -28.8990  -27.1060  -11.4060 C.3   264  TYR264      0.1605
    151  C        -29.2320  -26.1230  -10.2680 C.2   264  TYR264      0.2264
    152  O        -29.8660  -26.4800   -9.3270 O.2   264  TYR264     -0.2867
    153  CB       -28.8660  -26.4510  -12.7980 C.3   264  TYR264      0.0534
    154  CG       -27.6510  -25.5560  -13.0680 C.ar  264  TYR264     -0.0201
    155  CD1      -26.3520  -26.0760  -13.0250 C.ar  264  TYR264     -0.0009
    156  CD2      -27.8030  -24.1960  -13.4010 C.ar  264  TYR264     -0.0009
    157  CE1      -25.2360  -25.2560  -13.2940 C.ar  264  TYR264      0.0417
    158  CE2      -26.6950  -23.3940  -13.6830 C.ar  264  TYR264      0.0417
    159  CZ       -25.4220  -23.9310  -13.6270 C.ar  264  TYR264      0.1957
    160  OH       -24.3110  -23.1560  -13.8750 O.3   264  TYR264     -0.2866
    161  N        -29.3020  -15.9300  -14.8420 N.3   288  ARG288     -0.1245
    162  CA       -28.7090  -15.3090  -13.6900 C.3   288  ARG288      0.1563
    163  C        -28.6420  -13.8570  -14.0280 C.2   288  ARG288      0.2260
    164  O        -27.5710  -13.2950  -14.2610 O.2   288  ARG288     -0.2867
    165  CB       -27.3120  -15.8690  -13.3770 C.3   288  ARG288      0.0307
    166  CG       -27.3190  -17.2920  -12.7790 C.3   288  ARG288      0.0489
    167  CD       -25.9800  -18.0050  -13.0250 C.3   288  ARG288      0.2205
    168  NE       -25.9300  -19.3340  -12.4110 N.pl3 288  ARG288     -0.0865
    169  CZ       -24.7940  -19.9670  -12.0880 C.cat 288  ARG288      0.5346
    170  NH1      -24.8670  -21.1870  -11.5570 N.pl3 288  ARG288      0.1354
    171  NH2      -23.5810  -19.3790  -12.3170 N.pl3 288  ARG288      0.1354
    172  N        -24.0130  -15.1280   -8.3890 N.3   322  TYR322     -0.1241
    173  CA       -23.9560  -15.7210   -7.0100 C.3   322  TYR322      0.1605
    174  C        -24.3450  -14.6730   -6.0170 C.2   322  TYR322      0.2264
    175  O        -24.1910  -13.4920   -6.3040 O.2   322  TYR322     -0.2867
    176  CB       -22.5060  -16.1710   -6.7380 C.3   322  TYR322      0.0534
    177  CG       -22.2360  -17.6080   -7.0580 C.ar  322  TYR322     -0.0201
    178  CD1      -22.8940  -18.2260   -8.1330 C.ar  322  TYR322     -0.0009
    179  CD2      -21.3310  -18.3510   -6.3060 C.ar  322  TYR322     -0.0009
    180  CE1      -22.6590  -19.5510   -8.4490 C.ar  322  TYR322      0.0417
    181  CE2      -21.0770  -19.6920   -6.6190 C.ar  322  TYR322      0.0417
    182  CZ       -21.7580  -20.2680   -7.7000 C.ar  322  TYR322      0.1957
    183  OH       -21.5750  -21.5790   -8.0180 O.3   322  TYR322     -0.2866
@<TRIPOS>BOND
     1   161   162    1
     2    29    30    1
     3    36    34   ar
     4    35    34   ar
     5   164   163    2
     6   163   162    1
     7    34    33    1
     8   160   159    1
     9   162   165    1
    10   158   159   ar
    11   158   156   ar
    12   159   157   ar
    13   156   154   ar
    14   165   166    1
    15   157   155   ar
    16    30    33    1
    17    30    31    1
    18   154   155   ar
    19   154   153    1
    20   167   166    1
    21   167   168    1
    22   153   150    1
    23    11     9    1
    24   168   169    2
    25   171   169    1
    26    31    37   am
    27    31    32    2
    28    37    38    1
    29   169   170    1
    30     7     6    1
    31     7     8    1
    32    46    45    1
    33     9     8    2
    34     9    10    1
    35    40    39    2
    36    39    38    1
    37     6     5    1
    38   150   149    1
    39   150   151    1
    40    38    41    1
    41    45    47    1
    42    45    44    2
    43    41    42    1
    44    55    54    1
    45    55    56    2
    46    54    53    1
    47    56    58    1
    48    56    57    1
    49   151   152    2
    50   111   108    1
    51    44    43    1
    52     5     2    1
    53    42    43    1
    54     1     2    1
    55   148   146   am
    56   139   138    1
    57    48    49    1
    58     2     3    1
    59    86    84    1
    60   144   143    1
    61   147   146    2
    62    53    52    1
    63    52    49    1
    64    49    50    1
    65   146   145    1
    66   108   109    1
    67   108   107    1
    68   109   110    2
    69    24    23    2
    70   180   178   ar
    71   180   182   ar
    72   172   173    1
    73   138   140    1
    74   138   137    2
    75    84    83    1
    76   178   177   ar
    77   143   142    1
    78   183   182    1
    79     3    12   am
    80     3     4    2
    81    23    22    1
    82   182   181   ar
    83    65    64   ar
    84    65    67   ar
    85    63    64    1
    86    63    60    1
    87    12    13    1
    88   145   142    1
    89   137   136    1
    90    50    51    2
    91    64    66   ar
    92    67    68   ar
    93   142   141    1
    94   177   176    1
    95   177   179   ar
    96   173   176    1
    97   173   174    1
    98    83    85    1
    99    83    80    1
   100    25    22    1
   101    25    26    1
   102    68    66   ar
   103    68    70   ar
   104    66    69   ar
   105   181   179   ar
   106    22    21    1
   107    60    61    1
   108    60    59    1
   109    62    61    2
   110   175   174    2
   111    27    26    1
   112    13    16    1
   113    13    14    1
   114   129   127   ar
   115   119   118   ar
   116    70    72   ar
   117    69    71   ar
   118    20    18   ar
   119   136   135    1
   120   120   118   ar
   121    79    80    1
   122    17    16    1
   123    17    18    1
   124    80    81    1
   125   128   127   ar
   126    61    73   am
   127    26    28    1
   128    72    71   ar
   129   118   117    1
   130   127   126    1
   131   135   134    1
   132    14    15    2
   133    97    95    1
   134    18    19   ar
   135    96    95    1
   136    95    94    2
   137    94    93    1
   138    93    92    1
   139    81    82    2
   140    73    74    1
   141   126   125    1
   142   117   116    1
   143   106   104   ar
   144   134   131    1
   145    74    77    1
   146    74    75    1
   147   104   103    1
   148   104   105   ar
   149    77    78    1
   150   103   102    1
   151    92    91    1
   152   116   113    1
   153    91    88    1
   154   132   131    1
   155   132   133    2
   156   102    99    1
   157   131   130    1
   158   125   122    1
   159    75    76    2
   160    88    87    1
   161    88    89    1
   162   113   114    1
   163   113   112    1
   164   101   100    2
   165    99   100    1
   166    99    98    1
   167   121   114   am
   168   121   122    1
   169   114   115    2
   170   122   123    1
   171    89    90    2
   172   124   123    2
