@<TRIPOS>MOLECULE
tmp/3o9lC00.pdb
 211 205 0 0 0
SMALL
GASTEIGER

@<TRIPOS>ATOM
      1  N          2.7880   -8.7480  -14.5460 N.3    18  THR18      -0.1203
      2  CA         2.2940   -9.8430  -13.7050 C.3    18  THR18       0.1994
      3  C          0.7800   -9.8890  -13.6580 C.2    18  THR18       0.2618
      4  O          0.2050  -10.8940  -13.2760 O.2    18  THR18      -0.2717
      5  CB         2.8490   -9.7860  -12.2390 C.3    18  THR18       0.1784
      6  OG1        2.5070   -8.5370  -11.6220 O.3    18  THR18      -0.2211
      7  CG2        4.3610   -9.9950  -12.1930 C.3    18  THR18       0.0376
      8  N          0.1280   -8.7980  -14.0380 N.am   19  GLN19      -0.1965
      9  CA        -1.3330   -8.7510  -14.0070 C.3    19  GLN19       0.1733
     10  C         -1.8660   -8.0680  -15.2660 C.2    19  GLN19       0.2616
     11  O         -1.4620   -6.9410  -15.5910 O.2    19  GLN19      -0.2715
     12  CB        -1.8560   -8.0810  -12.7070 C.3    19  GLN19       0.0408
     13  CG        -1.3900   -8.8220  -11.4250 C.3    19  GLN19       0.0908
     14  CD        -2.1220   -8.4670  -10.1290 C.2    19  GLN19       0.2608
     15  OE1       -3.2760   -8.0460  -10.1160 O.2    19  GLN19      -0.2717
     16  NE2       -1.4390   -8.6690   -9.0250 N.am   19  GLN19      -0.0878
     17  N         -2.7600   -8.7650  -15.9680 N.am   20  TYR20      -0.1974
     18  CA        -3.4090   -8.2500  -17.1750 C.3    20  TYR20       0.1639
     19  C         -4.9270   -8.4290  -17.0980 C.2    20  TYR20       0.2290
     20  O         -5.4180   -9.5550  -17.0710 O.2    20  TYR20      -0.2864
     21  CB        -2.9000   -8.9700  -18.4250 C.3    20  TYR20       0.0560
     22  CG        -1.4250   -8.8510  -18.7180 C.ar   20  TYR20      -0.0198
     23  CD1       -0.9540   -7.8970  -19.6300 C.ar   20  TYR20      -0.0009
     24  CD2       -0.5080   -9.7320  -18.1550 C.ar   20  TYR20      -0.0009
     25  CE1        0.3700   -7.8020  -19.9260 C.ar   20  TYR20       0.0417
     26  CE2        0.8150   -9.6330  -18.4330 C.ar   20  TYR20       0.0417
     27  CZ         1.2610   -8.6620  -19.3330 C.ar   20  TYR20       0.1957
     28  OH         2.6000   -8.5620  -19.6430 O.3    20  TYR20      -0.2866
     29  N         -9.7030  -10.5040  -15.0010 N.3    36  VAL36      -0.1245
     30  CA        -8.7780  -11.3320  -15.7530 C.3    36  VAL36       0.1561
     31  C         -9.5720  -12.3170  -16.6250 C.2    36  VAL36       0.2260
     32  O        -10.5700  -12.9010  -16.1860 O.2    36  VAL36      -0.2867
     33  CB        -7.8050  -12.0850  -14.7950 C.3    36  VAL36       0.0252
     34  CG1       -7.0950  -13.2400  -15.4960 C.3    36  VAL36       0.0019
     35  CG2       -6.7860  -11.1150  -14.1720 C.3    36  VAL36       0.0019
     36  N         -9.1970  -15.7790  -18.4760 N.3    38  ASP38      -0.1239
     37  CA        -8.4020  -16.9310  -18.0060 C.3    38  ASP38       0.1674
     38  C         -8.7090  -18.2130  -18.7860 C.2    38  ASP38       0.2266
     39  O         -9.7430  -18.8610  -18.5670 O.2    38  ASP38      -0.2867
     40  CB        -8.6870  -17.1450  -16.5180 C.3    38  ASP38       0.1410
     41  CG        -7.9670  -18.3750  -15.9240 C.2    38  ASP38       0.3668
     42  OD1       -6.8510  -18.7440  -16.3960 O.co2  38  ASP38      -0.2456
     43  OD2       -8.5140  -18.9480  -14.9540 O.co2  38  ASP38      -0.2456
     44  N         -7.5940  -20.9150  -18.2310 N.3    40  GLY40      -0.1210
     45  CA        -7.5190  -22.0390  -17.2870 C.3    40  GLY40       0.1956
     46  C         -8.7120  -22.2690  -16.3640 C.2    40  GLY40       0.2612
     47  O         -8.6640  -23.1370  -15.4930 O.2    40  GLY40      -0.2717
     48  N         -9.7800  -21.4970  -16.5320 N.am   41  SER41      -0.1952
     49  CA       -11.0130  -21.7330  -15.7660 C.3    41  SER41       0.1924
     50  C        -12.2380  -21.3840  -16.6000 C.2    41  SER41       0.2314
     51  O        -12.1270  -20.7080  -17.6170 O.2    41  SER41      -0.2863
     52  CB       -11.0090  -20.9780  -14.4150 C.3    41  SER41       0.2116
     53  OG       -10.9340  -19.5800  -14.5930 O.3    41  SER41      -0.2180
     54  N        -16.8080  -15.3510  -11.9320 N.3    45  TRP45      -0.1227
     55  CA       -16.9510  -14.9550  -10.5290 C.3    45  TRP45       0.1737
     56  C        -16.7940  -13.4440  -10.3650 C.2    45  TRP45       0.2595
     57  O        -15.9070  -12.8420  -10.9800 O.2    45  TRP45      -0.2718
     58  CB       -15.9110  -15.6390   -9.6150 C.3    45  TRP45       0.0564
     59  CG       -15.7910  -17.1420   -9.7230 C.ar   45  TRP45       0.0003
     60  CD1      -14.9600  -17.8330  -10.5510 C.ar   45  TRP45       0.0946
     61  CD2      -16.4800  -18.1320   -8.9390 C.ar   45  TRP45       0.0152
     62  NE1      -15.0950  -19.1870  -10.3490 N.ar   45  TRP45      -0.2442
     63  CE2      -16.0240  -19.3980   -9.3690 C.ar   45  TRP45       0.0810
     64  CE3      -17.4510  -18.0730   -7.9270 C.ar   45  TRP45       0.0012
     65  CZ2      -16.5020  -20.6000   -8.8240 C.ar   45  TRP45       0.0191
     66  CZ3      -17.9180  -19.2640   -7.3850 C.ar   45  TRP45       0.0001
     67  CH2      -17.4420  -20.5150   -7.8430 C.ar   45  TRP45       0.0015
     68  N        -17.6540  -12.8520   -9.5340 N.am   46  VAL46      -0.1966
     69  CA       -17.4360  -11.5070   -8.9670 C.3    46  VAL46       0.1712
     70  C        -17.8780  -11.4390   -7.5000 C.2    46  VAL46       0.2458
     71  O        -18.8000  -12.1650   -7.0980 O.2    46  VAL46      -0.2730
     72  CB       -18.1550  -10.3490   -9.7420 C.3    46  VAL46       0.0289
     73  CG1      -17.5310  -10.1220  -11.1160 C.3    46  VAL46       0.0023
     74  CG2      -19.6320  -10.5740   -9.8070 C.3    46  VAL46       0.0023
     75  N        -17.2480  -10.5520   -6.7020 N.am   47  PRO47      -0.2727
     76  CA       -17.6580  -10.3980   -5.2980 C.3    47  PRO47       0.1402
     77  C        -19.0920   -9.8250   -5.1540 C.2    47  PRO47       0.2269
     78  O        -19.5300   -9.0190   -5.9740 O.2    47  PRO47      -0.2865
     79  CB       -16.6070   -9.4290   -4.7220 C.3    47  PRO47       0.0296
     80  CG       -15.5190   -9.3200   -5.7900 C.3    47  PRO47       0.0237
     81  CD       -16.2140   -9.5710   -7.0740 C.3    47  PRO47       0.0939
     82  N        -10.6180   -9.3040    1.7290 N.3    57  ALA57      -0.1245
     83  CA       -10.6280   -9.2640    0.2730 C.3    57  ALA57       0.1562
     84  C        -11.9170   -8.6670   -0.3290 C.2    57  ALA57       0.2260
     85  O        -11.9110   -8.2160   -1.4770 O.2    57  ALA57      -0.2867
     86  CB       -10.3480  -10.6600   -0.2960 C.3    57  ALA57       0.0290
     87  N        -12.4410   -4.4820   -2.7790 N.3    61  HIS61      -0.1241
     88  CA       -12.8240   -4.6230   -4.1880 C.3    61  HIS61       0.1621
     89  C        -14.2550   -4.1470   -4.4310 C.2    61  HIS61       0.2264
     90  O        -14.9030   -3.6280   -3.5230 O.2    61  HIS61      -0.2867
     91  CB       -12.6270   -6.0630   -4.6840 C.3    61  HIS61       0.0745
     92  CG       -11.1920   -6.4550   -4.8300 C.ar   61  HIS61       0.0817
     93  ND1      -10.5880   -7.3800   -4.0090 N.ar   61  HIS61      -0.2268
     94  CD2      -10.2340   -6.0370   -5.6930 C.ar   61  HIS61       0.1154
     95  CE1       -9.3190   -7.5130   -4.3550 C.ar   61  HIS61       0.1986
     96  NE2       -9.0790   -6.7090   -5.3750 N.ar   61  HIS61      -0.2212
     97  N        -15.6670  -23.5850   -4.4190 N.3    81  LEU81      -0.1245
     98  CA       -14.3470  -23.7520   -5.0180 C.3    81  LEU81       0.1561
     99  C        -13.3330  -24.0590   -3.9220 C.2    81  LEU81       0.2260
    100  O        -13.0780  -23.2220   -3.0410 O.2    81  LEU81      -0.2867
    101  CB       -13.9380  -22.4950   -5.7950 C.3    81  LEU81       0.0270
    102  CG       -13.1680  -22.5920   -7.1210 C.3    81  LEU81       0.0019
    103  CD1      -12.5470  -21.2430   -7.4750 C.3    81  LEU81       0.0001
    104  CD2      -12.1010  -23.7020   -7.1540 C.3    81  LEU81       0.0001
    105  N        -10.0010  -24.0570   -3.0060 N.3    83  TYR83      -0.1241
    106  CA        -8.7760  -23.4300   -3.5290 C.3    83  TYR83       0.1605
    107  C         -7.5670  -23.6370   -2.6070 C.2    83  TYR83       0.2264
    108  O         -7.7320  -23.8830   -1.4130 O.2    83  TYR83      -0.2867
    109  CB        -9.0230  -21.9350   -3.8010 C.3    83  TYR83       0.0534
    110  CG        -7.7960  -21.1580   -4.2440 C.ar   83  TYR83      -0.0201
    111  CD1       -7.1280  -20.3140   -3.3560 C.ar   83  TYR83      -0.0009
    112  CD2       -7.3000  -21.2690   -5.5440 C.ar   83  TYR83      -0.0009
    113  CE1       -6.0030  -19.6030   -3.7470 C.ar   83  TYR83       0.0417
    114  CE2       -6.1660  -20.5600   -5.9430 C.ar   83  TYR83       0.0417
    115  CZ        -5.5280  -19.7250   -5.0330 C.ar   83  TYR83       0.1957
    116  OH        -4.4160  -19.0070   -5.4080 O.3    83  TYR83      -0.2866
    117  N        -13.3360  -20.9820   -1.3870 N.3    88  VAL88      -0.1245
    118  CA       -14.0950  -19.9770   -2.1220 C.3    88  VAL88       0.1561
    119  C        -15.5260  -20.4740   -2.2200 C.2    88  VAL88       0.2260
    120  O        -15.7720  -21.6500   -2.4730 O.2    88  VAL88      -0.2867
    121  CB       -13.4690  -19.6240   -3.5070 C.3    88  VAL88       0.0252
    122  CG1      -14.3220  -18.5890   -4.2310 C.3    88  VAL88       0.0019
    123  CG2      -12.0520  -19.0600   -3.3180 C.3    88  VAL88       0.0019
    124  N        -19.6200  -14.1450   -5.1870 N.3   111  VAL111     -0.1245
    125  CA       -18.7690  -14.6730   -4.1220 C.3   111  VAL111      0.1561
    126  C        -19.0370  -13.9740   -2.7890 C.2   111  VAL111      0.2260
    127  O        -19.0880  -12.7430   -2.7310 O.2   111  VAL111     -0.2867
    128  CB       -17.2690  -14.5730   -4.5120 C.3   111  VAL111      0.0252
    129  CG1      -16.3640  -15.0950   -3.3950 C.3   111  VAL111      0.0019
    130  CG2      -17.0160  -15.3500   -5.7650 C.3   111  VAL111      0.0019
    131  N        -14.1760  -15.7130    0.8330 N.3   114  MET114     -0.1245
    132  CA       -12.8880  -16.0070    0.2040 C.3   114  MET114      0.1570
    133  C        -11.7080  -15.6930    1.1350 C.2   114  MET114      0.2261
    134  O        -11.7970  -14.7770    1.9480 O.2   114  MET114     -0.2867
    135  CB       -12.7520  -15.2880   -1.1500 C.3   114  MET114      0.0387
    136  CG       -12.5110  -13.7780   -1.0830 C.3   114  MET114      0.0595
    137  SD       -12.7150  -12.9370   -2.6880 S.3   114  MET114     -0.1393
    138  CE       -12.4180  -14.2810   -3.8390 C.3   114  MET114      0.0692
    139  N         -4.4290  -15.1830   -1.9270 N.3   118  PRO118     -0.2102
    140  CA        -3.7750  -14.0780   -2.6430 C.3   118  PRO118      0.1504
    141  C         -4.7400  -12.9620   -3.0390 C.2   118  PRO118      0.2575
    142  O         -4.3050  -11.9130   -3.5330 O.2   118  PRO118     -0.2718
    143  CB        -3.2460  -14.7670   -3.8950 C.3   118  PRO118      0.0282
    144  CG        -4.2980  -15.7970   -4.2020 C.3   118  PRO118      0.0208
    145  CD        -4.7890  -16.2840   -2.8490 C.3   118  PRO118      0.0893
    146  N         -6.0270  -13.1970   -2.7810 N.am  119  PHE119     -0.1977
    147  CA        -7.1170  -12.4570   -3.3980 C.3   119  PHE119      0.1639
    148  C         -7.2300  -10.9850   -3.0460 C.2   119  PHE119      0.2290
    149  O         -7.8570  -10.2280   -3.7910 O.2   119  PHE119     -0.2864
    150  CB        -8.4390  -13.1480   -3.1020 C.3   119  PHE119      0.0560
    151  CG        -8.5150  -14.5340   -3.6390 C.ar  119  PHE119     -0.0200
    152  CD1       -8.5440  -14.7540   -5.0110 C.ar  119  PHE119     -0.0042
    153  CD2       -8.5460  -15.6310   -2.7730 C.ar  119  PHE119     -0.0042
    154  CE1       -8.6020  -16.0510   -5.5270 C.ar  119  PHE119     -0.0003
    155  CE2       -8.6050  -16.9390   -3.2760 C.ar  119  PHE119     -0.0003
    156  CZ        -8.6390  -17.1510   -4.6500 C.ar  119  PHE119     -0.0000
    157  N         -4.6960   -8.9190   -2.8030 N.3   121  LEU121     -0.1231
    158  CA        -3.5760   -8.2130   -3.4190 C.3   121  LEU121      0.1693
    159  C         -3.6600   -8.1540   -4.9520 C.2   121  LEU121      0.2591
    160  O         -2.7240   -7.7120   -5.6210 O.2   121  LEU121     -0.2718
    161  CB        -2.2550   -8.8850   -3.0270 C.3   121  LEU121      0.0284
    162  CG        -1.7390   -8.8880   -1.5920 C.3   121  LEU121      0.0019
    163  CD1       -0.3760   -9.5910   -1.5820 C.3   121  LEU121      0.0001
    164  CD2       -1.6520   -7.4620   -1.0020 C.3   121  LEU121      0.0001
    165  N         -4.7670   -8.6280   -5.5050 N.am  122  ALA122     -0.1980
    166  CA        -4.9710   -8.5760   -6.9330 C.3   122  ALA122      0.1597
    167  C         -5.5690   -7.2150   -7.2690 C.2   122  ALA122      0.2287
    168  O         -6.4350   -6.7390   -6.5420 O.2   122  ALA122     -0.2864
    169  CB        -5.8820   -9.7160   -7.3670 C.3   122  ALA122      0.0319
    170  N         -7.4370   -6.6180   -9.8210 N.3   124  PHE124     -0.1227
    171  CA        -8.7300   -6.8260  -10.4650 C.3   124  PHE124      0.1736
    172  C         -9.7890   -7.2530   -9.4470 C.2   124  PHE124      0.2595
    173  O         -9.4560   -7.6550   -8.3330 O.2   124  PHE124     -0.2718
    174  CB        -8.6150   -7.8880  -11.5570 C.3   124  PHE124      0.0547
    175  CG        -7.9240   -9.1170  -11.1040 C.ar  124  PHE124     -0.0202
    176  CD1       -6.5490   -9.2160  -11.1870 C.ar  124  PHE124     -0.0042
    177  CD2       -8.6440  -10.1640  -10.5430 C.ar  124  PHE124     -0.0042
    178  CE1       -5.9020  -10.3630  -10.7440 C.ar  124  PHE124     -0.0003
    179  CE2       -8.0070  -11.3020  -10.1060 C.ar  124  PHE124     -0.0003
    180  CZ        -6.6350  -11.4080  -10.2080 C.ar  124  PHE124     -0.0000
    181  N        -11.0470   -7.1780   -9.8720 N.am  125  ASP125     -0.1960
    182  CA       -12.2280   -7.5050   -9.0830 C.3   125  ASP125      0.1840
    183  C        -12.7410   -8.9490   -9.2930 C.2   125  ASP125      0.2623
    184  O        -13.1930   -9.5620   -8.3390 O.2   125  ASP125     -0.2715
    185  CB       -13.3510   -6.5120   -9.4310 C.3   125  ASP125      0.1450
    186  CG       -12.9880   -5.0580   -9.1000 C.2   125  ASP125      0.3671
    187  OD1      -12.5900   -4.8050   -7.9430 O.co2 125  ASP125     -0.2456
    188  OD2      -13.1020   -4.1690   -9.9920 O.co2 125  ASP125     -0.2456
    189  N        -12.6820   -9.4770  -10.5280 N.am  126  GLY126     -0.1940
    190  CA       -13.1800  -10.8240  -10.8500 C.3   126  GLY126      0.2014
    191  C        -12.4550  -11.6200  -11.9380 C.2   126  GLY126      0.2638
    192  O        -11.3570  -11.2860  -12.3620 O.2   126  GLY126     -0.2714
    193  N        -13.0810  -12.6980  -12.3820 N.am  127  VAL127     -0.1977
    194  CA       -12.5090  -13.5490  -13.4170 C.3   127  VAL127      0.1596
    195  C        -13.5830  -13.9510  -14.4340 C.2   127  VAL127      0.2287
    196  O        -14.6990  -14.2910  -14.0600 O.2   127  VAL127     -0.2864
    197  CB       -11.7580  -14.7760  -12.7960 C.3   127  VAL127      0.0276
    198  CG1      -12.6740  -15.5840  -11.9340 C.3   127  VAL127      0.0022
    199  CG2      -11.1170  -15.6670  -13.8620 C.3   127  VAL127      0.0022
    200  N         -0.3930   -9.6080  -25.0590 N.3   162  TYR162     -0.1241
    201  CA         0.1320   -9.0480  -23.8120 C.3   162  TYR162      0.1605
    202  C          1.3980   -8.2640  -24.1230 C.2   162  TYR162      0.2264
    203  O          2.3570   -8.8180  -24.6570 O.2   162  TYR162     -0.2867
    204  CB         0.4710  -10.1780  -22.8260 C.3   162  TYR162      0.0534
    205  CG        -0.7000  -10.8160  -22.0850 C.ar  162  TYR162     -0.0201
    206  CD1       -2.0230  -10.4560  -22.3360 C.ar  162  TYR162     -0.0009
    207  CD2       -0.4760  -11.8290  -21.1600 C.ar  162  TYR162     -0.0009
    208  CE1       -3.0750  -11.0810  -21.6570 C.ar  162  TYR162      0.0417
    209  CE2       -1.5290  -12.4350  -20.4700 C.ar  162  TYR162      0.0417
    210  CZ        -2.7980  -12.0680  -20.7300 C.ar  162  TYR162      0.1957
    211  OH        -3.8110  -12.6800  -20.0400 O.3   162  TYR162     -0.2866
@<TRIPOS>BOND
     1   200   201    1
     2   203   202    2
     3   202   201    1
     4   201   204    1
     5   204   205    1
     6   206   205   ar
     7   206   208   ar
     8   205   207   ar
     9   208   210   ar
    10   207   209   ar
    11   210   209   ar
    12   210   211    1
    13    25    23   ar
    14    25    27   ar
    15    28    27    1
    16    23    22   ar
    17    27    26   ar
    18    38    39    2
    19    38    37    1
    20    22    21    1
    21    22    24   ar
    22    36    37    1
    23    26    24   ar
    24    21    18    1
    25    44    45    1
    26    37    40    1
    27    51    50    2
    28    45    46    1
    29    18    19    1
    30    18    17    1
    31    19    20    2
    32    31    32    2
    33    31    30    1
    34    50    49    1
    35    48    46   am
    36    48    49    1
    37    40    41    1
    38    42    41   ar
    39    46    47    2
    40    17    10   am
    41    41    43   ar
    42    49    52    1
    43    30    29    1
    44    30    33    1
    45    11    10    2
    46    34    33    1
    47    10     9    1
    48    33    35    1
    49    53    52    1
    50     1     2    1
    51   195   196    2
    52   195   194    1
    53     8     9    1
    54     8     3   am
    55     9    12    1
    56   199   197    1
    57     2     3    1
    58     2     5    1
    59     3     4    2
    60   194   197    1
    61   194   193    1
    62   197   198    1
    63    12    13    1
    64   193   191   am
    65   192   191    2
    66     5     7    1
    67     5     6    1
    68   191   190    1
    69    54    55    1
    70   174   175    1
    71   174   171    1
    72    13    14    1
    73   176   175   ar
    74   176   178   ar
    75    73    72    1
    76   175   177   ar
    77    57    56    2
    78   190   189    1
    79   178   180   ar
    80    60    62   ar
    81    60    59   ar
    82   177   179   ar
    83    55    56    1
    84    55    58    1
    85   189   183   am
    86   171   170    1
    87   171   172    1
    88    56    68   am
    89    62    63   ar
    90   180   179   ar
    91    14    15    2
    92    14    16   am
    93   188   186   ar
    94   181   172   am
    95   181   182    1
    96    74    72    1
    97    72    69    1
    98    59    58    1
    99    59    61   ar
   100    68    69    1
   101   172   173    2
   102   185   186    1
   103   185   182    1
   104    63    61   ar
   105    63    65   ar
   106   183   182    1
   107   183   184    2
   108   186   187   ar
   109    69    70    1
   110    61    64   ar
   111    65    67   ar
   112    64    66   ar
   113    67    66   ar
   114    70    71    2
   115    70    75   am
   116   103   102    1
   117   169   166    1
   118   167   166    1
   119   167   168    2
   120   104   102    1
   121   102   101    1
   122    81    75    1
   123    81    80    1
   124   166   165    1
   125    75    76    1
   126    78    77    2
   127   114   112   ar
   128   114   115   ar
   129   101    98    1
   130    80    79    1
   131   130   128    1
   132    94    96   ar
   133    94    92   ar
   134   160   159    2
   135   112   110   ar
   136   154   152   ar
   137   154   156   ar
   138   165   159   am
   139   116   115    1
   140    96    95   ar
   141    76    77    1
   142    76    79    1
   143   124   125    1
   144   115   113   ar
   145    98    97    1
   146    98    99    1
   147   152   151   ar
   148   159   158    1
   149    92    91    1
   150    92    93   ar
   151    91    88    1
   152   156   155   ar
   153   128   125    1
   154   128   129    1
   155    89    88    1
   156    89    90    2
   157    95    93   ar
   158   110   109    1
   159   110   111   ar
   160   122   121    1
   161   144   143    1
   162   144   145    1
   163    88    87    1
   164   125   126    1
   165    99   100    2
   166   143   140    1
   167   138   137    1
   168   109   106    1
   169   149   148    2
   170   113   111   ar
   171   151   150    1
   172   151   153   ar
   173   142   141    2
   174   106   105    1
   175   106   107    1
   176   121   123    1
   177   121   118    1
   178   158   161    1
   179   158   157    1
   180   147   150    1
   181   147   148    1
   182   147   146    1
   183   155   153   ar
   184   141   146   am
   185   141   140    1
   186   161   162    1
   187   145   139    1
   188   126   127    2
   189   137   136    1
   190   140   139    1
   191   107   108    2
   192   120   119    2
   193   119   118    1
   194   118   117    1
   195   162   163    1
   196   162   164    1
   197    85    84    2
   198   135   136    1
   199   135   132    1
   200    84    83    1
   201    86    83    1
   202   132   131    1
   203   132   133    1
   204    83    82    1
   205   133   134    2
