@<TRIPOS>MOLECULE
tmp/3o9mA00.pdb
 97 96 0 0 0
SMALL
GASTEIGER

@<TRIPOS>ATOM
      1  N         36.8820   14.1580    6.3620 N.3   113  GLY113     -0.1210
      2  CA        35.4810   14.1110    5.9530 C.3   113  GLY113      0.1956
      3  C         34.8350   12.7180    6.0640 C.2   113  GLY113      0.2612
      4  O         33.8370   12.3990    5.3070 O.2   113  GLY113     -0.2717
      5  N         35.3380   11.8900    7.0030 N.am  114  GLY114     -0.1956
      6  CA        34.7740   10.5370    7.1470 C.3   114  GLY114      0.1869
      7  C         34.6870    9.6590    5.8910 C.2   114  GLY114      0.2309
      8  O         33.9280    8.7080    5.8620 O.2   114  GLY114     -0.2863
      9  N         43.8930   15.2760    7.8820 N.3   194  GLU194     -0.1231
     10  CA        43.0630   15.3510    9.0770 C.3   194  GLU194      0.1699
     11  C         41.8920   14.3920    9.0590 C.2   194  GLU194      0.2592
     12  O         41.4880   13.9040    8.0280 O.2   194  GLU194     -0.2718
     13  CB        42.6010   16.7670    9.3200 C.3   194  GLU194      0.0402
     14  CG        42.0010   17.0010   10.6670 C.3   194  GLU194      0.1161
     15  CD        40.4840   17.0710   10.6490 C.2   194  GLU194      0.3649
     16  OE1       39.8930   16.8000    9.5640 O.co2 194  GLU194     -0.2457
     17  OE2       39.9180   17.3970   11.7440 O.co2 194  GLU194     -0.2457
     18  N         41.3700   14.1010   10.2380 N.am  195  SER195     -0.1952
     19  CA        40.3040   13.1220   10.3980 C.3   195  SER195      0.1924
     20  C         40.4750   11.8900    9.4950 C.2   195  SER195      0.2314
     21  O         41.2820   11.0380    9.8030 O.2   195  SER195     -0.2863
     22  CB        38.9350   13.7850   10.2800 C.3   195  SER195      0.2116
     23  OG        37.8980   12.9270   10.7650 O.3   195  SER195     -0.2180
     24  N         35.8460    4.0640   13.7470 N.3   228  TRP228     -0.1241
     25  CA        35.1930    4.4000   12.4880 C.3   228  TRP228      0.1605
     26  C         35.9560    4.0740   11.1970 C.2   228  TRP228      0.2264
     27  O         35.3490    4.1430   10.1300 O.2   228  TRP228     -0.2867
     28  CB        34.7180    5.8680   12.4980 C.3   228  TRP228      0.0550
     29  CG        35.7700    6.7980   12.9420 C.ar  228  TRP228      0.0003
     30  CD1       36.0020    7.2280   14.2150 C.ar  228  TRP228      0.0946
     31  CD2       36.7830    7.3920   12.1200 C.ar  228  TRP228      0.0152
     32  NE1       37.1120    8.0580   14.2420 N.ar  228  TRP228     -0.2442
     33  CE2       37.6040    8.1740   12.9660 C.ar  228  TRP228      0.0810
     34  CE3       37.0820    7.3320   10.7490 C.ar  228  TRP228      0.0012
     35  CZ2       38.6830    8.9160   12.4770 C.ar  228  TRP228      0.0191
     36  CZ3       38.1600    8.0440   10.2700 C.ar  228  TRP228      0.0001
     37  CH2       38.9490    8.8330   11.1270 C.ar  228  TRP228      0.0015
     38  N         25.9960    9.2270   13.8020 N.3   282  PRO282     -0.2102
     39  CA        26.5790   10.4000   13.2030 C.3   282  PRO282      0.1504
     40  C         28.0130   10.2130   12.7700 C.2   282  PRO282      0.2576
     41  O         28.5150   11.0380   12.0290 O.2   282  PRO282     -0.2718
     42  CB        26.5300   11.4220   14.3240 C.3   282  PRO282      0.0282
     43  CG        25.4780   10.9980   15.1630 C.3   282  PRO282      0.0208
     44  CD        25.4330    9.5360   15.1200 C.3   282  PRO282      0.0893
     45  N         28.6680    9.1480   13.2320 N.am  283  LEU283     -0.1966
     46  CA        30.0540    8.8290   12.8780 C.3   283  LEU283      0.1728
     47  C         30.0920    7.6740   11.8760 C.2   283  LEU283      0.2617
     48  O         31.0710    6.9350   11.7820 O.2   283  LEU283     -0.2715
     49  CB        30.8240    8.3940   14.1240 C.3   283  LEU283      0.0311
     50  CG        31.4930    9.2960   15.1650 C.3   283  LEU283      0.0022
     51  CD1       32.5120   10.1610   14.5000 C.3   283  LEU283      0.0001
     52  CD2       30.4780   10.1370   15.9340 C.3   283  LEU283      0.0001
     53  N         29.0170    7.5160   11.1250 N.am  284  SER284     -0.1936
     54  CA        28.9100    6.4050   10.2070 C.3   284  SER284      0.2055
     55  C         29.8410    6.5950    9.0560 C.2   284  SER284      0.2642
     56  O         29.8270    7.6500    8.4410 O.2   284  SER284     -0.2714
     57  CB        27.4850    6.2890    9.6710 C.3   284  SER284      0.2130
     58  OG        26.7230    5.4430   10.4880 O.3   284  SER284     -0.2179
     59  N         30.6320    5.5690    8.7690 N.am  285  VAL285     -0.1977
     60  CA        31.4520    5.5310    7.5820 C.3   285  VAL285      0.1596
     61  C         30.8960    4.4290    6.7250 C.2   285  VAL285      0.2287
     62  O         31.2790    3.2820    6.8410 O.2   285  VAL285     -0.2864
     63  CB        32.9170    5.3130    7.9230 C.3   285  VAL285      0.0276
     64  CG1       33.7610    5.2060    6.6830 C.3   285  VAL285      0.0022
     65  CG2       33.3750    6.4490    8.7840 C.3   285  VAL285      0.0022
     66  N         29.8070   16.3260   16.5050 N.3   326  PHE326     -0.1241
     67  CA        28.8240   15.2920   16.1570 C.3   326  PHE326      0.1605
     68  C         27.4860   15.3040   16.9230 C.2   326  PHE326      0.2264
     69  O         26.5070   14.7880   16.4330 O.2   326  PHE326     -0.2867
     70  CB        29.5220   13.9480   16.2730 C.3   326  PHE326      0.0534
     71  CG        30.7750   13.9060   15.5020 C.ar  326  PHE326     -0.0203
     72  CD1       30.7560   13.5600   14.1480 C.ar  326  PHE326     -0.0042
     73  CD2       31.9940   14.2920   16.0960 C.ar  326  PHE326     -0.0042
     74  CE1       31.9000   13.5430   13.4050 C.ar  326  PHE326     -0.0003
     75  CE2       33.2050   14.2810   15.3280 C.ar  326  PHE326     -0.0003
     76  CZ        33.1390   13.9040   13.9830 C.ar  326  PHE326     -0.0000
     77  N         38.4150    9.4340   18.6850 N.3   395  PHE395     -0.1241
     78  CA        39.5320   10.1760   18.1890 C.3   395  PHE395      0.1605
     79  C         40.7730   10.1510   19.0910 C.2   395  PHE395      0.2264
     80  O         41.8630    9.7140   18.6620 O.2   395  PHE395     -0.2867
     81  CB        39.0960   11.5950   17.8560 C.3   395  PHE395      0.0534
     82  CG        38.0800   11.6540   16.7890 C.ar  395  PHE395     -0.0203
     83  CD1       38.4210   11.3450   15.4700 C.ar  395  PHE395     -0.0042
     84  CD2       36.7640   11.9680   17.0930 C.ar  395  PHE395     -0.0042
     85  CE1       37.4690   11.3950   14.4660 C.ar  395  PHE395     -0.0003
     86  CE2       35.8230   12.0150   16.1090 C.ar  395  PHE395     -0.0003
     87  CZ        36.1720   11.7310   14.7860 C.ar  395  PHE395     -0.0000
     88  N         36.4950   19.3920   16.5890 N.3   435  HIS435     -0.1241
     89  CA        37.0630   18.6080   15.5170 C.3   435  HIS435      0.1621
     90  C         37.0890   19.4420   14.2440 C.2   435  HIS435      0.2264
     91  O         36.0600   19.9120   13.7870 O.2   435  HIS435     -0.2867
     92  CB        36.2050   17.3790   15.3290 C.3   435  HIS435      0.0745
     93  CG        36.6670   16.4880   14.2360 C.ar  435  HIS435      0.0817
     94  ND1       37.6640   15.5550   14.4090 N.ar  435  HIS435     -0.2268
     95  CD2       36.2480   16.3630   12.9600 C.ar  435  HIS435      0.1154
     96  CE1       37.8430   14.8930   13.2830 C.ar  435  HIS435      0.1986
     97  NE2       37.0000   15.3750   12.3820 N.ar  435  HIS435     -0.2212
@<TRIPOS>BOND
     1     4     3    2
     2     8     7    2
     3     7     6    1
     4     2     3    1
     5     2     1    1
     6     3     5   am
     7    64    63    1
     8    61    62    2
     9    61    60    1
    10     5     6    1
    11    60    63    1
    12    60    59    1
    13     9    10    1
    14    63    65    1
    15    12    11    2
    16    56    55    2
    17    59    55   am
    18    55    54    1
    19    11    10    1
    20    11    18   am
    21    10    13    1
    22    13    14    1
    23    20    21    2
    24    20    19    1
    25    16    15   ar
    26    57    54    1
    27    57    58    1
    28    27    26    2
    29    54    53    1
    30    18    19    1
    31    36    34   ar
    32    36    37   ar
    33    22    19    1
    34    22    23    1
    35    15    14    1
    36    15    17   ar
    37    34    31   ar
    38    53    47   am
    39    37    35   ar
    40    26    25    1
    41    48    47    2
    42    47    46    1
    43    41    40    2
    44    31    29   ar
    45    31    33   ar
    46    97    95   ar
    47    97    96   ar
    48    35    33   ar
    49    25    28    1
    50    25    24    1
    51    28    29    1
    52    40    39    1
    53    40    45   am
    54    46    45    1
    55    46    49    1
    56    29    30   ar
    57    95    93   ar
    58    33    32   ar
    59    39    38    1
    60    39    42    1
    61    96    94   ar
    62    74    76   ar
    63    74    72   ar
    64    91    90    2
    65    38    44    1
    66    76    75   ar
    67    49    50    1
    68    72    71   ar
    69    30    32   ar
    70    93    94   ar
    71    93    92    1
    72    90    89    1
    73    42    43    1
    74    85    87   ar
    75    85    83   ar
    76    51    50    1
    77    87    86   ar
    78    44    43    1
    79    50    52    1
    80    75    73   ar
    81    92    89    1
    82    83    82   ar
    83    71    73   ar
    84    71    70    1
    85    89    88    1
    86    86    84   ar
    87    67    70    1
    88    67    66    1
    89    67    68    1
    90    69    68    2
    91    82    84   ar
    92    82    81    1
    93    81    78    1
    94    78    77    1
    95    78    79    1
    96    80    79    2
