@<TRIPOS>MOLECULE
tmp/3o9vA00.pdb
 181 179 0 0 0
SMALL
GASTEIGER

@<TRIPOS>ATOM
      1  N         41.4800   30.3800   25.4090 N.3    86  ARG86      -0.1231
      2  CA        42.4720   29.7800   24.5310 C.3    86  ARG86       0.1694
      3  C         43.6770   29.2810   25.3050 C.2    86  ARG86       0.2592
      4  O         44.2000   28.1980   25.0160 O.2    86  ARG86      -0.2718
      5  CB        42.9270   30.7630   23.4450 C.3    86  ARG86       0.0321
      6  CG        43.8800   30.1250   22.4080 C.3    86  ARG86       0.0489
      7  CD        44.4900   31.1770   21.5400 C.3    86  ARG86       0.2205
      8  NE        43.4650   31.8590   20.7580 N.pl3  86  ARG86      -0.0865
      9  CZ        42.9980   31.4400   19.5770 C.cat  86  ARG86       0.5346
     10  NH1       43.4440   30.3260   19.0000 N.pl3  86  ARG86       0.1354
     11  NH2       42.0720   32.1570   18.9530 N.pl3  86  ARG86       0.1354
     12  N         44.1040   30.0970   26.2730 N.am   87  HIS87      -0.1976
     13  CA        45.2720   29.8250   27.1110 C.3    87  HIS87       0.1656
     14  C         44.8950   29.5640   28.5690 C.2    87  HIS87       0.2291
     15  O         45.5150   28.7270   29.2400 O.2    87  HIS87      -0.2864
     16  CB        46.2360   31.0160   27.0320 C.3    87  HIS87       0.0771
     17  CG        46.5230   31.4580   25.6310 C.ar   87  HIS87       0.0820
     18  ND1       47.3430   30.7470   24.7840 N.ar   87  HIS87      -0.2267
     19  CD2       46.0850   32.5270   24.9240 C.ar   87  HIS87       0.1154
     20  CE1       47.4060   31.3610   23.6160 C.ar   87  HIS87       0.1986
     21  NE2       46.6570   32.4470   23.6760 N.ar   87  HIS87      -0.2212
     22  N         43.4040   36.8910   24.8540 N.3   166  GLU166     -0.1231
     23  CA        43.2500   36.4070   23.4920 C.3   166  GLU166      0.1699
     24  C         44.0730   37.2540   22.5510 C.2   166  GLU166      0.2592
     25  O         44.7490   36.7100   21.7030 O.2   166  GLU166     -0.2718
     26  CB        41.7540   36.3940   23.0920 C.3   166  GLU166      0.0402
     27  CG        41.4250   36.2850   21.5680 C.3   166  GLU166      0.1161
     28  CD        41.7110   34.9150   20.9590 C.2   166  GLU166      0.3649
     29  OE1       41.6630   34.8230   19.7100 O.co2 166  GLU166     -0.2457
     30  OE2       41.9950   33.9440   21.7160 O.co2 166  GLU166     -0.2457
     31  N         44.0420   38.5760   22.7300 N.am  167  GLU167     -0.1979
     32  CA        44.5640   39.5220   21.7320 C.3   167  GLU167      0.1602
     33  C         45.8790   40.2340   22.0470 C.2   167  GLU167      0.2287
     34  O         46.5850   40.6080   21.1250 O.2   167  GLU167     -0.2864
     35  CB        43.5180   40.5990   21.4580 C.3   167  GLU167      0.0415
     36  CG        42.1760   40.0740   21.0330 C.3   167  GLU167      0.1163
     37  CD        42.2000   39.4290   19.6670 C.2   167  GLU167      0.3649
     38  OE1       43.2400   39.4960   18.9700 O.co2 167  GLU167     -0.2457
     39  OE2       41.1620   38.8500   19.2850 O.co2 167  GLU167     -0.2457
     40  N         48.5110   36.6940   24.5780 N.3   170  SER170     -0.1217
     41  CA        48.4700   35.3030   24.1520 C.3   170  SER170      0.1889
     42  C         48.8370   34.3820   25.3110 C.2   170  SER170      0.2288
     43  O         49.5920   33.4090   25.1430 O.2   170  SER170     -0.2866
     44  CB        49.4000   35.0820   22.9680 C.3   170  SER170      0.2089
     45  OG        48.9560   35.8250   21.8470 O.3   170  SER170     -0.2183
     46  N         51.2530   42.0490   15.2350 N.3   318  PHE318     -0.1241
     47  CA        50.0050   42.0060   15.9850 C.3   318  PHE318      0.1605
     48  C         50.1090   42.9280   17.2120 C.2   318  PHE318      0.2264
     49  O         49.1080   43.4580   17.7140 O.2   318  PHE318     -0.2867
     50  CB        49.6630   40.5670   16.3850 C.3   318  PHE318      0.0534
     51  CG        49.2180   39.7070   15.2360 C.ar  318  PHE318     -0.0203
     52  CD1       47.9020   39.7700   14.7630 C.ar  318  PHE318     -0.0042
     53  CD2       50.0980   38.8210   14.6220 C.ar  318  PHE318     -0.0042
     54  CE1       47.4820   38.9670   13.6800 C.ar  318  PHE318     -0.0003
     55  CE2       49.6830   38.0220   13.5360 C.ar  318  PHE318     -0.0003
     56  CZ        48.3880   38.0930   13.0740 C.ar  318  PHE318     -0.0000
     57  N         42.4010   31.6610    4.7100 N.3   508  TYR508     -0.1241
     58  CA        42.3600   32.3140    6.0120 C.3   508  TYR508      0.1605
     59  C         42.4000   33.8320    5.7630 C.2   508  TYR508      0.2264
     60  O         41.4050   34.5350    5.9770 O.2   508  TYR508     -0.2867
     61  CB        43.5050   31.8340    6.9070 C.3   508  TYR508      0.0534
     62  CG        43.4430   32.4300    8.2910 C.ar  508  TYR508     -0.0201
     63  CD1       44.1830   33.5660    8.6080 C.ar  508  TYR508     -0.0009
     64  CD2       42.6310   31.8870    9.2710 C.ar  508  TYR508     -0.0009
     65  CE1       44.1160   34.1510    9.8560 C.ar  508  TYR508      0.0417
     66  CE2       42.5700   32.4540   10.5410 C.ar  508  TYR508      0.0417
     67  CZ        43.3240   33.5980   10.8240 C.ar  508  TYR508      0.1957
     68  OH        43.2920   34.1850   12.0780 O.3   508  TYR508     -0.2866
     69  N         37.9610   29.0100    8.1790 N.3   590  TRP590     -0.1227
     70  CA        37.5470   28.9540    9.5650 C.3   590  TRP590      0.1737
     71  C         37.9010   30.3170   10.1120 C.2   590  TRP590      0.2596
     72  O         38.8510   30.9560    9.6220 O.2   590  TRP590     -0.2718
     73  CB        38.3680   27.8860   10.2680 C.3   590  TRP590      0.0564
     74  CG        37.8410   27.3080   11.5200 C.ar  590  TRP590      0.0003
     75  CD1       37.5830   27.9570   12.6710 C.ar  590  TRP590      0.0946
     76  CD2       37.5940   25.9180   11.7760 C.ar  590  TRP590      0.0152
     77  NE1       37.1570   27.0710   13.6300 N.ar  590  TRP590     -0.2442
     78  CE2       37.1490   25.8120   13.1010 C.ar  590  TRP590      0.0810
     79  CE3       37.6750   24.7560   10.9960 C.ar  590  TRP590      0.0012
     80  CZ2       36.8000   24.6020   13.6740 C.ar  590  TRP590      0.0191
     81  CZ3       37.3230   23.5390   11.5740 C.ar  590  TRP590      0.0001
     82  CH2       36.8930   23.4790   12.8940 C.ar  590  TRP590      0.0015
     83  N         37.1380   30.7850   11.0960 N.am  591  SER591     -0.1938
     84  CA        37.4880   32.0020   11.7850 C.3   591  SER591      0.2055
     85  C         37.5170   33.1480   10.7610 C.2   591  SER591      0.2643
     86  O         36.5230   33.3490   10.0610 O.2   591  SER591     -0.2714
     87  CB        38.8240   31.7880   12.5090 C.3   591  SER591      0.2130
     88  OG        38.9730   32.7240   13.5520 O.3   591  SER591     -0.2179
     89  N         38.6210   33.8910   10.6430 N.am  592  TYR592     -0.1973
     90  CA        38.7090   34.9600    9.6310 C.3   592  TYR592      0.1639
     91  C         38.5140   34.3340    8.2450 C.2   592  TYR592      0.2290
     92  O         37.9070   34.9290    7.3560 O.2   592  TYR592     -0.2864
     93  CB        40.0620   35.6820    9.7170 C.3   592  TYR592      0.0560
     94  CG        40.1160   37.0300    9.0010 C.ar  592  TYR592     -0.0198
     95  CD1       40.0530   38.2390    9.7180 C.ar  592  TYR592     -0.0009
     96  CD2       40.2480   37.1020    7.6230 C.ar  592  TYR592     -0.0009
     97  CE1       40.0870   39.4810    9.0740 C.ar  592  TYR592      0.0417
     98  CE2       40.2870   38.3380    6.9670 C.ar  592  TYR592      0.0417
     99  CZ        40.2040   39.5220    7.6960 C.ar  592  TYR592      0.1957
    100  OH        40.2430   40.7240    7.0240 O.3   592  TYR592     -0.2866
    101  N         33.4090   35.4360   11.1370 N.3   617  VAL617     -0.1245
    102  CA        32.9170   36.7760   11.4830 C.3   617  VAL617      0.1561
    103  C         31.8940   37.1970   10.4260 C.2   617  VAL617      0.2260
    104  O         32.0520   36.8500    9.2500 O.2   617  VAL617     -0.2867
    105  CB        34.0820   37.8110   11.5160 C.3   617  VAL617      0.0252
    106  CG1       33.5650   39.2450   11.3220 C.3   617  VAL617      0.0019
    107  CG2       34.8950   37.6570   12.8190 C.3   617  VAL617      0.0019
    108  N         32.0690   43.4040   11.7220 N.3   620  TRP620     -0.1241
    109  CA        33.1510   43.6870   12.6380 C.3   620  TRP620      0.1605
    110  C         32.7330   44.2970   13.9770 C.2   620  TRP620      0.2264
    111  O         33.4610   44.1580   14.9640 O.2   620  TRP620     -0.2867
    112  CB        34.1960   44.5290   11.9220 C.3   620  TRP620      0.0550
    113  CG        34.8810   43.7030   10.8890 C.ar  620  TRP620      0.0003
    114  CD1       34.7810   43.8210    9.5420 C.ar  620  TRP620      0.0946
    115  CD2       35.7160   42.5780   11.1370 C.ar  620  TRP620      0.0152
    116  NE1       35.5180   42.8420    8.9310 N.ar  620  TRP620     -0.2442
    117  CE2       36.1070   42.0680    9.8910 C.ar  620  TRP620      0.0810
    118  CE3       36.1840   41.9590   12.2980 C.ar  620  TRP620      0.0012
    119  CZ2       36.9520   40.9650    9.7690 C.ar  620  TRP620      0.0191
    120  CZ3       37.0120   40.8690   12.1820 C.ar  620  TRP620      0.0001
    121  CH2       37.3850   40.3740   10.9280 C.ar  620  TRP620      0.0015
    122  N         32.9670   41.4920   16.6200 N.3   623  TYR623     -0.1241
    123  CA        34.2370   40.9810   17.0890 C.3   623  TYR623      0.1605
    124  C         34.8720   41.9450   18.1070 C.2   623  TYR623      0.2264
    125  O         34.4190   43.0910   18.2630 O.2   623  TYR623     -0.2867
    126  CB        35.1800   40.6670   15.9080 C.3   623  TYR623      0.0534
    127  CG        36.2180   39.6670   16.3100 C.ar  623  TYR623     -0.0201
    128  CD1       35.8460   38.4180   16.7390 C.ar  623  TYR623     -0.0009
    129  CD2       37.5530   40.0020   16.3440 C.ar  623  TYR623     -0.0009
    130  CE1       36.7690   37.5110   17.1500 C.ar  623  TYR623      0.0417
    131  CE2       38.5060   39.0910   16.7730 C.ar  623  TYR623      0.0417
    132  CZ        38.1070   37.8450   17.1710 C.ar  623  TYR623      0.1957
    133  OH        39.0430   36.9230   17.5810 O.3   623  TYR623     -0.2866
    134  N         41.4580   43.5310   18.5090 N.3   627  TYR627     -0.1241
    135  CA        41.7550   43.0180   17.1790 C.3   627  TYR627      0.1605
    136  C         41.1230   43.9080   16.1290 C.2   627  TYR627      0.2264
    137  O         41.8090   44.3500   15.2260 O.2   627  TYR627     -0.2867
    138  CB        41.2330   41.5950   17.0200 C.3   627  TYR627      0.0534
    139  CG        41.5460   40.9560   15.6840 C.ar  627  TYR627     -0.0201
    140  CD1       42.6460   40.1040   15.5370 C.ar  627  TYR627     -0.0009
    141  CD2       40.7280   41.1950   14.5660 C.ar  627  TYR627     -0.0009
    142  CE1       42.9270   39.5120   14.3210 C.ar  627  TYR627      0.0417
    143  CE2       41.0000   40.6150   13.3410 C.ar  627  TYR627      0.0417
    144  CZ        42.0950   39.7740   13.2240 C.ar  627  TYR627      0.1957
    145  OH        42.3600   39.2020   12.0170 O.3   627  TYR627     -0.2866
    146  N         42.2710   47.6500   15.5440 N.3   630  ARG630     -0.1245
    147  CA        43.6230   47.6970   15.0210 C.3   630  ARG630      0.1563
    148  C         43.6280   47.8150   13.5160 C.2   630  ARG630      0.2260
    149  O         44.5160   48.4330   12.9540 O.2   630  ARG630     -0.2867
    150  CB        44.3790   46.4330   15.4140 C.3   630  ARG630      0.0307
    151  CG        45.8410   46.3800   14.9840 C.3   630  ARG630      0.0489
    152  CD        46.3920   45.0140   15.3440 C.3   630  ARG630      0.2205
    153  NE        46.3460   44.7860   16.7870 N.pl3 630  ARG630     -0.0865
    154  CZ        46.1910   43.6060   17.3700 C.cat 630  ARG630      0.5346
    155  NH1       46.0840   42.5040   16.6530 N.pl3 630  ARG630      0.1354
    156  NH2       46.1490   43.5310   18.6940 N.pl3 630  ARG630      0.1354
    157  N         34.6800   33.4310   21.3250 N.3   671  ASN671     -0.1225
    158  CA        35.6020   34.2460   20.5440 C.3   671  ASN671      0.1785
    159  C         34.8260   34.9050   19.4240 C.2   671  ASN671      0.2597
    160  O         34.6070   36.1180   19.4620 O.2   671  ASN671     -0.2718
    161  CB        36.7420   33.3680   20.0140 C.3   671  ASN671      0.1169
    162  CG        37.9440   34.1530   19.5360 C.2   671  ASN671      0.2627
    163  OD1       39.0510   33.6340   19.5700 O.2   671  ASN671     -0.2716
    164  ND2       37.7420   35.3760   19.0650 N.am  671  ASN671     -0.0877
    165  N         34.4110   34.1110   18.4420 N.am  672  VAL672     -0.1980
    166  CA        33.4900   34.5720   17.4000 C.3   672  VAL672      0.1595
    167  C         32.1200   34.0480   17.8080 C.2   672  VAL672      0.2287
    168  O         31.8060   32.8580   17.6630 O.2   672  VAL672     -0.2864
    169  CB        33.8360   34.0260   15.9760 C.3   672  VAL672      0.0276
    170  CG1       32.8010   34.5100   14.9450 C.3   672  VAL672      0.0022
    171  CG2       35.2330   34.4180   15.5840 C.3   672  VAL672      0.0022
    172  N         35.2350   28.0250   19.6680 N.3   701  HIS701     -0.1241
    173  CA        35.8620   28.4020   18.3920 C.3   701  HIS701      0.1621
    174  C         36.7150   27.3210   17.7710 C.2   701  HIS701      0.2264
    175  O         36.9190   27.3130   16.5710 O.2   701  HIS701     -0.2867
    176  CB        36.6990   29.6590   18.5270 C.3   701  HIS701      0.0745
    177  CG        36.9420   30.3500   17.2290 C.ar  701  HIS701      0.0817
    178  ND1       35.9160   30.8060   16.4270 N.ar  701  HIS701     -0.2268
    179  CD2       38.0880   30.6910   16.6020 C.ar  701  HIS701      0.1154
    180  CE1       36.4240   31.4000   15.3610 C.ar  701  HIS701      0.1986
    181  NE2       37.7400   31.3490   15.4460 N.ar  701  HIS701     -0.2212
@<TRIPOS>BOND
     1    57    58    1
     2    59    60    2
     3    59    58    1
     4    58    61    1
     5    61    62    1
     6    98    96   ar
     7    98    99   ar
     8   100    99    1
     9    92    91    2
    10    96    94   ar
    11    99    97   ar
    12    69    70    1
    13    91    90    1
    14    62    63   ar
    15    62    64   ar
    16    63    65   ar
    17   116   114   ar
    18   116   117   ar
    19    94    93    1
    20    94    95   ar
    21    97    95   ar
    22   104   103    2
    23    64    66   ar
    24   114   113   ar
    25    70    71    1
    26    70    73    1
    27    72    71    2
    28    90    93    1
    29    90    89    1
    30   119   117   ar
    31   119   121   ar
    32    65    67   ar
    33   117   115   ar
    34    86    85    2
    35    71    83   am
    36    73    74    1
    37   103   102    1
    38    66    67   ar
    39    89    85   am
    40    85    84    1
    41    67    68    1
    42   113   115   ar
    43   113   112    1
    44   121   120   ar
    45    79    81   ar
    46    79    76   ar
    47    83    84    1
    48   101   102    1
    49   115   118   ar
    50   106   105    1
    51   102   105    1
    52   105   107    1
    53    74    76   ar
    54    74    75   ar
    55    81    82   ar
    56   108   109    1
    57    76    78   ar
    58    84    87    1
    59   112   109    1
    60   145   144    1
    61   120   118   ar
    62    87    88    1
    63   109   110    1
    64    75    77   ar
    65    82    80   ar
    66   149   148    2
    67    56    55   ar
    68    56    54   ar
    69    78    77   ar
    70    78    80   ar
    71   144   143   ar
    72   144   142   ar
    73   143   141   ar
    74   148   147    1
    75    55    53   ar
    76    54    52   ar
    77   110   111    2
    78   142   140   ar
    79   141   139   ar
    80    53    51   ar
    81    52    51   ar
    82   170   169    1
    83   151   152    1
    84   151   150    1
    85   147   150    1
    86   147   146    1
    87   137   136    2
    88    46    47    1
    89    51    50    1
    90   152   153    1
    91   180   181   ar
    92   180   178   ar
    93   181   179   ar
    94   140   139   ar
    95   171   169    1
    96   139   138    1
    97   126   127    1
    98   126   123    1
    99   169   166    1
   100    47    50    1
   101    47    48    1
   102   136   135    1
   103   127   129   ar
   104   127   128   ar
   105   129   131   ar
   106   178   177   ar
   107   175   174    2
   108   179   177   ar
   109   122   123    1
   110   155   154    1
   111   128   130   ar
   112   131   132   ar
   113   153   154    2
   114   138   135    1
   115   123   124    1
   116   130   132   ar
   117   132   133    1
   118   135   134    1
   119    48    49    2
   120   177   176    1
   121   154   156    1
   122   166   167    1
   123   166   165    1
   124   168   167    2
   125   174   173    1
   126   124   125    2
   127   173   176    1
   128   173   172    1
   129   165   159   am
   130    11     9    1
   131    38    37   ar
   132    10     9    1
   133   164   162   am
   134    39    37   ar
   135   159   160    2
   136   159   158    1
   137   162   163    2
   138   162   161    1
   139     9     8    2
   140    37    36    1
   141    29    28   ar
   142   161   158    1
   143   158   157    1
   144     8     7    1
   145    28    27    1
   146    28    30   ar
   147    36    35    1
   148    34    33    2
   149    35    32    1
   150     7     6    1
   151    27    26    1
   152    25    24    2
   153    32    33    1
   154    32    31    1
   155    45    44    1
   156     6     5    1
   157    24    31   am
   158    24    23    1
   159    44    41    1
   160    26    23    1
   161     5     2    1
   162    23    22    1
   163    20    21   ar
   164    20    18   ar
   165    21    19   ar
   166    41    40    1
   167    41    42    1
   168     2     3    1
   169     2     1    1
   170    18    17   ar
   171    19    17   ar
   172     4     3    2
   173    43    42    2
   174     3    12   am
   175    17    16    1
   176    12    13    1
   177    16    13    1
   178    13    14    1
   179    14    15    2
