@<TRIPOS>MOLECULE
tmp/3o9zD01.pdb
 134 131 0 0 0
SMALL
GASTEIGER

@<TRIPOS>ATOM
      1  N         52.3660   46.4460   47.7360 N.3    12  TYR12      -0.1241
      2  CA        53.6300   46.8530   48.3100 C.3    12  TYR12       0.1605
      3  C         54.5930   45.6810   48.4440 C.2    12  TYR12       0.2264
      4  O         55.7970   45.7910   48.2090 O.2    12  TYR12      -0.2867
      5  CB        53.3820   47.4960   49.6800 C.3    12  TYR12       0.0534
      6  CG        54.6690   47.9140   50.3460 C.ar   12  TYR12      -0.0201
      7  CD1       55.2230   47.1600   51.3760 C.ar   12  TYR12      -0.0009
      8  CD2       55.3500   49.0490   49.9120 C.ar   12  TYR12      -0.0009
      9  CE1       56.4130   47.5350   51.9670 C.ar   12  TYR12       0.0417
     10  CE2       56.5340   49.4350   50.5040 C.ar   12  TYR12       0.0417
     11  CZ        57.0620   48.6720   51.5240 C.ar   12  TYR12       0.1957
     12  OH        58.2410   49.0620   52.1150 O.3    12  TYR12      -0.2866
     13  N         51.5390   37.3390   56.6760 N.3   101  LYS101     -0.1245
     14  CA        50.8770   37.6060   57.9550 C.3   101  LYS101      0.1561
     15  C         49.7830   38.6360   57.7600 C.2   101  LYS101      0.2260
     16  O         49.8300   39.4030   56.7940 O.2   101  LYS101     -0.2867
     17  CB        51.8790   38.2100   58.9640 C.3   101  LYS101      0.0271
     18  CG        52.7410   39.3670   58.4690 C.3   101  LYS101      0.0035
     19  CD        52.0240   40.5730   57.8180 C.3   101  LYS101      0.0206
     20  CE        51.1940   41.3980   58.8050 C.3   101  LYS101      0.1093
     21  NZ        50.7800   42.7360   58.2700 N.3   101  LYS101     -0.1314
     22  N         56.5070   49.8640   69.2450 N.3   156  TYR156     -0.1241
     23  CA        56.7440   49.9490   67.8060 C.3   156  TYR156      0.1605
     24  C         56.0020   51.1150   67.2030 C.2   156  TYR156      0.2264
     25  O         54.7600   51.1470   67.2100 O.2   156  TYR156     -0.2867
     26  CB        56.4000   48.6730   67.0870 C.3   156  TYR156      0.0534
     27  CG        56.7030   48.7250   65.6050 C.ar  156  TYR156     -0.0201
     28  CD1       57.9260   49.1960   65.1350 C.ar  156  TYR156     -0.0009
     29  CD2       55.7470   48.3120   64.6790 C.ar  156  TYR156     -0.0009
     30  CE1       58.2000   49.2400   63.7730 C.ar  156  TYR156      0.0415
     31  CE2       56.0250   48.3260   63.3200 C.ar  156  TYR156      0.0415
     32  CZ        57.2410   48.7980   62.8760 C.ar  156  TYR156      0.1944
     33  OH        57.5070   48.8250   61.5200 O.3   156  TYR156     -0.2832
     34  N         55.7760   53.1090   63.6530 N.3   158  THR158     -0.1218
     35  CA        56.1860   53.0950   62.2540 C.3   158  THR158      0.1862
     36  C         55.2860   54.0490   61.4670 C.2   158  THR158      0.2287
     37  O         54.0890   53.7800   61.2660 O.2   158  THR158     -0.2866
     38  CB        56.2050   51.6760   61.6780 C.3   158  THR158      0.1770
     39  OG1       56.5840   51.7230   60.2960 O.3   158  THR158     -0.2211
     40  CG2       54.8470   50.9870   61.7960 C.3   158  THR158      0.0375
     41  N         53.1740   56.3790   59.1180 N.3   160  ARG160     -0.1245
     42  CA        52.4630   56.1850   57.8480 C.3   160  ARG160      0.1563
     43  C         51.8660   57.5230   57.4370 C.2   160  ARG160      0.2260
     44  O         51.2460   58.2540   58.2180 O.2   160  ARG160     -0.2867
     45  CB        51.3120   55.1900   57.9800 C.3   160  ARG160      0.0307
     46  CG        51.7560   53.7750   58.3280 C.3   160  ARG160      0.0489
     47  CD        52.4390   53.1350   57.1390 C.3   160  ARG160      0.2205
     48  NE        52.7140   51.7260   57.3650 N.pl3 160  ARG160     -0.0865
     49  CZ        53.8060   51.2810   57.9730 C.cat 160  ARG160      0.5346
     50  NH1       54.7430   52.1400   58.3440 N.pl3 160  ARG160      0.1354
     51  NH2       53.9630   49.9780   58.1530 N.pl3 160  ARG160      0.1354
     52  N         47.4720   55.9890   54.1170 N.3   164  TYR164     -0.1241
     53  CA        47.1230   54.7990   54.8980 C.3   164  TYR164      0.1605
     54  C         45.6640   54.8470   55.3580 C.2   164  TYR164      0.2264
     55  O         44.9610   53.8630   55.2520 O.2   164  TYR164     -0.2867
     56  CB        48.0760   54.6900   56.1000 C.3   164  TYR164      0.0534
     57  CG        47.9850   53.4080   56.9250 C.ar  164  TYR164     -0.0201
     58  CD1       48.8070   52.3320   56.6650 C.ar  164  TYR164     -0.0009
     59  CD2       47.0820   53.3230   57.9760 C.ar  164  TYR164     -0.0009
     60  CE1       48.7450   51.1710   57.4370 C.ar  164  TYR164      0.0417
     61  CE2       47.0230   52.1730   58.7750 C.ar  164  TYR164      0.0417
     62  CZ        47.8640   51.1210   58.4850 C.ar  164  TYR164      0.1957
     63  OH        47.8160   49.9730   59.2430 O.3   164  TYR164     -0.2866
     64  N         42.5830   50.0220   52.4910 N.3   168  TRP168     -0.1227
     65  CA        41.9050   48.9010   53.1590 C.3   168  TRP168      0.1737
     66  C         42.5060   48.6730   54.5500 C.2   168  TRP168      0.2595
     67  O         41.8760   48.0190   55.3920 O.2   168  TRP168     -0.2718
     68  CB        42.0470   47.6270   52.3290 C.3   168  TRP168      0.0564
     69  CG        43.4720   47.1600   52.1630 C.ar  168  TRP168      0.0003
     70  CD1       44.3100   47.4540   51.1030 C.ar  168  TRP168      0.0946
     71  CD2       44.2190   46.2800   53.0150 C.ar  168  TRP168      0.0152
     72  NE1       45.5290   46.8430   51.2830 N.ar  168  TRP168     -0.2442
     73  CE2       45.4970   46.1090   52.4410 C.ar  168  TRP168      0.0810
     74  CE3       43.9400   45.6310   54.2230 C.ar  168  TRP168      0.0012
     75  CZ2       46.4920   45.3130   53.0310 C.ar  168  TRP168      0.0191
     76  CZ3       44.9420   44.8310   54.8040 C.ar  168  TRP168      0.0001
     77  CH2       46.1980   44.6960   54.2320 C.ar  168  TRP168      0.0015
     78  N         43.7150   49.1780   54.7620 N.am  169  LYS169     -0.1980
     79  CA        44.4480   48.8920   56.0090 C.3   169  LYS169      0.1596
     80  C         43.7750   49.4840   57.2420 C.2   169  LYS169      0.2287
     81  O         43.9480   48.9360   58.3430 O.2   169  LYS169     -0.2864
     82  CB        45.8910   49.3510   55.9060 C.3   169  LYS169      0.0298
     83  CG        46.6650   48.4700   54.9180 C.3   169  LYS169      0.0038
     84  CD        47.9490   49.1040   54.3590 C.3   169  LYS169      0.0206
     85  CE        48.7180   48.0220   53.5610 C.3   169  LYS169      0.1093
     86  NZ        50.0260   48.4850   52.9970 N.3   169  LYS169     -0.1314
     87  N         47.2730   44.6450   61.8250 N.3   181  ASN181     -0.1225
     88  CA        47.9940   44.9060   60.5930 C.3   181  ASN181      0.1785
     89  C         49.4520   45.3060   60.7970 C.2   181  ASN181      0.2597
     90  O         50.3320   44.8800   60.0530 O.2   181  ASN181     -0.2718
     91  CB        47.2230   45.9270   59.7430 C.3   181  ASN181      0.1169
     92  CG        47.6950   45.9290   58.3150 C.2   181  ASN181      0.2627
     93  OD1       47.6550   44.9030   57.6410 O.2   181  ASN181     -0.2716
     94  ND2       48.2090   47.0600   57.8720 N.am  181  ASN181     -0.0877
     95  N         49.7110   46.1240   61.8120 N.am  182  ILE182     -0.1980
     96  CA        51.0340   46.3600   62.3460 C.3   182  ILE182      0.1595
     97  C         51.3060   45.2590   63.4170 C.2   182  ILE182      0.2287
     98  O         52.1470   44.3900   63.2330 O.2   182  ILE182     -0.2864
     99  CB        51.0640   47.8140   62.8620 C.3   182  ILE182      0.0276
    100  CG1       50.4390   48.7550   61.8290 C.3   182  ILE182      0.0022
    101  CG2       52.4580   48.2960   63.2000 C.3   182  ILE182      0.0022
    102  CD1       51.2790   48.9480   60.5780 C.3   182  ILE182      0.0001
    103  N         53.1880   40.9040   63.7890 N.3   185  HIS185     -0.1241
    104  CA        54.6050   40.6070   63.8010 C.3   185  HIS185      0.1621
    105  C         55.1470   40.3760   65.2090 C.2   185  HIS185      0.2264
    106  O         55.8670   39.4170   65.5070 O.2   185  HIS185     -0.2867
    107  CB        55.2860   41.8580   63.2470 C.3   185  HIS185      0.0745
    108  CG        55.1330   42.0160   61.7730 C.ar  185  HIS185      0.0817
    109  ND1       55.5540   41.0450   60.8930 N.ar  185  HIS185     -0.2268
    110  CD2       54.6210   43.0180   61.0190 C.ar  185  HIS185      0.1154
    111  CE1       55.3290   41.4510   59.6560 C.ar  185  HIS185      0.1986
    112  NE2       54.7690   42.6460   59.7050 N.ar  185  HIS185     -0.2212
    113  N         61.4800   50.4960   66.8250 N.3   245  ARG245     -0.1245
    114  CA        60.9990   49.1150   66.8700 C.3   245  ARG245      0.1563
    115  C         61.7160   48.2830   67.9200 C.2   245  ARG245      0.2260
    116  O         62.6530   47.5680   67.5670 O.2   245  ARG245     -0.2867
    117  CB        61.1660   48.4360   65.5060 C.3   245  ARG245      0.0307
    118  CG        60.2230   47.2710   65.2430 C.3   245  ARG245      0.0489
    119  CD        59.5500   47.3740   63.8760 C.3   245  ARG245      0.2205
    120  NE        60.3540   48.0980   62.8970 N.pl3 245  ARG245     -0.0864
    121  CZ        59.9960   48.2590   61.6280 C.2   245  ARG245      0.5355
    122  NH1       58.8600   47.7350   61.1810 N.4   245  ARG245      0.1325
    123  NH2       60.7810   48.9390   60.8070 N.pl3 245  ARG245      0.1355
    124  N         64.4360   44.0000   58.4210 N.3   260  PHE260     -0.1241
    125  CA        62.9820   43.8930   58.4760 C.3   260  PHE260      0.1605
    126  C         62.3470   43.6640   57.1100 C.2   260  PHE260      0.2264
    127  O         61.3140   43.0080   57.0000 O.2   260  PHE260     -0.2867
    128  CB        62.3560   45.1130   59.1560 C.3   260  PHE260      0.0534
    129  CG        60.8940   44.9450   59.4620 C.ar  260  PHE260     -0.0203
    130  CD1       60.4550   44.8030   60.7700 C.ar  260  PHE260     -0.0042
    131  CD2       59.9620   44.9060   58.4370 C.ar  260  PHE260     -0.0042
    132  CE1       59.1090   44.6370   61.0530 C.ar  260  PHE260     -0.0003
    133  CE2       58.6190   44.7390   58.7100 C.ar  260  PHE260     -0.0003
    134  CZ        58.1900   44.6070   60.0200 C.ar  260  PHE260     -0.0000
@<TRIPOS>BOND
     1     1     2    1
     2     4     3    2
     3     2     3    1
     4     2     5    1
     5     5     6    1
     6     8     6   ar
     7     8    10   ar
     8     6     7   ar
     9    10    11   ar
    10    70    72   ar
    11    70    69   ar
    12    72    73   ar
    13     7     9   ar
    14    11     9   ar
    15    11    12    1
    16    69    68    1
    17    69    71   ar
    18    68    65    1
    19    73    71   ar
    20    73    75   ar
    21    64    65    1
    22    86    85    1
    23    71    74   ar
    24    75    77   ar
    25    65    66    1
    26    85    84    1
    27    52    53    1
    28    74    76   ar
    29    77    76   ar
    30    84    83    1
    31    66    78   am
    32    66    67    2
    33    78    79    1
    34    53    54    1
    35    53    56    1
    36    83    82    1
    37    55    54    2
    38    82    79    1
    39    79    80    1
    40    56    57    1
    41    58    57   ar
    42    58    60   ar
    43    13    14    1
    44    16    15    2
    45    57    59   ar
    46   127   126    2
    47   126   125    1
    48    47    48    1
    49    47    46    1
    50    80    81    2
    51    48    49    2
    52    43    42    1
    53    43    44    2
    54    60    62   ar
    55    93    92    2
    56    15    14    1
    57    19    18    1
    58    19    20    1
    59    42    45    1
    60    42    41    1
    61    94    92   am
    62    14    17    1
    63    49    51    1
    64    49    50    1
    65    59    61   ar
    66    45    46    1
    67    21    20    1
    68    92    91    1
    69   124   125    1
    70   131   133   ar
    71   131   129   ar
    72    18    17    1
    73   125   128    1
    74    62    61   ar
    75    62    63    1
    76   133   134   ar
    77   128   129    1
    78   129   130   ar
    79   111   112   ar
    80   111   109   ar
    81   112   110   ar
    82    91    88    1
    83   134   132   ar
    84    90    89    2
    85    39    38    1
    86   102   100    1
    87    88    89    1
    88    88    87    1
    89   130   132   ar
    90    89    95   am
    91   123   121    2
    92   109   108   ar
    93   110   108   ar
    94   122    33    1
    95   122   121    1
    96    37    36    2
    97    36    35    1
    98    33    32    1
    99   121   120    1
   100    38    40    1
   101    38    35    1
   102   108   107    1
   103    95    96    1
   104   100    99    1
   105    35    34    1
   106    96    99    1
   107    96    97    1
   108    99   101    1
   109    32    31   ar
   110    32    30   ar
   111   120   119    1
   112    98    97    2
   113   107   104    1
   114    31    29   ar
   115    30    28   ar
   116   103   104    1
   117   104   105    1
   118   119   118    1
   119    29    27   ar
   120    28    27   ar
   121   105   106    2
   122   118   117    1
   123   117   114    1
   124    27    26    1
   125   113   114    1
   126   114   115    1
   127    26    23    1
   128    24    25    2
   129    24    23    1
   130   116   115    2
   131    23    22    1
