@<TRIPOS>MOLECULE
tmp/3oa0B01.pdb
 234 228 0 0 0
SMALL
GASTEIGER

@<TRIPOS>ATOM
      1  N         25.0580   63.1530   39.6630 N.3     7  THR7       -0.1203
      2  CA        26.1170   62.1930   40.0130 C.3     7  THR7        0.1994
      3  C         25.4630   61.0200   40.7860 C.2     7  THR7        0.2618
      4  O         24.4630   61.2330   41.4810 O.2     7  THR7       -0.2717
      5  CB        27.1750   62.8590   40.8870 C.3     7  THR7        0.1784
      6  OG1       26.6300   63.0590   42.2090 O.3     7  THR7       -0.2211
      7  CG2       27.6140   64.1970   40.2200 C.3     7  THR7        0.0376
      8  N         25.9740   59.7970   40.6220 N.am    8  GLY8       -0.1956
      9  CA        25.4410   58.6010   41.3250 C.3     8  GLY8        0.1869
     10  C         24.2220   57.9710   40.6800 C.2     8  GLY8        0.2309
     11  O         23.4050   57.2980   41.3230 O.2     8  GLY8       -0.2863
     12  N         23.7600   55.2630   38.9750 N.3    10  ALA10      -0.1231
     13  CA        23.5350   53.8070   39.0990 C.3    10  ALA10       0.1694
     14  C         23.0150   53.4240   40.4920 C.2    10  ALA10       0.2593
     15  O         22.7900   52.2500   40.8200 O.2    10  ALA10      -0.2718
     16  CB        24.8810   53.0810   38.8250 C.3    10  ALA10       0.0304
     17  N         22.8570   54.4160   41.3590 N.am   11  GLY11      -0.1942
     18  CA        22.6460   54.1100   42.7660 C.3    11  GLY11       0.2014
     19  C         21.2060   53.8550   43.1150 C.2    11  GLY11       0.2639
     20  O         20.3480   54.0330   42.2900 O.2    11  GLY11      -0.2714
     21  N         20.9340   53.5830   44.3850 N.am   12  TYR12      -0.1959
     22  CA        19.5770   53.3010   44.8300 C.3    12  TYR12       0.1771
     23  C         18.6310   54.4960   44.7420 C.2    12  TYR12       0.2619
     24  O         17.4680   54.3610   44.3390 O.2    12  TYR12      -0.2715
     25  CB        19.6110   52.6580   46.2540 C.3    12  TYR12       0.0574
     26  CG        18.2720   52.7670   46.9620 C.ar   12  TYR12      -0.0198
     27  CD1       18.0440   53.8060   47.8520 C.ar   12  TYR12      -0.0009
     28  CD2       17.2380   51.8890   46.6940 C.ar   12  TYR12      -0.0009
     29  CE1       16.8510   53.9310   48.4880 C.ar   12  TYR12       0.0417
     30  CE2       16.0190   52.0160   47.3170 C.ar   12  TYR12       0.0417
     31  CZ        15.8410   53.0510   48.2020 C.ar   12  TYR12       0.1957
     32  OH        14.6450   53.2100   48.8370 O.3    12  TYR12      -0.2866
     33  N         19.0690   55.6810   45.1360 N.am   13  ILE13      -0.1977
     34  CA        18.1080   56.8010   45.1250 C.3    13  ILE13       0.1596
     35  C         18.0110   57.5510   43.7790 C.2    13  ILE13       0.2287
     36  O         17.0400   58.2590   43.5470 O.2    13  ILE13      -0.2864
     37  CB        18.4390   57.8630   46.2240 C.3    13  ILE13       0.0276
     38  CG1       17.2430   58.7620   46.5380 C.3    13  ILE13       0.0022
     39  CG2       19.6250   58.6470   45.8480 C.3    13  ILE13       0.0022
     40  CD1       16.2250   57.9500   47.3930 C.3    13  ILE13       0.0001
     41  N         14.6930   58.3400   41.8020 N.3    16  ARG16      -0.1245
     42  CA        13.7230   59.3570   42.1980 C.3    16  ARG16       0.1563
     43  C         14.2280   60.7010   41.6850 C.2    16  ARG16       0.2260
     44  O         13.4580   61.6370   41.4990 O.2    16  ARG16      -0.2867
     45  CB        13.5160   59.3900   43.7120 C.3    16  ARG16       0.0307
     46  CG        13.0880   58.0460   44.2980 C.3    16  ARG16       0.0489
     47  CD        12.7800   58.1610   45.7840 C.3    16  ARG16       0.2205
     48  NE        12.7720   56.8250   46.3680 N.pl3  16  ARG16      -0.0865
     49  CZ        12.5570   56.5670   47.6510 C.cat  16  ARG16       0.5346
     50  NH1       12.3290   57.5600   48.4980 N.pl3  16  ARG16       0.1354
     51  NH2       12.5700   55.3140   48.0850 N.pl3  16  ARG16       0.1354
     52  N         27.2850   61.2160   35.9580 N.3    32  LEU32      -0.1231
     53  CA        28.5760   60.6320   36.2650 C.3    32  LEU32       0.1693
     54  C         28.3360   59.4590   37.2020 C.2    32  LEU32       0.2592
     55  O         27.5460   59.5710   38.1360 O.2    32  LEU32      -0.2718
     56  CB        29.4480   61.6520   36.9990 C.3    32  LEU32       0.0284
     57  CG        30.6620   61.1360   37.7750 C.3    32  LEU32       0.0019
     58  CD1       31.7460   60.7560   36.8190 C.3    32  LEU32       0.0001
     59  CD2       31.2040   62.2690   38.6700 C.3    32  LEU32       0.0001
     60  N         29.0160   58.3410   36.9870 N.am   33  ASP33      -0.1960
     61  CA        28.9860   57.2730   38.0140 C.3    33  ASP33       0.1825
     62  C         30.0300   56.2970   37.5310 C.2    33  ASP33       0.2464
     63  O         30.0300   55.9750   36.3610 O.2    33  ASP33      -0.2730
     64  CB        27.6130   56.6020   38.0370 C.3    33  ASP33       0.1450
     65  CG        27.4280   55.7450   39.2920 C.2    33  ASP33       0.3671
     66  OD1       28.3600   54.9930   39.6240 O.co2  33  ASP33      -0.2456
     67  OD2       26.3730   55.7970   39.9390 O.co2  33  ASP33      -0.2456
     68  N         30.9920   55.9300   38.3860 N.am   34  PRO34      -0.2715
     69  CA        31.8880   54.8720   37.9590 C.3    34  PRO34       0.1536
     70  C         31.1920   53.5310   37.7340 C.2    34  PRO34       0.2598
     71  O         31.8280   52.6810   37.1390 O.2    34  PRO34      -0.2715
     72  CB        32.8910   54.7850   39.1160 C.3    34  PRO34       0.0310
     73  CG        32.1860   55.3550   40.2620 C.3    34  PRO34       0.0237
     74  CD        31.2840   56.4090   39.7500 C.3    34  PRO34       0.0939
     75  N         29.9310   53.3320   38.1320 N.am   35  ALA35      -0.1978
     76  CA        29.2890   52.0120   38.0110 C.3    35  ALA35       0.1597
     77  C         28.3670   52.1790   36.8090 C.2    35  ALA35       0.2287
     78  O         27.9460   53.2880   36.5350 O.2    35  ALA35      -0.2864
     79  CB        28.4740   51.6590   39.2890 C.3    35  ALA35       0.0319
     80  N         35.2100   61.4780   36.8630 N.3    54  PRO54      -0.2116
     81  CA        34.7250   62.7730   37.3320 C.3    54  PRO54       0.1372
     82  C         35.4550   63.9140   36.6110 C.2    54  PRO54       0.2244
     83  O         34.8280   64.9150   36.3750 O.2    54  PRO54      -0.2868
     84  CB        35.1240   62.7810   38.8250 C.3    54  PRO54       0.0268
     85  CG        35.2070   61.2850   39.2260 C.3    54  PRO54       0.0207
     86  CD        35.6940   60.6100   37.9720 C.3    54  PRO54       0.0892
     87  N         23.8470   62.5120   44.0770 N.3    77  ALA77      -0.1231
     88  CA        23.4050   61.3350   44.8200 C.3    77  ALA77       0.1694
     89  C         24.5380   60.3500   44.9780 C.2    77  ALA77       0.2593
     90  O         24.3220   59.1670   44.9280 O.2    77  ALA77      -0.2718
     91  CB        22.1600   60.7250   44.1330 C.3    77  ALA77       0.0304
     92  N         25.7660   60.8130   45.1950 N.am   78  SER78      -0.1939
     93  CA        26.8480   59.9030   45.4290 C.3    78  SER78       0.2040
     94  C         27.0280   59.6010   46.9160 C.2    78  SER78       0.2485
     95  O         26.2800   60.1430   47.7040 O.2    78  SER78      -0.2729
     96  CB        28.0960   60.6490   45.0040 C.3    78  SER78       0.2129
     97  OG        27.9470   61.9570   45.5260 O.3    78  SER78      -0.2179
     98  N         28.0130   58.7690   47.3070 N.am   79  PRO79      -0.2715
     99  CA        28.1350   58.4850   48.7530 C.3    79  PRO79       0.1536
    100  C         28.4180   59.8060   49.5220 C.2    79  PRO79       0.2598
    101  O         28.8810   60.8010   48.9500 O.2    79  PRO79      -0.2715
    102  CB        29.3260   57.5230   48.8280 C.3    79  PRO79       0.0310
    103  CG        29.2440   56.7190   47.4590 C.3    79  PRO79       0.0237
    104  CD        28.9180   57.9270   46.5030 C.3    79  PRO79       0.0939
    105  N         28.0910   59.8310   50.8070 N.am   80  ASN80      -0.1973
    106  CA        28.0630   61.0660   51.6430 C.3    80  ASN80       0.1688
    107  C         29.3720   61.8250   51.6580 C.2    80  ASN80       0.2292
    108  O         29.3690   63.0320   51.5540 O.2    80  ASN80      -0.2864
    109  CB        27.7030   60.7040   53.0930 C.3    80  ASN80       0.1181
    110  CG        26.3170   60.1320   53.1530 C.2    80  ASN80       0.2629
    111  OD1       25.5770   60.1650   52.1630 O.2    80  ASN80      -0.2716
    112  ND2       25.9700   59.5460   54.2720 N.am   80  ASN80      -0.0877
    113  N         31.4980   62.3550   49.4090 N.3    82  LEU82      -0.1231
    114  CA        31.7670   63.0510   48.1360 C.3    82  LEU82       0.1693
    115  C         30.7420   64.1660   47.9410 C.2    82  LEU82       0.2592
    116  O         30.7930   64.9010   46.9360 O.2    82  LEU82      -0.2718
    117  CB        31.6860   62.0750   46.9440 C.3    82  LEU82       0.0284
    118  CG        32.9030   61.1380   46.8550 C.3    82  LEU82       0.0019
    119  CD1       32.4780   59.8290   46.1920 C.3    82  LEU82       0.0001
    120  CD2       34.0270   61.8160   46.0750 C.3    82  LEU82       0.0001
    121  N         29.7740   64.3080   48.8510 N.am   83  HIS83      -0.1976
    122  CA        28.7940   65.3970   48.6160 C.3    83  HIS83       0.1656
    123  C         29.5880   66.7180   48.5830 C.2    83  HIS83       0.2291
    124  O         29.5590   67.4870   47.6180 O.2    83  HIS83      -0.2864
    125  CB        27.7290   65.4480   49.7150 C.3    83  HIS83       0.0771
    126  CG        26.7690   64.3080   49.6350 C.ar   83  HIS83       0.0820
    127  ND1       25.6510   64.2290   50.4310 N.ar   83  HIS83      -0.2267
    128  CD2       26.7110   63.2480   48.7880 C.ar   83  HIS83       0.1154
    129  CE1       24.9830   63.1290   50.1320 C.ar   83  HIS83       0.1986
    130  NE2       25.6030   62.5160   49.1380 N.ar   83  HIS83      -0.2212
    131  N         31.7740   67.3410   45.4130 N.3    86  GLN86      -0.1245
    132  CA        30.9120   67.5260   44.2330 C.3    86  GLN86       0.1566
    133  C         30.0300   68.7860   44.2390 C.2    86  GLN86       0.2260
    134  O         29.6120   69.3050   43.2000 O.2    86  GLN86      -0.2867
    135  CB        30.0990   66.2690   43.9900 C.3    86  GLN86       0.0367
    136  CG        31.0350   65.0600   43.8350 C.3    86  GLN86       0.0905
    137  CD        30.3070   63.8680   43.2530 C.2    86  GLN86       0.2608
    138  OE1       29.1160   63.6590   43.5140 O.2    86  GLN86      -0.2717
    139  NE2       31.0210   63.1030   42.4180 N.am   86  GLN86      -0.0878
    140  N         21.9010   65.2130   47.9700 N.3   100  GLU100     -0.1231
    141  CA        21.1380   64.3200   48.8300 C.3   100  GLU100      0.1699
    142  C         21.5930   64.6540   50.2380 C.2   100  GLU100      0.2592
    143  O         22.6710   65.2100   50.4240 O.2   100  GLU100     -0.2718
    144  CB        21.3860   62.8390   48.4860 C.3   100  GLU100      0.0402
    145  CG        20.4210   62.3520   47.4240 C.3   100  GLU100      0.1161
    146  CD        19.0320   62.2260   47.9960 C.2   100  GLU100      0.3649
    147  OE1       18.9090   62.1790   49.2420 O.co2 100  GLU100     -0.2457
    148  OE2       18.0690   62.1450   47.2220 O.co2 100  GLU100     -0.2457
    149  N         20.7960   64.3190   51.2450 N.am  101  LYS101     -0.1980
    150  CA        21.3170   64.4160   52.6070 C.3   101  LYS101      0.1596
    151  C         22.3790   63.3320   52.8910 C.2   101  LYS101      0.2287
    152  O         22.4430   62.3200   52.1930 O.2   101  LYS101     -0.2864
    153  CB        20.1610   64.3520   53.6200 C.3   101  LYS101      0.0298
    154  CG        18.9980   63.4630   53.2070 C.3   101  LYS101      0.0038
    155  CD        19.4680   62.0340   52.9980 C.3   101  LYS101      0.0206
    156  CE        20.3430   61.6010   54.1590 C.3   101  LYS101      0.1093
    157  NZ        21.0140   60.3050   53.9100 N.3   101  LYS101     -0.1314
    158  N         13.2980   65.7490   52.3880 N.3   129  GLN129     -0.1245
    159  CA        11.9100   65.4850   52.0860 C.3   129  GLN129      0.1566
    160  C         10.9870   65.3340   53.3020 C.2   129  GLN129      0.2260
    161  O          9.7730   65.4170   53.1290 O.2   129  GLN129     -0.2867
    162  CB        11.7670   64.2980   51.1210 C.3   129  GLN129      0.0367
    163  CG        11.9200   62.9230   51.7410 C.3   129  GLN129      0.0905
    164  CD        13.2990   62.2910   51.5670 C.2   129  GLN129      0.2608
    165  OE1       14.3210   62.9750   51.4970 O.2   129  GLN129     -0.2717
    166  NE2       13.3330   60.9660   51.5400 N.am  129  GLN129     -0.0878
    167  N         17.8170   46.4510   57.1810 N.3   160  ARG160     -0.1245
    168  CA        18.6980   46.2010   56.0340 C.3   160  ARG160      0.1563
    169  C         19.2510   44.7850   56.0970 C.2   160  ARG160      0.2260
    170  O         19.6600   44.3580   57.1560 O.2   160  ARG160     -0.2867
    171  CB        19.8840   47.1580   56.0580 C.3   160  ARG160      0.0307
    172  CG        19.4300   48.5880   56.0210 C.3   160  ARG160      0.0489
    173  CD        18.8570   48.9000   54.6820 C.3   160  ARG160      0.2205
    174  NE        18.5170   50.3150   54.5780 N.pl3 160  ARG160     -0.0865
    175  CZ        17.2840   50.8060   54.6800 C.cat 160  ARG160      0.5346
    176  NH1       16.2490   50.0090   54.9140 N.pl3 160  ARG160      0.1354
    177  NH2       17.0720   52.1080   54.5260 N.pl3 160  ARG160      0.1354
    178  N         28.6300   47.6170   52.1170 N.3   167  SER167     -0.1202
    179  CA        28.5480   48.8830   51.3530 C.3   167  SER167      0.2020
    180  C         29.2740   50.0690   51.9840 C.2   167  SER167      0.2619
    181  O         29.6230   49.9930   53.1570 O.2   167  SER167     -0.2717
    182  CB        27.0840   49.2700   51.1490 C.3   167  SER167      0.2103
    183  OG        26.6570   50.1190   52.1760 O.3   167  SER167     -0.2182
    184  N         29.4800   51.1700   51.2490 N.am  168  TRP168     -0.1961
    185  CA        30.0680   52.3570   51.8320 C.3   168  TRP168      0.1771
    186  C         29.3050   52.8690   53.0650 C.2   168  TRP168      0.2619
    187  O         29.8690   53.5920   53.8910 O.2   168  TRP168     -0.2715
    188  CB        30.1880   53.4790   50.8080 C.3   168  TRP168      0.0590
    189  CG        28.8280   53.9300   50.3380 C.ar  168  TRP168      0.0006
    190  CD1       28.2100   53.4760   49.2100 C.ar  168  TRP168      0.0946
    191  CD2       27.9920   54.9510   50.8800 C.ar  168  TRP168      0.0152
    192  NE1       27.0320   54.1300   49.0280 N.ar  168  TRP168     -0.2442
    193  CE2       26.8710   55.0530   50.0270 C.ar  168  TRP168      0.0810
    194  CE3       28.0970   55.8250   51.9780 C.ar  168  TRP168      0.0012
    195  CZ2       25.7910   55.8910   50.2940 C.ar  168  TRP168      0.0191
    196  CZ3       27.0010   56.6390   52.2690 C.ar  168  TRP168      0.0001
    197  CH2       25.8830   56.7020   51.4060 C.ar  168  TRP168      0.0015
    198  N         28.0230   52.5190   53.1590 N.am  169  LYS169     -0.1977
    199  CA        27.1260   53.0530   54.1640 C.3   169  LYS169      0.1596
    200  C         27.5360   52.7200   55.5840 C.2   169  LYS169      0.2287
    201  O         27.1790   53.4560   56.4940 O.2   169  LYS169     -0.2864
    202  CB        25.6930   52.5740   53.9340 C.3   169  LYS169      0.0298
    203  CG        25.1850   53.2200   52.6470 C.3   169  LYS169      0.0038
    204  CD        23.8920   52.6390   52.1630 C.3   169  LYS169      0.0206
    205  CE        23.4550   53.3760   50.8900 C.3   169  LYS169      0.1093
    206  NZ        22.0240   53.2240   50.6130 N.3   169  LYS169     -0.1314
    207  N         24.2130   58.6310   58.5130 N.3   181  ASN181     -0.1240
    208  CA        23.6950   58.1700   57.2410 C.3   181  ASN181      0.1653
    209  C         22.2160   57.8670   57.3110 C.2   181  ASN181      0.2266
    210  O         21.4710   58.1580   56.3850 O.2   181  ASN181     -0.2867
    211  CB        24.4220   56.9620   56.7050 C.3   181  ASN181      0.1155
    212  CG        23.8940   56.5880   55.3470 C.2   181  ASN181      0.2627
    213  OD1       23.9580   57.3900   54.4040 O.2   181  ASN181     -0.2716
    214  ND2       23.2660   55.4230   55.2720 N.am  181  ASN181     -0.0877
    215  N         18.0450   62.5120   58.7370 N.3   185  HIS185     -0.1241
    216  CA        16.6790   62.8870   58.4160 C.3   185  HIS185      0.1621
    217  C         15.9210   63.3700   59.6620 C.2   185  HIS185      0.2264
    218  O         15.2260   64.3840   59.6220 O.2   185  HIS185     -0.2867
    219  CB        15.9360   61.6710   57.8420 C.3   185  HIS185      0.0745
    220  CG        16.4680   61.2360   56.5220 C.ar  185  HIS185      0.0817
    221  ND1       16.4020   62.0340   55.4000 N.ar  185  HIS185     -0.2268
    222  CD2       17.1160   60.1090   56.1480 C.ar  185  HIS185      0.1154
    223  CE1       16.9710   61.4100   54.3840 C.ar  185  HIS185      0.1986
    224  NE2       17.4120   60.2400   54.8130 N.ar  185  HIS185     -0.2212
    225  N         10.5330   63.6090   46.6160 N.3   264  HIS264     -0.1241
    226  CA        11.6700   64.1950   45.9120 C.3   264  HIS264      0.1621
    227  C         11.2620   65.2350   44.8840 C.2   264  HIS264      0.2264
    228  O         11.9060   66.2940   44.7650 O.2   264  HIS264     -0.2867
    229  CB        12.5050   63.1050   45.2230 C.3   264  HIS264      0.0745
    230  CG        13.6140   62.5780   46.0790 C.ar  264  HIS264      0.0817
    231  ND1       13.3920   61.7490   47.1560 N.ar  264  HIS264     -0.2268
    232  CD2       14.9530   62.7690   46.0220 C.ar  264  HIS264      0.1154
    233  CE1       14.5460   61.4380   47.7220 C.ar  264  HIS264      0.1986
    234  NE2       15.5060   62.0690   47.0710 N.ar  264  HIS264     -0.2212
@<TRIPOS>BOND
     1    52    53    1
     2    53    56    1
     3    53    54    1
     4    63    62    2
     5    83    82    2
     6    78    77    2
     7    82    81    1
     8    77    76    1
     9    58    57    1
    10    80    81    1
    11    80    86    1
    12    60    54   am
    13    60    61    1
    14    56    57    1
    15    71    70    2
    16    54    55    2
    17    81    84    1
    18    62    61    1
    19    62    68   am
    20    70    69    1
    21    70    75   am
    22    57    59    1
    23    69    68    1
    24    69    72    1
    25    86    85    1
    26    76    75    1
    27    76    79    1
    28    61    64    1
    29    64    65    1
    30    68    74    1
    31    84    85    1
    32    16    13    1
    33    12    13    1
    34    13    14    1
    35    72    73    1
    36    65    66   ar
    37    65    67   ar
    38     1     2    1
    39    74    73    1
    40     2     3    1
    41     2     5    1
    42     7     5    1
    43    14    15    2
    44    14    17   am
    45     8     3   am
    46     8     9    1
    47    10    11    2
    48    10     9    1
    49     3     4    2
    50     5     6    1
    51    17    18    1
    52    44    43    2
    53    43    42    1
    54    41    42    1
    55    42    45    1
    56    20    19    2
    57   139   137   am
    58    18    19    1
    59    19    21   am
    60   134   133    2
    61   137   138    2
    62   137   136    1
    63    36    35    2
    64    45    46    1
    65    35    34    1
    66   136   135    1
    67   135   132    1
    68    87    88    1
    69    91    88    1
    70   132   133    1
    71   132   131    1
    72    46    47    1
    73    24    23    2
    74    21    22    1
    75    23    22    1
    76    23    33   am
    77   228   227    2
    78    88    89    1
    79    22    25    1
    80   227   226    1
    81    90    89    2
    82    89    92   am
    83    96    93    1
    84    96    97    1
    85    34    33    1
    86    34    37    1
    87    92    93    1
    88   229   226    1
    89   229   230    1
    90    93    94    1
    91    47    48    1
    92    39    37    1
    93   226   225    1
    94   232   230   ar
    95   232   234   ar
    96   120   118    1
    97   230   231   ar
    98   119   118    1
    99    37    38    1
   100    25    26    1
   101    48    49    2
   102   104    98    1
   103   104   103    1
   104    38    40    1
   105    28    26   ar
   106    28    30   ar
   107   118   117    1
   108    94    98   am
   109    94    95    2
   110   116   115    2
   111   117   114    1
   112    26    27   ar
   113   234   233   ar
   114   231   233   ar
   115   148   146   ar
   116    98    99    1
   117    30    31   ar
   118   145   146    1
   119   145   144    1
   120   103   102    1
   121   124   123    2
   122    49    51    1
   123    49    50    1
   124    27    29   ar
   125   115   114    1
   126   115   121   am
   127   140   141    1
   128   146   147   ar
   129   114   113    1
   130    31    29   ar
   131    31    32    1
   132   144   141    1
   133   123   122    1
   134   122   121    1
   135   122   125    1
   136    99   102    1
   137    99   100    1
   138   128   130   ar
   139   128   126   ar
   140   141   142    1
   141   101   100    2
   142   192   190   ar
   143   192   193   ar
   144   130   129   ar
   145   190   189   ar
   146   100   105   am
   147   126   125    1
   148   126   127   ar
   149   193   195   ar
   150   193   191   ar
   151   129   127   ar
   152   142   143    2
   153   142   149   am
   154   195   197   ar
   155   189   188    1
   156   189   191   ar
   157   206   205    1
   158   105   106    1
   159   188   185    1
   160   191   194   ar
   161   205   204    1
   162   162   163    1
   163   162   159    1
   164   182   179    1
   165   182   183    1
   166   149   150    1
   167   184   185    1
   168   184   180   am
   169   179   180    1
   170   179   178    1
   171   197   196   ar
   172   165   164    2
   173   166   164   am
   174   108   107    2
   175   164   163    1
   176   106   107    1
   177   106   109    1
   178   185   186    1
   179   194   196   ar
   180   180   181    2
   181   159   158    1
   182   159   160    1
   183   111   110    2
   184   204   203    1
   185   152   151    2
   186   150   151    1
   187   150   153    1
   188   203   202    1
   189   155   154    1
   190   155   156    1
   191   186   198   am
   192   186   187    2
   193   109   110    1
   194   161   160    2
   195   110   112   am
   196   198   199    1
   197   154   153    1
   198   157   156    1
   199   202   199    1
   200   199   200    1
   201   223   224   ar
   202   223   221   ar
   203   213   212    2
   204   177   175    1
   205   174   175    2
   206   174   173    1
   207   175   176    1
   208   173   172    1
   209   224   222   ar
   210   214   212   am
   211   212   211    1
   212   221   220   ar
   213   200   201    2
   214   172   171    1
   215   168   171    1
   216   168   169    1
   217   168   167    1
   218   169   170    2
   219   222   220   ar
   220   210   209    2
   221   220   219    1
   222   211   208    1
   223   208   209    1
   224   208   207    1
   225   219   216    1
   226   216   215    1
   227   216   217    1
   228   218   217    2
