@<TRIPOS>MOLECULE
tmp/3oa0B02.pdb
 212 207 0 0 0
SMALL
GASTEIGER

@<TRIPOS>ATOM
      1  N         20.9340   53.5830   44.3850 N.3    12  TYR12      -0.1227
      2  CA        19.5770   53.3010   44.8300 C.3    12  TYR12       0.1736
      3  C         18.6310   54.4960   44.7420 C.2    12  TYR12       0.2595
      4  O         17.4680   54.3610   44.3390 O.2    12  TYR12      -0.2718
      5  CB        19.6110   52.6580   46.2540 C.3    12  TYR12       0.0548
      6  CG        18.2720   52.7670   46.9620 C.ar   12  TYR12      -0.0200
      7  CD1       18.0440   53.8060   47.8520 C.ar   12  TYR12      -0.0009
      8  CD2       17.2380   51.8890   46.6940 C.ar   12  TYR12      -0.0009
      9  CE1       16.8510   53.9310   48.4880 C.ar   12  TYR12       0.0417
     10  CE2       16.0190   52.0160   47.3170 C.ar   12  TYR12       0.0417
     11  CZ        15.8410   53.0510   48.2020 C.ar   12  TYR12       0.1957
     12  OH        14.6450   53.2100   48.8370 O.3    12  TYR12      -0.2866
     13  N         19.0690   55.6810   45.1360 N.am   13  ILE13      -0.1980
     14  CA        18.1080   56.8010   45.1250 C.3    13  ILE13       0.1595
     15  C         18.0110   57.5510   43.7790 C.2    13  ILE13       0.2287
     16  O         17.0400   58.2590   43.5470 O.2    13  ILE13      -0.2864
     17  CB        18.4390   57.8630   46.2240 C.3    13  ILE13       0.0276
     18  CG1       17.2430   58.7620   46.5380 C.3    13  ILE13       0.0022
     19  CG2       19.6250   58.6470   45.8480 C.3    13  ILE13       0.0022
     20  CD1       16.2250   57.9500   47.3930 C.3    13  ILE13       0.0001
     21  N         14.6930   58.3400   41.8020 N.3    16  ARG16      -0.1245
     22  CA        13.7230   59.3570   42.1980 C.3    16  ARG16       0.1563
     23  C         14.2280   60.7010   41.6850 C.2    16  ARG16       0.2260
     24  O         13.4580   61.6370   41.4990 O.2    16  ARG16      -0.2867
     25  CB        13.5160   59.3900   43.7120 C.3    16  ARG16       0.0307
     26  CG        13.0880   58.0460   44.2980 C.3    16  ARG16       0.0489
     27  CD        12.7800   58.1610   45.7840 C.3    16  ARG16       0.2205
     28  NE        12.7720   56.8250   46.3680 N.pl3  16  ARG16      -0.0865
     29  CZ        12.5570   56.5670   47.6510 C.cat  16  ARG16       0.5346
     30  NH1       12.3290   57.5600   48.4980 N.pl3  16  ARG16       0.1354
     31  NH2       12.5700   55.3140   48.0850 N.pl3  16  ARG16       0.1354
     32  N         20.7960   64.3190   51.2450 N.3   101  LYS101     -0.1245
     33  CA        21.3170   64.4160   52.6070 C.3   101  LYS101      0.1561
     34  C         22.3790   63.3320   52.8910 C.2   101  LYS101      0.2260
     35  O         22.4430   62.3200   52.1930 O.2   101  LYS101     -0.2867
     36  CB        20.1610   64.3520   53.6200 C.3   101  LYS101      0.0271
     37  CG        18.9980   63.4630   53.2070 C.3   101  LYS101      0.0035
     38  CD        19.4680   62.0340   52.9980 C.3   101  LYS101      0.0206
     39  CE        20.3430   61.6010   54.1590 C.3   101  LYS101      0.1093
     40  NZ        21.0140   60.3050   53.9100 N.3   101  LYS101     -0.1314
     41  N         13.2980   65.7490   52.3880 N.3   129  GLN129     -0.1231
     42  CA        11.9100   65.4850   52.0860 C.3   129  GLN129      0.1698
     43  C         10.9870   65.3340   53.3020 C.2   129  GLN129      0.2592
     44  O          9.7730   65.4170   53.1290 O.2   129  GLN129     -0.2718
     45  CB        11.7670   64.2980   51.1210 C.3   129  GLN129      0.0381
     46  CG        11.9200   62.9230   51.7410 C.3   129  GLN129      0.0905
     47  CD        13.2990   62.2910   51.5670 C.2   129  GLN129      0.2608
     48  OE1       14.3210   62.9750   51.4970 O.2   129  GLN129     -0.2717
     49  NE2       13.3330   60.9660   51.5400 N.am  129  GLN129     -0.0878
     50  N         11.5080   65.1140   54.5130 N.am  130  LEU130     -0.1980
     51  CA        10.5900   64.9600   55.6500 C.3   130  LEU130      0.1596
     52  C          9.9410   66.3370   55.8230 C.2   130  LEU130      0.2287
     53  O          8.7730   66.4680   56.2020 O.2   130  LEU130     -0.2864
     54  CB        11.2860   64.4280   56.9130 C.3   130  LEU130      0.0297
     55  CG        11.7210   62.9690   56.9800 C.3   130  LEU130      0.0022
     56  CD1       12.2440   62.5400   58.3880 C.3   130  LEU130      0.0001
     57  CD2       10.5020   62.1410   56.6000 C.3   130  LEU130      0.0001
     58  N         13.0960   55.1480   64.8870 N.3   156  TYR156     -0.1241
     59  CA        13.3870   55.0750   63.4730 C.3   156  TYR156      0.1605
     60  C         14.0520   53.7230   63.2190 C.2   156  TYR156      0.2264
     61  O         15.2180   53.5400   63.5380 O.2   156  TYR156     -0.2867
     62  CB        14.4170   56.1420   63.1400 C.3   156  TYR156      0.0534
     63  CG        14.3670   56.7790   61.7600 C.ar  156  TYR156     -0.0201
     64  CD1       15.0530   56.2270   60.6780 C.ar  156  TYR156     -0.0009
     65  CD2       13.7020   58.0000   61.5670 C.ar  156  TYR156     -0.0009
     66  CE1       14.9910   56.8520   59.3890 C.ar  156  TYR156      0.0417
     67  CE2       13.6360   58.6230   60.3210 C.ar  156  TYR156      0.0417
     68  CZ        14.3060   58.0540   59.2390 C.ar  156  TYR156      0.1957
     69  OH        14.2700   58.6860   58.0120 O.3   156  TYR156     -0.2866
     70  N         14.8700   50.8560   60.1820 N.3   158  THR158     -0.1203
     71  CA        14.8500   50.7340   58.7290 C.3   158  THR158      0.1994
     72  C         15.6550   49.4670   58.4450 C.2   158  THR158      0.2618
     73  O         16.8810   49.5260   58.3950 O.2   158  THR158     -0.2717
     74  CB        15.4800   51.9810   58.0050 C.3   158  THR158      0.1784
     75  OG1       16.7790   52.2850   58.5450 O.3   158  THR158     -0.2211
     76  CG2       14.6070   53.2360   58.1110 C.3   158  THR158      0.0376
     77  N         14.9910   48.3180   58.3190 N.am  159  GLY159     -0.1942
     78  CA        15.7010   47.0360   58.2680 C.3   159  GLY159      0.2014
     79  C         16.6030   46.9830   57.0480 C.2   159  GLY159      0.2638
     80  O         16.1970   47.4760   56.0050 O.2   159  GLY159     -0.2714
     81  N         17.8170   46.4510   57.1810 N.am  160  ARG160     -0.1977
     82  CA        18.6980   46.2010   56.0340 C.3   160  ARG160      0.1597
     83  C         19.2510   44.7850   56.0970 C.2   160  ARG160      0.2287
     84  O         19.6600   44.3580   57.1560 O.2   160  ARG160     -0.2864
     85  CB        19.8840   47.1580   56.0580 C.3   160  ARG160      0.0334
     86  CG        19.4300   48.5880   56.0210 C.3   160  ARG160      0.0492
     87  CD        18.8570   48.9000   54.6820 C.3   160  ARG160      0.2205
     88  NE        18.5170   50.3150   54.5780 N.pl3 160  ARG160     -0.0865
     89  CZ        17.2840   50.8060   54.6800 C.cat 160  ARG160      0.5346
     90  NH1       16.2490   50.0090   54.9140 N.pl3 160  ARG160      0.1354
     91  NH2       17.0720   52.1080   54.5260 N.pl3 160  ARG160      0.1354
     92  N         23.7380   42.7890   52.8370 N.3   163  TRP163     -0.1227
     93  CA        24.4030   43.5990   51.8260 C.3   163  TRP163      0.1737
     94  C         24.8540   44.9230   52.4470 C.2   163  TRP163      0.2595
     95  O         25.9630   45.3640   52.1700 O.2   163  TRP163     -0.2718
     96  CB        23.5140   43.8100   50.5740 C.3   163  TRP163      0.0564
     97  CG        22.2980   44.6120   50.8660 C.ar  163  TRP163      0.0003
     98  CD1       21.0950   44.1580   51.3170 C.ar  163  TRP163      0.0946
     99  CD2       22.2220   46.0330   50.8660 C.ar  163  TRP163      0.0152
    100  NE1       20.2440   45.2170   51.5250 N.ar  163  TRP163     -0.2442
    101  CE2       20.9170   46.3820   51.2510 C.ar  163  TRP163      0.0810
    102  CE3       23.1110   47.0510   50.4860 C.ar  163  TRP163      0.0012
    103  CZ2       20.4860   47.7070   51.3000 C.ar  163  TRP163      0.0191
    104  CZ3       22.6670   48.3730   50.5290 C.ar  163  TRP163      0.0001
    105  CH2       21.3670   48.6800   50.9420 C.ar  163  TRP163      0.0015
    106  N         24.0320   45.5610   53.2830 N.am  164  TYR164     -0.1976
    107  CA        24.3920   46.8780   53.8580 C.3   164  TYR164      0.1639
    108  C         25.8020   46.8990   54.4640 C.2   164  TYR164      0.2290
    109  O         26.5260   47.8680   54.3260 O.2   164  TYR164     -0.2864
    110  CB        23.3070   47.3310   54.8520 C.3   164  TYR164      0.0560
    111  CG        23.2670   48.7920   55.3180 C.ar  164  TYR164     -0.0198
    112  CD1       22.4560   49.7680   54.7070 C.ar  164  TYR164     -0.0009
    113  CD2       23.9820   49.1750   56.4460 C.ar  164  TYR164     -0.0009
    114  CE1       22.3880   51.1020   55.2420 C.ar  164  TYR164      0.0417
    115  CE2       23.9440   50.4860   56.9430 C.ar  164  TYR164      0.0417
    116  CZ        23.1500   51.4430   56.3550 C.ar  164  TYR164      0.1957
    117  OH        23.1780   52.7130   56.9270 O.3   164  TYR164     -0.2866
    118  N         29.4800   51.1700   51.2490 N.3   168  TRP168     -0.1227
    119  CA        30.0680   52.3570   51.8320 C.3   168  TRP168      0.1737
    120  C         29.3050   52.8690   53.0650 C.2   168  TRP168      0.2595
    121  O         29.8690   53.5920   53.8910 O.2   168  TRP168     -0.2718
    122  CB        30.1880   53.4790   50.8080 C.3   168  TRP168      0.0564
    123  CG        28.8280   53.9300   50.3380 C.ar  168  TRP168      0.0003
    124  CD1       28.2100   53.4760   49.2100 C.ar  168  TRP168      0.0946
    125  CD2       27.9920   54.9510   50.8800 C.ar  168  TRP168      0.0152
    126  NE1       27.0320   54.1300   49.0280 N.ar  168  TRP168     -0.2442
    127  CE2       26.8710   55.0530   50.0270 C.ar  168  TRP168      0.0810
    128  CE3       28.0970   55.8250   51.9780 C.ar  168  TRP168      0.0012
    129  CZ2       25.7910   55.8910   50.2940 C.ar  168  TRP168      0.0191
    130  CZ3       27.0010   56.6390   52.2690 C.ar  168  TRP168      0.0001
    131  CH2       25.8830   56.7020   51.4060 C.ar  168  TRP168      0.0015
    132  N         28.0230   52.5190   53.1590 N.am  169  LYS169     -0.1980
    133  CA        27.1260   53.0530   54.1640 C.3   169  LYS169      0.1596
    134  C         27.5360   52.7200   55.5840 C.2   169  LYS169      0.2287
    135  O         27.1790   53.4560   56.4940 O.2   169  LYS169     -0.2864
    136  CB        25.6930   52.5740   53.9340 C.3   169  LYS169      0.0298
    137  CG        25.1850   53.2200   52.6470 C.3   169  LYS169      0.0038
    138  CD        23.8920   52.6390   52.1630 C.3   169  LYS169      0.0206
    139  CE        23.4550   53.3760   50.8900 C.3   169  LYS169      0.1093
    140  NZ        22.0240   53.2240   50.6130 N.3   169  LYS169     -0.1314
    141  N         24.2130   58.6310   58.5130 N.3   181  ASN181     -0.1225
    142  CA        23.6950   58.1700   57.2410 C.3   181  ASN181      0.1785
    143  C         22.2160   57.8670   57.3110 C.2   181  ASN181      0.2597
    144  O         21.4710   58.1580   56.3850 O.2   181  ASN181     -0.2718
    145  CB        24.4220   56.9620   56.7050 C.3   181  ASN181      0.1169
    146  CG        23.8940   56.5880   55.3470 C.2   181  ASN181      0.2627
    147  OD1       23.9580   57.3900   54.4040 O.2   181  ASN181     -0.2716
    148  ND2       23.2660   55.4230   55.2720 N.am  181  ASN181     -0.0877
    149  N         21.7520   57.2950   58.4100 N.am  182  ILE182     -0.1980
    150  CA        20.3090   57.2120   58.4760 C.3   182  ILE182      0.1595
    151  C         19.6800   58.3580   59.2960 C.2   182  ILE182      0.2287
    152  O         18.6930   58.9870   58.8960 O.2   182  ILE182     -0.2864
    153  CB        19.8950   55.8400   58.9750 C.3   182  ILE182      0.0276
    154  CG1       20.3940   54.8030   57.9660 C.3   182  ILE182      0.0022
    155  CG2       18.3820   55.7850   59.0880 C.3   182  ILE182      0.0022
    156  CD1       20.3470   53.4360   58.5250 C.3   182  ILE182      0.0001
    157  N         18.0450   62.5120   58.7370 N.3   185  HIS185     -0.1241
    158  CA        16.6790   62.8870   58.4160 C.3   185  HIS185      0.1621
    159  C         15.9210   63.3700   59.6620 C.2   185  HIS185      0.2264
    160  O         15.2260   64.3840   59.6220 O.2   185  HIS185     -0.2867
    161  CB        15.9360   61.6710   57.8420 C.3   185  HIS185      0.0745
    162  CG        16.4680   61.2360   56.5220 C.ar  185  HIS185      0.0817
    163  ND1       16.4020   62.0340   55.4000 N.ar  185  HIS185     -0.2268
    164  CD2       17.1160   60.1090   56.1480 C.ar  185  HIS185      0.1154
    165  CE1       16.9710   61.4100   54.3840 C.ar  185  HIS185      0.1986
    166  NE2       17.4120   60.2400   54.8130 N.ar  185  HIS185     -0.2212
    167  N          9.3340   46.0120   57.3590 N.3   242  ARG242     -0.1231
    168  CA        10.7530   46.0780   57.7080 C.3   242  ARG242      0.1694
    169  C         11.1970   47.4690   58.1740 C.2   242  ARG242      0.2592
    170  O         12.3590   47.6770   58.5280 O.2   242  ARG242     -0.2718
    171  CB        11.5910   45.6400   56.4980 C.3   242  ARG242      0.0321
    172  CG        11.2720   44.2250   56.0110 C.3   242  ARG242      0.0489
    173  CD        12.0370   43.9320   54.7100 C.3   242  ARG242      0.2205
    174  NE        13.4390   44.3400   54.8100 N.pl3 242  ARG242     -0.0865
    175  CZ        14.3320   43.7590   55.6120 C.cat 242  ARG242      0.5346
    176  NH1       14.0040   42.7320   56.3920 N.pl3 242  ARG242      0.1354
    177  NH2       15.5740   44.2110   55.6410 N.pl3 242  ARG242      0.1354
    178  N         10.2670   48.4160   58.1690 N.am  243  THR243     -0.1953
    179  CA        10.5870   49.8200   58.3460 C.3   243  THR243      0.1897
    180  C          9.5250   50.4400   59.2220 C.2   243  THR243      0.2313
    181  O          8.3310   50.2850   58.9590 O.2   243  THR243     -0.2863
    182  CB        10.6060   50.5630   56.9960 C.3   243  THR243      0.1794
    183  OG1       11.9280   50.4820   56.4700 O.3   243  THR243     -0.2208
    184  CG2       10.2190   52.0510   57.1120 C.3   243  THR243      0.0378
    185  N          8.9010   54.1700   61.3580 N.3   245  ARG245     -0.1245
    186  CA         9.3710   55.5200   61.6670 C.3   245  ARG245      0.1563
    187  C          8.2580   56.2910   62.3490 C.2   245  ARG245      0.2260
    188  O          7.2220   56.5770   61.7320 O.2   245  ARG245     -0.2867
    189  CB         9.6860   56.2540   60.3680 C.3   245  ARG245      0.0307
    190  CG        10.9240   55.7230   59.6690 C.3   245  ARG245      0.0489
    191  CD        11.2450   56.6080   58.4600 C.3   245  ARG245      0.2205
    192  NE        10.4230   56.2950   57.2950 N.pl3 245  ARG245     -0.0865
    193  CZ        10.9290   55.8670   56.1430 C.cat 245  ARG245      0.5346
    194  NH1       10.1460   55.5900   55.1120 N.pl3 245  ARG245      0.1354
    195  NH2       12.2380   55.7300   56.0170 N.pl3 245  ARG245      0.1354
    196  N          6.3900   56.1210   58.1170 N.3   257  SER257     -0.1217
    197  CA         7.0970   55.0010   57.4850 C.3   257  SER257      0.1889
    198  C          6.7020   55.0500   56.0100 C.2   257  SER257      0.2288
    199  O          7.4060   54.5390   55.1430 O.2   257  SER257     -0.2866
    200  CB         6.6620   53.6410   58.0680 C.3   257  SER257      0.2089
    201  OG         6.4310   53.6110   59.4830 O.3   257  SER257     -0.2183
    202  N          6.4610   58.4150   50.5390 N.3   260  PHE260     -0.1241
    203  CA         7.5970   59.1590   49.9640 C.3   260  PHE260      0.1605
    204  C          7.6670   59.1730   48.4310 C.2   260  PHE260      0.2264
    205  O          8.3960   59.9690   47.8230 O.2   260  PHE260     -0.2867
    206  CB         8.9400   58.6780   50.5440 C.3   260  PHE260      0.0534
    207  CG         9.0720   58.8910   52.0240 C.ar  260  PHE260     -0.0203
    208  CD1        9.8070   59.9520   52.5260 C.ar  260  PHE260     -0.0042
    209  CD2        8.4460   58.0310   52.9130 C.ar  260  PHE260     -0.0042
    210  CE1        9.9130   60.1440   53.8930 C.ar  260  PHE260     -0.0003
    211  CE2        8.5360   58.2220   54.2820 C.ar  260  PHE260     -0.0003
    212  CZ         9.2780   59.2730   54.7690 C.ar  260  PHE260     -0.0000
@<TRIPOS>BOND
     1    24    23    2
     2    23    22    1
     3    21    22    1
     4    22    25    1
     5    16    15    2
     6    25    26    1
     7    15    14    1
     8    26    27    1
     9     4     3    2
    10     1     2    1
    11     3     2    1
    12     3    13   am
    13     2     5    1
    14    14    13    1
    15    14    17    1
    16    27    28    1
    17    19    17    1
    18    17    18    1
    19     5     6    1
    20    28    29    2
    21    18    20    1
    22     8     6   ar
    23     8    10   ar
    24     6     7   ar
    25    10    11   ar
    26    29    31    1
    27    29    30    1
    28   205   204    2
    29     7     9   ar
    30    11     9   ar
    31    11    12    1
    32   204   203    1
    33   126   124   ar
    34   126   127   ar
    35   124   123   ar
    36   203   202    1
    37   203   206    1
    38   127   129   ar
    39   127   125   ar
    40   129   131   ar
    41   123   122    1
    42   123   125   ar
    43   102   104   ar
    44   102    99   ar
    45   104   105   ar
    46   206   207    1
    47    96    97    1
    48    96    93    1
    49   140   139    1
    50   122   119    1
    51    99    97   ar
    52    99   101   ar
    53    97    98   ar
    54   125   128   ar
    55   139   138    1
    56   105   103   ar
    57    45    46    1
    58    45    42    1
    59    32    33    1
    60   118   119    1
    61   101   103   ar
    62   101   100   ar
    63    98   100   ar
    64   131   130   ar
    65    48    47    2
    66    49    47   am
    67    47    46    1
    68    93    94    1
    69    93    92    1
    70   119   120    1
    71   128   130   ar
    72   207   208   ar
    73   207   209   ar
    74    42    41    1
    75    42    43    1
    76   138   137    1
    77    95    94    2
    78    35    34    2
    79    94   106   am
    80   208   210   ar
    81    33    34    1
    82    33    36    1
    83   137   136    1
    84   209   211   ar
    85    38    37    1
    86    38    39    1
    87   120   132   am
    88   120   121    2
    89    44    43    2
    90   132   133    1
    91    37    36    1
    92   106   107    1
    93    43    50   am
    94   107   108    1
    95   107   110    1
    96   210   212   ar
    97    40    39    1
    98   136   133    1
    99   133   134    1
   100   211   212   ar
   101   109   108    2
   102   165   166   ar
   103   165   163   ar
   104   147   146    2
   105    50    51    1
   106    91    89    1
   107    88    89    2
   108    88    87    1
   109    89    90    1
   110    87    86    1
   111   112   114   ar
   112   112   111   ar
   113   173   174    1
   114   173   172    1
   115   174   175    2
   116   166   164   ar
   117   110   111    1
   118   194   193    1
   119   199   198    2
   120   114   116   ar
   121   148   146   am
   122   111   113   ar
   123   146   145    1
   124   163   162   ar
   125   134   135    2
   126   175   177    1
   127   175   176    1
   128    51    52    1
   129    51    54    1
   130    52    53    2
   131    80    79    2
   132   198   197    1
   133   172   171    1
   134   195   193    1
   135    86    85    1
   136    82    85    1
   137    82    83    1
   138    82    81    1
   139    83    84    2
   140   193   192    2
   141   164   162   ar
   142   116   117    1
   143   116   115   ar
   144   144   143    2
   145   113   115   ar
   146   183   182    1
   147   171   168    1
   148   162   161    1
   149    57    55    1
   150   145   142    1
   151    54    55    1
   152    55    56    1
   153   182   184    1
   154   182   179    1
   155    79    81   am
   156    79    78    1
   157   142   143    1
   158   142   141    1
   159   192   191    1
   160   143   149   am
   161   167   168    1
   162   197   200    1
   163   197   196    1
   164   168   169    1
   165   161   158    1
   166   154   156    1
   167   154   153    1
   168    74    76    1
   169    74    75    1
   170    74    71    1
   171    69    68    1
   172   200   201    1
   173   178   169   am
   174   178   179    1
   175   169   170    2
   176    78    77    1
   177    77    72   am
   178   179   180    1
   179    73    72    2
   180   149   150    1
   181   158   157    1
   182   158   159    1
   183    72    71    1
   184   191   190    1
   185   150   153    1
   186   150   151    1
   187    71    70    1
   188   152   151    2
   189   181   180    2
   190   153   155    1
   191    68    66   ar
   192    68    67   ar
   193    66    64   ar
   194   160   159    2
   195   190   189    1
   196    67    65   ar
   197   189   186    1
   198    64    63   ar
   199   185   186    1
   200    65    63   ar
   201   186   187    1
   202   188   187    2
   203    63    62    1
   204    62    59    1
   205    60    59    1
   206    60    61    2
   207    59    58    1
